MODEL 1
REMARK VINA RESULT:      -7.7      0.000      0.000
REMARK  Name = 
REMARK  11 active torsions:
REMARK  status: ('A' for Active; 'I' for Inactive)
REMARK    1  A    between atoms: C_1  and  O_2
REMARK    2  A    between atoms: O_2  and  C_3
REMARK    3  A    between atoms: C_5  and  C_6
REMARK    4  A    between atoms: C_6  and  C_8
REMARK    5  A    between atoms: C_10  and  C_11
REMARK    6  A    between atoms: C_14  and  C_15
REMARK    7  A    between atoms: C_19  and  N_20
REMARK    8  A    between atoms: C_22  and  O_23
REMARK    9  A    between atoms: O_23  and  C_24
REMARK   10  A    between atoms: C_25  and  O_26
REMARK   11  A    between atoms: O_26  and  C_27
REMARK                            x       y       z     vdW  Elec       q    Type
REMARK                         _______ _______ _______ _____ _____    ______ ____
ROOT
ATOM      1  C   UNL     1       1.286   9.405  19.326  0.00  0.00    +0.000 A 
ATOM      2  S   UNL     1       1.884   8.804  17.830  0.00  0.00    +0.000 S 
ATOM      3  C   UNL     1       2.566   7.401  18.545  0.00  0.00    +0.000 A 
ATOM      4  C   UNL     1       2.163   7.311  19.869  0.00  0.00    +0.000 A 
ATOM      5  C   UNL     1       1.424   8.446  20.304  0.00  0.00    +0.000 A 
ENDROOT
BRANCH   3   6
ATOM      6  C   UNL     1       3.445   6.494  17.777  0.00  0.00    +0.000 A 
ATOM      7  C   UNL     1       3.177   5.116  17.750  0.00  0.00    +0.000 A 
ATOM      8  C   UNL     1       3.996   4.228  17.041  0.00  0.00    +0.000 A 
ATOM      9  C   UNL     1       5.112   4.693  16.345  0.00  0.00    +0.000 A 
ATOM     10  C   UNL     1       5.998   3.756  15.580  0.00  0.00    +0.000 C 
ATOM     11  C   UNL     1       5.393   6.062  16.366  0.00  0.00    +0.000 A 
ATOM     12  C   UNL     1       4.570   6.950  17.072  0.00  0.00    +0.000 A 
ENDBRANCH   3   6
BRANCH   5  13
ATOM     13  N   UNL     1       0.967   8.569  21.567  0.00  0.00    +0.000 N 
ATOM     14  H   UNL     1       1.152   9.397  22.117  0.00  0.00    +0.000 HD
ATOM     15  H   UNL     1       0.871   7.728  22.142  0.00  0.00    +0.000 HD
ENDBRANCH   5  13
BRANCH   1  16
ATOM     16  C   UNL     1       0.668  10.731  19.423  0.00  0.00    +0.000 C 
ATOM     17  O   UNL     1       1.287  11.739  19.764  0.00  0.00    +0.000 OA
BRANCH  16  20
ATOM     18  C   UNL     1      -2.882  12.069  19.380  0.00  0.00    +0.000 A 
ATOM     19  C   UNL     1      -1.606  11.715  19.834  0.00  0.00    +0.000 A 
ATOM     20  C   UNL     1      -0.776  10.897  19.069  0.00  0.00    +0.000 A 
ATOM     21  C   UNL     1      -1.302  10.267  17.944  0.00  0.00    +0.000 A 
ATOM     22  C   UNL     1      -2.622  10.522  17.527  0.00  0.00    +0.000 A 
ATOM     23  C   UNL     1      -3.425  11.451  18.231  0.00  0.00    +0.000 A 
BRANCH  18  25
ATOM     24  C   UNL     1      -3.759  12.742  21.480  0.00  0.00    +0.000 C 
ATOM     25  O   UNL     1      -3.612  12.996  20.079  0.00  0.00    +0.000 OA
ENDBRANCH  18  25
BRANCH  22  26
ATOM     26  O   UNL     1      -2.936   9.801  16.399  0.00  0.00    +0.000 OA
ATOM     27  C   UNL     1      -2.923  10.434  15.128  0.00  0.00    +0.000 C 
ENDBRANCH  22  26
BRANCH  23  28
ATOM     28  O   UNL     1      -4.687  11.658  17.742  0.00  0.00    +0.000 OA
ATOM     29  C   UNL     1      -5.797  10.965  18.289  0.00  0.00    +0.000 C 
ENDBRANCH  23  28
ENDBRANCH  16  20
ENDBRANCH   1  16
TORSDOF 7
ENDMDL
MODEL 2
REMARK VINA RESULT:      -7.6      0.428      1.019
REMARK  Name = 
REMARK  11 active torsions:
REMARK  status: ('A' for Active; 'I' for Inactive)
REMARK    1  A    between atoms: C_1  and  O_2
REMARK    2  A    between atoms: O_2  and  C_3
REMARK    3  A    between atoms: C_5  and  C_6
REMARK    4  A    between atoms: C_6  and  C_8
REMARK    5  A    between atoms: C_10  and  C_11
REMARK    6  A    between atoms: C_14  and  C_15
REMARK    7  A    between atoms: C_19  and  N_20
REMARK    8  A    between atoms: C_22  and  O_23
REMARK    9  A    between atoms: O_23  and  C_24
REMARK   10  A    between atoms: C_25  and  O_26
REMARK   11  A    between atoms: O_26  and  C_27
REMARK                            x       y       z     vdW  Elec       q    Type
REMARK                         _______ _______ _______ _____ _____    ______ ____
ROOT
ATOM      1  C   UNL     1       1.332   9.391  19.366  0.00  0.00    +0.000 A 
ATOM      2  S   UNL     1       1.969   8.799  17.882  0.00  0.00    +0.000 S 
ATOM      3  C   UNL     1       2.557   7.351  18.591  0.00  0.00    +0.000 A 
ATOM      4  C   UNL     1       2.092   7.248  19.893  0.00  0.00    +0.000 A 
ATOM      5  C   UNL     1       1.385   8.404  20.325  0.00  0.00    +0.000 A 
ENDROOT
BRANCH   3   6
ATOM      6  C   UNL     1       3.429   6.424  17.839  0.00  0.00    +0.000 A 
ATOM      7  C   UNL     1       4.519   6.924  17.109  0.00  0.00    +0.000 A 
ATOM      8  C   UNL     1       5.359   6.075  16.377  0.00  0.00    +0.000 A 
ATOM      9  C   UNL     1       5.126   4.699  16.349  0.00  0.00    +0.000 A 
ATOM     10  C   UNL     1       6.017   3.777  15.572  0.00  0.00    +0.000 C 
ATOM     11  C   UNL     1       4.042   4.187  17.067  0.00  0.00    +0.000 A 
ATOM     12  C   UNL     1       3.206   5.038  17.803  0.00  0.00    +0.000 A 
ENDBRANCH   3   6
BRANCH   5  13
ATOM     13  N   UNL     1       0.878   8.518  21.569  0.00  0.00    +0.000 N 
ATOM     14  H   UNL     1      -0.101   8.349  21.758  0.00  0.00    +0.000 HD
ATOM     15  H   UNL     1       1.290   9.200  22.210  0.00  0.00    +0.000 HD
ENDBRANCH   5  13
BRANCH   1  16
ATOM     16  C   UNL     1       0.769  10.741  19.469  0.00  0.00    +0.000 C 
ATOM     17  O   UNL     1       1.443  11.732  19.749  0.00  0.00    +0.000 OA
BRANCH  16  20
ATOM     18  C   UNL     1      -2.748  12.149  19.676  0.00  0.00    +0.000 A 
ATOM     19  C   UNL     1      -1.459  11.748  20.045  0.00  0.00    +0.000 A 
ATOM     20  C   UNL     1      -0.688  10.953  19.199  0.00  0.00    +0.000 A 
ATOM     21  C   UNL     1      -1.283  10.390  18.074  0.00  0.00    +0.000 A 
ATOM     22  C   UNL     1      -2.617  10.691  17.739  0.00  0.00    +0.000 A 
ATOM     23  C   UNL     1      -3.362  11.600  18.528  0.00  0.00    +0.000 A 
BRANCH  18  25
ATOM     24  C   UNL     1      -2.683  14.224  20.826  0.00  0.00    +0.000 C 
ATOM     25  O   UNL     1      -3.420  13.055  20.456  0.00  0.00    +0.000 OA
ENDBRANCH  18  25
BRANCH  22  26
ATOM     26  O   UNL     1      -3.005  10.033  16.595  0.00  0.00    +0.000 OA
ATOM     27  C   UNL     1      -2.898  10.680  15.336  0.00  0.00    +0.000 C 
ENDBRANCH  22  26
BRANCH  23  28
ATOM     28  O   UNL     1      -4.643  11.856  18.115  0.00  0.00    +0.000 OA
ATOM     29  C   UNL     1      -5.717  11.034  18.542  0.00  0.00    +0.000 C 
ENDBRANCH  23  28
ENDBRANCH  16  20
ENDBRANCH   1  16
TORSDOF 7
ENDMDL
MODEL 3
REMARK VINA RESULT:      -7.6      0.278      2.470
REMARK  Name = 
REMARK  11 active torsions:
REMARK  status: ('A' for Active; 'I' for Inactive)
REMARK    1  A    between atoms: C_1  and  O_2
REMARK    2  A    between atoms: O_2  and  C_3
REMARK    3  A    between atoms: C_5  and  C_6
REMARK    4  A    between atoms: C_6  and  C_8
REMARK    5  A    between atoms: C_10  and  C_11
REMARK    6  A    between atoms: C_14  and  C_15
REMARK    7  A    between atoms: C_19  and  N_20
REMARK    8  A    between atoms: C_22  and  O_23
REMARK    9  A    between atoms: O_23  and  C_24
REMARK   10  A    between atoms: C_25  and  O_26
REMARK   11  A    between atoms: O_26  and  C_27
REMARK                            x       y       z     vdW  Elec       q    Type
REMARK                         _______ _______ _______ _____ _____    ______ ____
ROOT
ATOM      1  C   UNL     1       1.165   9.562  19.513  0.00  0.00    +0.000 A 
ATOM      2  S   UNL     1       1.771   8.973  18.015  0.00  0.00    +0.000 S 
ATOM      3  C   UNL     1       2.393   7.534  18.712  0.00  0.00    +0.000 A 
ATOM      4  C   UNL     1       1.962   7.429  20.026  0.00  0.00    +0.000 A 
ATOM      5  C   UNL     1       1.253   8.579  20.473  0.00  0.00    +0.000 A 
ENDROOT
BRANCH   3   6
ATOM      6  C   UNL     1       3.257   6.615  17.941  0.00  0.00    +0.000 A 
ATOM      7  C   UNL     1       2.980   5.238  17.929  0.00  0.00    +0.000 A 
ATOM      8  C   UNL     1       3.784   4.339  17.217  0.00  0.00    +0.000 A 
ATOM      9  C   UNL     1       4.893   4.791  16.503  0.00  0.00    +0.000 A 
ATOM     10  C   UNL     1       5.763   3.841  15.734  0.00  0.00    +0.000 C 
ATOM     11  C   UNL     1       5.184   6.159  16.509  0.00  0.00    +0.000 A 
ATOM     12  C   UNL     1       4.375   7.058  17.217  0.00  0.00    +0.000 A 
ENDBRANCH   3   6
BRANCH   5  13
ATOM     13  N   UNL     1       0.776   8.689  21.730  0.00  0.00    +0.000 N 
ATOM     14  H   UNL     1       0.888   7.944  22.404  0.00  0.00    +0.000 HD
ATOM     15  H   UNL     1      -0.069   9.242  21.890  0.00  0.00    +0.000 HD
ENDBRANCH   5  13
BRANCH   1  16
ATOM     16  C   UNL     1       0.588  10.906  19.628  0.00  0.00    +0.000 C 
ATOM     17  O   UNL     1       1.196  11.859  20.116  0.00  0.00    +0.000 OA
BRANCH  16  20
ATOM     18  C   UNL     1      -2.617  10.534  17.632  0.00  0.00    +0.000 A 
ATOM     19  C   UNL     1      -1.262  10.490  17.981  0.00  0.00    +0.000 A 
ATOM     20  C   UNL     1      -0.791  11.161  19.109  0.00  0.00    +0.000 A 
ATOM     21  C   UNL     1      -1.640  12.043  19.772  0.00  0.00    +0.000 A 
ATOM     22  C   UNL     1      -2.982  12.189  19.372  0.00  0.00    +0.000 A 
ATOM     23  C   UNL     1      -3.495  11.412  18.305  0.00  0.00    +0.000 A 
BRANCH  18  25
ATOM     24  C   UNL     1      -2.875  10.254  15.290  0.00  0.00    +0.000 C 
ATOM     25  O   UNL     1      -3.075   9.742  16.611  0.00  0.00    +0.000 OA
ENDBRANCH  18  25
BRANCH  22  26
ATOM     26  O   UNL     1      -3.640  13.105  20.158  0.00  0.00    +0.000 OA
ATOM     27  C   UNL     1      -4.209  12.698  21.393  0.00  0.00    +0.000 C 
ENDBRANCH  22  26
BRANCH  23  28
ATOM     28  O   UNL     1      -4.817  11.598  17.999  0.00  0.00    +0.000 OA
ATOM     29  C   UNL     1      -5.811  10.738  18.532  0.00  0.00    +0.000 C 
ENDBRANCH  23  28
ENDBRANCH  16  20
ENDBRANCH   1  16
TORSDOF 7
ENDMDL
MODEL 4
REMARK VINA RESULT:      -7.4      1.825      1.960
REMARK  Name = 
REMARK  11 active torsions:
REMARK  status: ('A' for Active; 'I' for Inactive)
REMARK    1  A    between atoms: C_1  and  O_2
REMARK    2  A    between atoms: O_2  and  C_3
REMARK    3  A    between atoms: C_5  and  C_6
REMARK    4  A    between atoms: C_6  and  C_8
REMARK    5  A    between atoms: C_10  and  C_11
REMARK    6  A    between atoms: C_14  and  C_15
REMARK    7  A    between atoms: C_19  and  N_20
REMARK    8  A    between atoms: C_22  and  O_23
REMARK    9  A    between atoms: O_23  and  C_24
REMARK   10  A    between atoms: C_25  and  O_26
REMARK   11  A    between atoms: O_26  and  C_27
REMARK                            x       y       z     vdW  Elec       q    Type
REMARK                         _______ _______ _______ _____ _____    ______ ____
ROOT
ATOM      1  C   UNL     1       1.229   9.650  19.405  0.00  0.00    +0.000 A 
ATOM      2  S   UNL     1       1.408   8.094  20.115  0.00  0.00    +0.000 S 
ATOM      3  C   UNL     1       2.286   7.470  18.780  0.00  0.00    +0.000 A 
ATOM      4  C   UNL     1       2.599   8.500  17.907  0.00  0.00    +0.000 A 
ATOM      5  C   UNL     1       2.008   9.740  18.273  0.00  0.00    +0.000 A 
ENDROOT
BRANCH   3   6
ATOM      6  C   UNL     1       2.602   6.029  18.671  0.00  0.00    +0.000 A 
ATOM      7  C   UNL     1       1.799   5.194  17.879  0.00  0.00    +0.000 A 
ATOM      8  C   UNL     1       2.063   3.823  17.762  0.00  0.00    +0.000 A 
ATOM      9  C   UNL     1       3.137   3.248  18.443  0.00  0.00    +0.000 A 
ATOM     10  C   UNL     1       3.435   1.783  18.327  0.00  0.00    +0.000 C 
ATOM     11  C   UNL     1       3.944   4.067  19.238  0.00  0.00    +0.000 A 
ATOM     12  C   UNL     1       3.680   5.439  19.350  0.00  0.00    +0.000 A 
ENDBRANCH   3   6
BRANCH   5  13
ATOM     13  N   UNL     1       2.164  10.860  17.538  0.00  0.00    +0.000 N 
ATOM     14  H   UNL     1       2.825  10.901  16.774  0.00  0.00    +0.000 HD
ATOM     15  H   UNL     1       2.022  11.769  17.985  0.00  0.00    +0.000 HD
ENDBRANCH   5  13
BRANCH   1  16
ATOM     16  C   UNL     1       0.403  10.686  20.035  0.00  0.00    +0.000 C 
ATOM     17  O   UNL     1       0.812  11.414  20.939  0.00  0.00    +0.000 OA
BRANCH  16  20
ATOM     18  C   UNL     1      -3.058  12.188  19.637  0.00  0.00    +0.000 A 
ATOM     19  C   UNL     1      -1.843  11.794  20.212  0.00  0.00    +0.000 A 
ATOM     20  C   UNL     1      -0.996  10.904  19.554  0.00  0.00    +0.000 A 
ATOM     21  C   UNL     1      -1.458  10.250  18.415  0.00  0.00    +0.000 A 
ATOM     22  C   UNL     1      -2.725  10.548  17.877  0.00  0.00    +0.000 A 
ATOM     23  C   UNL     1      -3.534  11.546  18.473  0.00  0.00    +0.000 A 
BRANCH  18  25
ATOM     24  C   UNL     1      -4.233  12.908  21.569  0.00  0.00    +0.000 C 
ATOM     25  O   UNL     1      -3.794  13.179  20.234  0.00  0.00    +0.000 OA
ENDBRANCH  18  25
BRANCH  22  26
ATOM     26  O   UNL     1      -2.981   9.793  16.757  0.00  0.00    +0.000 OA
ATOM     27  C   UNL     1      -2.669  10.306  15.471  0.00  0.00    +0.000 C 
ENDBRANCH  22  26
BRANCH  23  28
ATOM     28  O   UNL     1      -4.739  11.790  17.870  0.00  0.00    +0.000 OA
ATOM     29  C   UNL     1      -5.924  11.173  18.347  0.00  0.00    +0.000 C 
ENDBRANCH  23  28
ENDBRANCH  16  20
ENDBRANCH   1  16
TORSDOF 7
ENDMDL
MODEL 5
REMARK VINA RESULT:      -7.3      1.558      3.154
REMARK  Name = 
REMARK  11 active torsions:
REMARK  status: ('A' for Active; 'I' for Inactive)
REMARK    1  A    between atoms: C_1  and  O_2
REMARK    2  A    between atoms: O_2  and  C_3
REMARK    3  A    between atoms: C_5  and  C_6
REMARK    4  A    between atoms: C_6  and  C_8
REMARK    5  A    between atoms: C_10  and  C_11
REMARK    6  A    between atoms: C_14  and  C_15
REMARK    7  A    between atoms: C_19  and  N_20
REMARK    8  A    between atoms: C_22  and  O_23
REMARK    9  A    between atoms: O_23  and  C_24
REMARK   10  A    between atoms: C_25  and  O_26
REMARK   11  A    between atoms: O_26  and  C_27
REMARK                            x       y       z     vdW  Elec       q    Type
REMARK                         _______ _______ _______ _____ _____    ______ ____
ROOT
ATOM      1  C   UNL     1       1.141   9.681  19.490  0.00  0.00    +0.000 A 
ATOM      2  S   UNL     1       1.320   8.141  20.233  0.00  0.00    +0.000 S 
ATOM      3  C   UNL     1       2.234   7.501  18.930  0.00  0.00    +0.000 A 
ATOM      4  C   UNL     1       2.555   8.517  18.043  0.00  0.00    +0.000 A 
ATOM      5  C   UNL     1       1.942   9.758  18.373  0.00  0.00    +0.000 A 
ENDROOT
BRANCH   3   6
ATOM      6  C   UNL     1       2.567   6.062  18.856  0.00  0.00    +0.000 A 
ATOM      7  C   UNL     1       2.231   5.209  19.919  0.00  0.00    +0.000 A 
ATOM      8  C   UNL     1       2.542   3.844  19.887  0.00  0.00    +0.000 A 
ATOM      9  C   UNL     1       3.206   3.294  18.789  0.00  0.00    +0.000 A 
ATOM     10  C   UNL     1       3.544   1.834  18.738  0.00  0.00    +0.000 C 
ATOM     11  C   UNL     1       3.550   4.132  17.724  0.00  0.00    +0.000 A 
ATOM     12  C   UNL     1       3.234   5.497  17.757  0.00  0.00    +0.000 A 
ENDBRANCH   3   6
BRANCH   5  13
ATOM     13  N   UNL     1       2.103  10.865  17.620  0.00  0.00    +0.000 N 
ATOM     14  H   UNL     1       1.348  11.235  17.058  0.00  0.00    +0.000 HD
ATOM     15  H   UNL     1       3.023  11.062  17.220  0.00  0.00    +0.000 HD
ENDBRANCH   5  13
BRANCH   1  16
ATOM     16  C   UNL     1       0.291  10.720  20.081  0.00  0.00    +0.000 C 
ATOM     17  O   UNL     1       0.605  11.353  21.089  0.00  0.00    +0.000 OA
BRANCH  16  20
ATOM     18  C   UNL     1      -2.714  10.560  17.770  0.00  0.00    +0.000 A 
ATOM     19  C   UNL     1      -1.406  10.431  18.252  0.00  0.00    +0.000 A 
ATOM     20  C   UNL     1      -1.013  11.062  19.431  0.00  0.00    +0.000 A 
ATOM     21  C   UNL     1      -1.870  11.987  20.019  0.00  0.00    +0.000 A 
ATOM     22  C   UNL     1      -3.154  12.218  19.489  0.00  0.00    +0.000 A 
ATOM     23  C   UNL     1      -3.603  11.483  18.365  0.00  0.00    +0.000 A 
BRANCH  18  25
ATOM     24  C   UNL     1      -2.855  10.374  15.409  0.00  0.00    +0.000 C 
ATOM     25  O   UNL     1      -3.113   9.806  16.696  0.00  0.00    +0.000 OA
ENDBRANCH  18  25
BRANCH  22  26
ATOM     26  O   UNL     1      -3.833  13.164  20.220  0.00  0.00    +0.000 OA
ATOM     27  C   UNL     1      -4.545  12.781  21.386  0.00  0.00    +0.000 C 
ENDBRANCH  22  26
BRANCH  23  28
ATOM     28  O   UNL     1      -4.874  11.751  17.931  0.00  0.00    +0.000 OA
ATOM     29  C   UNL     1      -5.969  10.964  18.371  0.00  0.00    +0.000 C 
ENDBRANCH  23  28
ENDBRANCH  16  20
ENDBRANCH   1  16
TORSDOF 7
ENDMDL
MODEL 6
REMARK VINA RESULT:      -7.3      5.467      8.655
REMARK  Name = 
REMARK  11 active torsions:
REMARK  status: ('A' for Active; 'I' for Inactive)
REMARK    1  A    between atoms: C_1  and  O_2
REMARK    2  A    between atoms: O_2  and  C_3
REMARK    3  A    between atoms: C_5  and  C_6
REMARK    4  A    between atoms: C_6  and  C_8
REMARK    5  A    between atoms: C_10  and  C_11
REMARK    6  A    between atoms: C_14  and  C_15
REMARK    7  A    between atoms: C_19  and  N_20
REMARK    8  A    between atoms: C_22  and  O_23
REMARK    9  A    between atoms: O_23  and  C_24
REMARK   10  A    between atoms: C_25  and  O_26
REMARK   11  A    between atoms: O_26  and  C_27
REMARK                            x       y       z     vdW  Elec       q    Type
REMARK                         _______ _______ _______ _____ _____    ______ ____
ROOT
ATOM      1  C   UNL     1       7.098   6.768  17.409  0.00  0.00    +0.000 A 
ATOM      2  S   UNL     1       7.560   8.381  17.033  0.00  0.00    +0.000 S 
ATOM      3  C   UNL     1       8.422   8.588  18.502  0.00  0.00    +0.000 A 
ATOM      4  C   UNL     1       8.513   7.373  19.163  0.00  0.00    +0.000 A 
ATOM      5  C   UNL     1       7.769   6.337  18.531  0.00  0.00    +0.000 A 
ENDROOT
BRANCH   3   6
ATOM      6  C   UNL     1       8.942   9.910  18.911  0.00  0.00    +0.000 A 
ATOM      7  C   UNL     1       9.153  10.909  17.946  0.00  0.00    +0.000 A 
ATOM      8  C   UNL     1       9.654  12.168  18.297  0.00  0.00    +0.000 A 
ATOM      9  C   UNL     1       9.967  12.462  19.625  0.00  0.00    +0.000 A 
ATOM     10  C   UNL     1      10.504  13.806  20.018  0.00  0.00    +0.000 C 
ATOM     11  C   UNL     1       9.767  11.476  20.596  0.00  0.00    +0.000 A 
ATOM     12  C   UNL     1       9.260  10.218  20.243  0.00  0.00    +0.000 A 
ENDBRANCH   3   6
BRANCH   5  13
ATOM     13  N   UNL     1       7.702   5.087  19.032  0.00  0.00    +0.000 N 
ATOM     14  H   UNL     1       8.537   4.556  19.239  0.00  0.00    +0.000 HD
ATOM     15  H   UNL     1       6.911   4.493  18.772  0.00  0.00    +0.000 HD
ENDBRANCH   5  13
BRANCH   1  16
ATOM     16  C   UNL     1       6.174   6.019  16.550  0.00  0.00    +0.000 C 
ATOM     17  O   UNL     1       6.449   5.684  15.397  0.00  0.00    +0.000 OA
BRANCH  16  20
ATOM     18  C   UNL     1       3.243   3.849  17.594  0.00  0.00    +0.000 A 
ATOM     19  C   UNL     1       4.364   4.312  16.897  0.00  0.00    +0.000 A 
ATOM     20  C   UNL     1       4.839   5.609  17.087  0.00  0.00    +0.000 A 
ATOM     21  C   UNL     1       4.071   6.508  17.823  0.00  0.00    +0.000 A 
ATOM     22  C   UNL     1       2.878   6.094  18.445  0.00  0.00    +0.000 A 
ATOM     23  C   UNL     1       2.460   4.743  18.358  0.00  0.00    +0.000 A 
BRANCH  18  25
ATOM     24  C   UNL     1       3.445   1.667  18.505  0.00  0.00    +0.000 C 
ATOM     25  O   UNL     1       2.893   2.526  17.503  0.00  0.00    +0.000 OA
ENDBRANCH  18  25
BRANCH  22  26
ATOM     26  O   UNL     1       2.279   7.133  19.117  0.00  0.00    +0.000 OA
ATOM     27  C   UNL     1       2.077   8.376  18.462  0.00  0.00    +0.000 C 
ENDBRANCH  22  26
BRANCH  23  28
ATOM     28  O   UNL     1       1.303   4.422  19.015  0.00  0.00    +0.000 OA
ATOM     29  C   UNL     1       1.316   4.130  20.403  0.00  0.00    +0.000 C 
ENDBRANCH  23  28
ENDBRANCH  16  20
ENDBRANCH   1  16
TORSDOF 7
ENDMDL
MODEL 7
REMARK VINA RESULT:      -7.3      5.120      9.695
REMARK  Name = 
REMARK  11 active torsions:
REMARK  status: ('A' for Active; 'I' for Inactive)
REMARK    1  A    between atoms: C_1  and  O_2
REMARK    2  A    between atoms: O_2  and  C_3
REMARK    3  A    between atoms: C_5  and  C_6
REMARK    4  A    between atoms: C_6  and  C_8
REMARK    5  A    between atoms: C_10  and  C_11
REMARK    6  A    between atoms: C_14  and  C_15
REMARK    7  A    between atoms: C_19  and  N_20
REMARK    8  A    between atoms: C_22  and  O_23
REMARK    9  A    between atoms: O_23  and  C_24
REMARK   10  A    between atoms: C_25  and  O_26
REMARK   11  A    between atoms: O_26  and  C_27
REMARK                            x       y       z     vdW  Elec       q    Type
REMARK                         _______ _______ _______ _____ _____    ______ ____
ROOT
ATOM      1  C   UNL     1       3.504   4.556  18.489  0.00  0.00    +0.000 A 
ATOM      2  S   UNL     1       3.441   6.227  18.087  0.00  0.00    +0.000 S 
ATOM      3  C   UNL     1       2.452   6.621  19.432  0.00  0.00    +0.000 A 
ATOM      4  C   UNL     1       2.347   5.521  20.271  0.00  0.00    +0.000 A 
ATOM      5  C   UNL     1       2.958   4.353  19.736  0.00  0.00    +0.000 A 
ENDROOT
BRANCH   3   6
ATOM      6  C   UNL     1       1.844   7.961  19.576  0.00  0.00    +0.000 A 
ATOM      7  C   UNL     1       1.322   8.364  20.815  0.00  0.00    +0.000 A 
ATOM      8  C   UNL     1       0.730   9.623  20.983  0.00  0.00    +0.000 A 
ATOM      9  C   UNL     1       0.638  10.512  19.912  0.00  0.00    +0.000 A 
ATOM     10  C   UNL     1       0.009  11.863  20.075  0.00  0.00    +0.000 C 
ATOM     11  C   UNL     1       1.151  10.123  18.671  0.00  0.00    +0.000 A 
ATOM     12  C   UNL     1       1.747   8.865  18.506  0.00  0.00    +0.000 A 
ENDBRANCH   3   6
BRANCH   5  13
ATOM     13  N   UNL     1       2.940   3.169  20.382  0.00  0.00    +0.000 N 
ATOM     14  H   UNL     1       3.638   2.936  21.075  0.00  0.00    +0.000 HD
ATOM     15  H   UNL     1       2.578   2.346  19.895  0.00  0.00    +0.000 HD
ENDBRANCH   5  13
BRANCH   1  16
ATOM     16  C   UNL     1       4.137   3.580  17.596  0.00  0.00    +0.000 C 
ATOM     17  O   UNL     1       3.796   2.398  17.540  0.00  0.00    +0.000 OA
BRANCH  16  20
ATOM     18  C   UNL     1       6.245   4.013  14.472  0.00  0.00    +0.000 A 
ATOM     19  C   UNL     1       5.388   3.446  15.422  0.00  0.00    +0.000 A 
ATOM     20  C   UNL     1       5.235   4.024  16.682  0.00  0.00    +0.000 A 
ATOM     21  C   UNL     1       6.095   5.050  17.062  0.00  0.00    +0.000 A 
ATOM     22  C   UNL     1       7.044   5.566  16.159  0.00  0.00    +0.000 A 
ATOM     23  C   UNL     1       7.114   5.066  14.836  0.00  0.00    +0.000 A 
BRANCH  18  25
ATOM     24  C   UNL     1       4.996   3.501  12.521  0.00  0.00    +0.000 C 
ATOM     25  O   UNL     1       6.258   3.514  13.194  0.00  0.00    +0.000 OA
ENDBRANCH  18  25
BRANCH  22  26
ATOM     26  O   UNL     1       7.786   6.570  16.735  0.00  0.00    +0.000 OA
ATOM     27  C   UNL     1       7.135   7.606  17.455  0.00  0.00    +0.000 C 
ENDBRANCH  22  26
BRANCH  23  28
ATOM     28  O   UNL     1       8.048   5.642  14.017  0.00  0.00    +0.000 OA
ATOM     29  C   UNL     1       8.020   5.415  12.617  0.00  0.00    +0.000 C 
ENDBRANCH  23  28
ENDBRANCH  16  20
ENDBRANCH   1  16
TORSDOF 7
ENDMDL
MODEL 8
REMARK VINA RESULT:      -7.3      3.610      9.002
REMARK  Name = 
REMARK  11 active torsions:
REMARK  status: ('A' for Active; 'I' for Inactive)
REMARK    1  A    between atoms: C_1  and  O_2
REMARK    2  A    between atoms: O_2  and  C_3
REMARK    3  A    between atoms: C_5  and  C_6
REMARK    4  A    between atoms: C_6  and  C_8
REMARK    5  A    between atoms: C_10  and  C_11
REMARK    6  A    between atoms: C_14  and  C_15
REMARK    7  A    between atoms: C_19  and  N_20
REMARK    8  A    between atoms: C_22  and  O_23
REMARK    9  A    between atoms: O_23  and  C_24
REMARK   10  A    between atoms: C_25  and  O_26
REMARK   11  A    between atoms: O_26  and  C_27
REMARK                            x       y       z     vdW  Elec       q    Type
REMARK                         _______ _______ _______ _____ _____    ______ ____
ROOT
ATOM      1  C   UNL     1       1.775   8.320  19.294  0.00  0.00    +0.000 A 
ATOM      2  S   UNL     1       1.106   9.904  19.281  0.00  0.00    +0.000 S 
ATOM      3  C   UNL     1       0.350   9.711  20.810  0.00  0.00    +0.000 A 
ATOM      4  C   UNL     1       0.776   8.527  21.393  0.00  0.00    +0.000 A 
ATOM      5  C   UNL     1       1.596   7.746  20.532  0.00  0.00    +0.000 A 
ENDROOT
BRANCH   3   6
ATOM      6  C   UNL     1      -0.603  10.714  21.330  0.00  0.00    +0.000 A 
ATOM      7  C   UNL     1      -1.215  11.621  20.450  0.00  0.00    +0.000 A 
ATOM      8  C   UNL     1      -2.115  12.590  20.911  0.00  0.00    +0.000 A 
ATOM      9  C   UNL     1      -2.421  12.685  22.270  0.00  0.00    +0.000 A 
ATOM     10  C   UNL     1      -3.383  13.716  22.779  0.00  0.00    +0.000 C 
ATOM     11  C   UNL     1      -1.816  11.791  23.158  0.00  0.00    +0.000 A 
ATOM     12  C   UNL     1      -0.921  10.818  22.694  0.00  0.00    +0.000 A 
ENDBRANCH   3   6
BRANCH   5  13
ATOM     13  N   UNL     1       2.088   6.545  20.899  0.00  0.00    +0.000 N 
ATOM     14  H   UNL     1       1.818   6.107  21.769  0.00  0.00    +0.000 HD
ATOM     15  H   UNL     1       3.034   6.288  20.606  0.00  0.00    +0.000 HD
ENDBRANCH   5  13
BRANCH   1  16
ATOM     16  C   UNL     1       2.480   7.780  18.126  0.00  0.00    +0.000 C 
ATOM     17  O   UNL     1       2.703   8.440  17.111  0.00  0.00    +0.000 OA
BRANCH  16  20
ATOM     18  C   UNL     1       4.738   4.795  18.746  0.00  0.00    +0.000 A 
ATOM     19  C   UNL     1       4.316   6.102  18.475  0.00  0.00    +0.000 A 
ATOM     20  C   UNL     1       2.986   6.372  18.159  0.00  0.00    +0.000 A 
ATOM     21  C   UNL     1       2.121   5.309  17.913  0.00  0.00    +0.000 A 
ATOM     22  C   UNL     1       2.553   3.978  18.071  0.00  0.00    +0.000 A 
ATOM     23  C   UNL     1       3.869   3.705  18.517  0.00  0.00    +0.000 A 
BRANCH  18  25
ATOM     24  C   UNL     1       6.928   5.666  19.022  0.00  0.00    +0.000 C 
ATOM     25  O   UNL     1       6.013   4.581  19.204  0.00  0.00    +0.000 OA
ENDBRANCH  18  25
BRANCH  22  26
ATOM     26  O   UNL     1       1.546   3.089  17.779  0.00  0.00    +0.000 OA
ATOM     27  C   UNL     1       0.775   2.524  18.829  0.00  0.00    +0.000 C 
ENDBRANCH  22  26
BRANCH  23  28
ATOM     28  O   UNL     1       4.198   2.385  18.669  0.00  0.00    +0.000 OA
ATOM     29  C   UNL     1       4.351   1.822  19.962  0.00  0.00    +0.000 C 
ENDBRANCH  23  28
ENDBRANCH  16  20
ENDBRANCH   1  16
TORSDOF 7
ENDMDL
MODEL 9
REMARK VINA RESULT:      -7.2      5.467      8.326
REMARK  Name = 
REMARK  11 active torsions:
REMARK  status: ('A' for Active; 'I' for Inactive)
REMARK    1  A    between atoms: C_1  and  O_2
REMARK    2  A    between atoms: O_2  and  C_3
REMARK    3  A    between atoms: C_5  and  C_6
REMARK    4  A    between atoms: C_6  and  C_8
REMARK    5  A    between atoms: C_10  and  C_11
REMARK    6  A    between atoms: C_14  and  C_15
REMARK    7  A    between atoms: C_19  and  N_20
REMARK    8  A    between atoms: C_22  and  O_23
REMARK    9  A    between atoms: O_23  and  C_24
REMARK   10  A    between atoms: C_25  and  O_26
REMARK   11  A    between atoms: O_26  and  C_27
REMARK                            x       y       z     vdW  Elec       q    Type
REMARK                         _______ _______ _______ _____ _____    ______ ____
ROOT
ATOM      1  C   UNL     1       6.746   7.032  17.543  0.00  0.00    +0.000 A 
ATOM      2  S   UNL     1       7.197   8.662  17.235  0.00  0.00    +0.000 S 
ATOM      3  C   UNL     1       8.376   8.682  18.481  0.00  0.00    +0.000 A 
ATOM      4  C   UNL     1       8.548   7.400  18.979  0.00  0.00    +0.000 A 
ATOM      5  C   UNL     1       7.628   6.462  18.433  0.00  0.00    +0.000 A 
ENDROOT
BRANCH   3   6
ATOM      6  C   UNL     1       9.044   9.936  18.890  0.00  0.00    +0.000 A 
ATOM      7  C   UNL     1       9.514  10.830  17.914  0.00  0.00    +0.000 A 
ATOM      8  C   UNL     1      10.160  12.021  18.267  0.00  0.00    +0.000 A 
ATOM      9  C   UNL     1      10.362  12.348  19.608  0.00  0.00    +0.000 A 
ATOM     10  C   UNL     1      11.051  13.621  20.002  0.00  0.00    +0.000 C 
ATOM     11  C   UNL     1       9.904  11.466  20.590  0.00  0.00    +0.000 A 
ATOM     12  C   UNL     1       9.252  10.277  20.236  0.00  0.00    +0.000 A 
ENDBRANCH   3   6
BRANCH   5  13
ATOM     13  N   UNL     1       7.609   5.167  18.810  0.00  0.00    +0.000 N 
ATOM     14  H   UNL     1       8.397   4.557  18.642  0.00  0.00    +0.000 HD
ATOM     15  H   UNL     1       6.717   4.666  18.810  0.00  0.00    +0.000 HD
ENDBRANCH   5  13
BRANCH   1  16
ATOM     16  C   UNL     1       5.615   6.408  16.848  0.00  0.00    +0.000 C 
ATOM     17  O   UNL     1       5.533   6.343  15.621  0.00  0.00    +0.000 OA
BRANCH  16  20
ATOM     18  C   UNL     1       2.693   6.045  19.241  0.00  0.00    +0.000 A 
ATOM     19  C   UNL     1       3.876   6.514  18.657  0.00  0.00    +0.000 A 
ATOM     20  C   UNL     1       4.510   5.793  17.646  0.00  0.00    +0.000 A 
ATOM     21  C   UNL     1       4.071   4.502  17.362  0.00  0.00    +0.000 A 
ATOM     22  C   UNL     1       2.947   3.964  18.016  0.00  0.00    +0.000 A 
ATOM     23  C   UNL     1       2.225   4.744  18.952  0.00  0.00    +0.000 A 
BRANCH  18  25
ATOM     24  C   UNL     1       1.789   8.192  19.687  0.00  0.00    +0.000 C 
ATOM     25  O   UNL     1       2.013   6.848  20.120  0.00  0.00    +0.000 OA
ENDBRANCH  18  25
BRANCH  22  26
ATOM     26  O   UNL     1       2.686   2.683  17.587  0.00  0.00    +0.000 OA
ATOM     27  C   UNL     1       3.427   1.595  18.118  0.00  0.00    +0.000 C 
ENDBRANCH  22  26
BRANCH  23  28
ATOM     28  O   UNL     1       1.130   4.151  19.521  0.00  0.00    +0.000 OA
ATOM     29  C   UNL     1       1.246   3.437  20.740  0.00  0.00    +0.000 C 
ENDBRANCH  23  28
ENDBRANCH  16  20
ENDBRANCH   1  16
TORSDOF 7
ENDMDL
