MODEL 1
REMARK VINA RESULT:      -8.3      0.000      0.000
REMARK  Name = 
REMARK  10 active torsions:
REMARK  status: ('A' for Active; 'I' for Inactive)
REMARK    1  A    between atoms: C_2  and  C_3
REMARK    2  A    between atoms: C_3  and  C_4
REMARK    3  A    between atoms: C_4  and  C_5
REMARK    4  A    between atoms: N_7  and  C_8
REMARK    5  A    between atoms: N_14  and  C_15
REMARK    6  A    between atoms: C_15  and  C_16
REMARK    7  A    between atoms: C_19  and  C_20
REMARK    8  A    between atoms: C_20  and  O_22
REMARK    9  A    between atoms: C_24  and  O_25
REMARK   10  A    between atoms: O_25  and  C_26
REMARK                            x       y       z     vdW  Elec       q    Type
REMARK                         _______ _______ _______ _____ _____    ______ ____
ROOT
ATOM      1  C   UNL     1       5.710   4.244  14.587  0.00  0.00    +0.000 A 
ATOM      2  C   UNL     1       7.018   4.721  14.558  0.00  0.00    +0.000 A 
ATOM      3  C   UNL     1       7.641   5.220  15.707  0.00  0.00    +0.000 A 
ATOM      4  C   UNL     1       6.951   5.207  16.926  0.00  0.00    +0.000 A 
ATOM      5  C   UNL     1       7.310   5.619  18.233  0.00  0.00    +0.000 A 
ATOM      6  C   UNL     1       6.248   5.343  19.058  0.00  0.00    +0.000 A 
ATOM      7  N   UNL     1       5.252   4.775  18.295  0.00  0.00    +0.000 N 
ATOM      8  C   UNL     1       5.636   4.732  16.960  0.00  0.00    +0.000 A 
ATOM      9  C   UNL     1       4.965   4.317  15.783  0.00  0.00    +0.000 A 
ENDROOT
BRANCH   1  12
ATOM     10  C   UNL     1       5.798   3.342  12.265  0.00  0.00    +0.000 C 
ATOM     11  O   UNL     1       7.000   3.478  12.071  0.00  0.00    +0.000 OA
ATOM     12  N   UNL     1       5.114   3.655  13.431  0.00  0.00    +0.000 N 
ATOM     13  H   UNL     1       4.164   3.313  13.535  0.00  0.00    +0.000 HD
BRANCH  10  14
ATOM     14  C   UNL     1       4.965   2.685  11.182  0.00  0.00    +0.000 C 
BRANCH  14  15
ATOM     15  C   UNL     1       3.532   3.189  11.251  0.00  0.00    +0.000 C 
BRANCH  15  17
ATOM     16  C   UNL     1       2.827   4.626   8.925  0.00  0.00    +0.000 C 
ATOM     17  C   UNL     1       3.153   3.963   9.999  0.00  0.00    +0.000 C 
ENDBRANCH  15  17
ENDBRANCH  14  15
ENDBRANCH  10  14
ENDBRANCH   1  12
BRANCH   7  18
ATOM     18  C   UNL     1       3.983   4.305  18.871  0.00  0.00    +0.000 C 
BRANCH  18  19
ATOM     19  C   UNL     1       3.014   5.416  19.226  0.00  0.00    +0.000 A 
ATOM     20  C   UNL     1       2.922   6.531  18.366  0.00  0.00    +0.000 A 
ATOM     21  C   UNL     1       2.254   7.694  18.723  0.00  0.00    +0.000 A 
ATOM     22  C   UNL     1       1.589   7.763  19.940  0.00  0.00    +0.000 A 
ATOM     23  C   UNL     1       1.546   6.624  20.753  0.00  0.00    +0.000 A 
ATOM     24  C   UNL     1       2.269   5.457  20.424  0.00  0.00    +0.000 A 
BRANCH  22  25
ATOM     25  C   UNL     1       0.979   9.065  20.301  0.00  0.00    +0.000 C 
ATOM     26  O   UNL     1       1.389  10.131  19.867  0.00  0.00    +0.000 OA
BRANCH  25  27
ATOM     27  O   UNL     1       0.002   8.981  21.227  0.00  0.00    +0.000 OA
ATOM     28  H   UNL     1      -0.193   8.080  21.551  0.00  0.00    +0.000 HD
ENDBRANCH  25  27
ENDBRANCH  22  25
BRANCH  24  29
ATOM     29  O   UNL     1       2.238   4.546  21.441  0.00  0.00    +0.000 OA
ATOM     30  C   UNL     1       1.589   3.296  21.274  0.00  0.00    +0.000 C 
ENDBRANCH  24  29
ENDBRANCH  18  19
ENDBRANCH   7  18
TORSDOF 9
ENDMDL
MODEL 2
REMARK VINA RESULT:      -7.9      2.453      7.939
REMARK  Name = 
REMARK  10 active torsions:
REMARK  status: ('A' for Active; 'I' for Inactive)
REMARK    1  A    between atoms: C_2  and  C_3
REMARK    2  A    between atoms: C_3  and  C_4
REMARK    3  A    between atoms: C_4  and  C_5
REMARK    4  A    between atoms: N_7  and  C_8
REMARK    5  A    between atoms: N_14  and  C_15
REMARK    6  A    between atoms: C_15  and  C_16
REMARK    7  A    between atoms: C_19  and  C_20
REMARK    8  A    between atoms: C_20  and  O_22
REMARK    9  A    between atoms: C_24  and  O_25
REMARK   10  A    between atoms: O_25  and  C_26
REMARK                            x       y       z     vdW  Elec       q    Type
REMARK                         _______ _______ _______ _____ _____    ______ ____
ROOT
ATOM      1  C   UNL     1       2.092   6.776  19.884  0.00  0.00    +0.000 A 
ATOM      2  C   UNL     1       1.266   5.919  20.608  0.00  0.00    +0.000 A 
ATOM      3  C   UNL     1       1.595   4.573  20.798  0.00  0.00    +0.000 A 
ATOM      4  C   UNL     1       2.800   4.078  20.281  0.00  0.00    +0.000 A 
ATOM      5  C   UNL     1       3.404   2.797  20.320  0.00  0.00    +0.000 A 
ATOM      6  C   UNL     1       4.610   2.890  19.672  0.00  0.00    +0.000 A 
ATOM      7  N   UNL     1       4.762   4.190  19.239  0.00  0.00    +0.000 N 
ATOM      8  C   UNL     1       3.631   4.934  19.549  0.00  0.00    +0.000 A 
ATOM      9  C   UNL     1       3.258   6.272  19.270  0.00  0.00    +0.000 A 
ENDROOT
BRANCH   1  12
ATOM     10  C   UNL     1       1.732   8.867  18.576  0.00  0.00    +0.000 C 
ATOM     11  O   UNL     1       1.876   8.397  17.454  0.00  0.00    +0.000 OA
ATOM     12  N   UNL     1       1.793   8.168  19.772  0.00  0.00    +0.000 N 
ATOM     13  H   UNL     1       1.461   8.629  20.614  0.00  0.00    +0.000 HD
BRANCH  10  14
ATOM     14  C   UNL     1       1.356  10.331  18.699  0.00  0.00    +0.000 C 
BRANCH  14  15
ATOM     15  C   UNL     1      -0.073  10.460  19.200  0.00  0.00    +0.000 C 
BRANCH  15  17
ATOM     16  C   UNL     1      -1.940  10.007  17.130  0.00  0.00    +0.000 C 
ATOM     17  C   UNL     1      -1.078  10.215  18.086  0.00  0.00    +0.000 C 
ENDBRANCH  15  17
ENDBRANCH  14  15
ENDBRANCH  10  14
ENDBRANCH   1  12
BRANCH   7  18
ATOM     18  C   UNL     1       5.973   4.658  18.547  0.00  0.00    +0.000 C 
BRANCH  18  19
ATOM     19  C   UNL     1       5.881   4.609  17.034  0.00  0.00    +0.000 A 
ATOM     20  C   UNL     1       4.998   3.681  16.442  0.00  0.00    +0.000 A 
ATOM     21  C   UNL     1       5.019   3.395  15.084  0.00  0.00    +0.000 A 
ATOM     22  C   UNL     1       5.889   4.082  14.247  0.00  0.00    +0.000 A 
ATOM     23  C   UNL     1       6.678   5.105  14.784  0.00  0.00    +0.000 A 
ATOM     24  C   UNL     1       6.704   5.364  16.172  0.00  0.00    +0.000 A 
BRANCH  22  25
ATOM     25  C   UNL     1       5.929   3.660  12.827  0.00  0.00    +0.000 C 
ATOM     26  O   UNL     1       4.931   3.606  12.123  0.00  0.00    +0.000 OA
BRANCH  25  27
ATOM     27  O   UNL     1       7.141   3.243  12.407  0.00  0.00    +0.000 OA
ATOM     28  H   UNL     1       7.413   3.562  11.525  0.00  0.00    +0.000 HD
ENDBRANCH  25  27
ENDBRANCH  22  25
BRANCH  24  29
ATOM     29  O   UNL     1       7.676   6.268  16.494  0.00  0.00    +0.000 OA
ATOM     30  C   UNL     1       7.373   7.408  17.282  0.00  0.00    +0.000 C 
ENDBRANCH  24  29
ENDBRANCH  18  19
ENDBRANCH   7  18
TORSDOF 9
ENDMDL
MODEL 3
REMARK VINA RESULT:      -7.8      2.644      8.687
REMARK  Name = 
REMARK  10 active torsions:
REMARK  status: ('A' for Active; 'I' for Inactive)
REMARK    1  A    between atoms: C_2  and  C_3
REMARK    2  A    between atoms: C_3  and  C_4
REMARK    3  A    between atoms: C_4  and  C_5
REMARK    4  A    between atoms: N_7  and  C_8
REMARK    5  A    between atoms: N_14  and  C_15
REMARK    6  A    between atoms: C_15  and  C_16
REMARK    7  A    between atoms: C_19  and  C_20
REMARK    8  A    between atoms: C_20  and  O_22
REMARK    9  A    between atoms: C_24  and  O_25
REMARK   10  A    between atoms: O_25  and  C_26
REMARK                            x       y       z     vdW  Elec       q    Type
REMARK                         _______ _______ _______ _____ _____    ______ ____
ROOT
ATOM      1  C   UNL     1       1.732   5.700  20.509  0.00  0.00    +0.000 A 
ATOM      2  C   UNL     1       0.728   4.736  20.527  0.00  0.00    +0.000 A 
ATOM      3  C   UNL     1       0.926   3.462  19.984  0.00  0.00    +0.000 A 
ATOM      4  C   UNL     1       2.175   3.131  19.441  0.00  0.00    +0.000 A 
ATOM      5  C   UNL     1       2.676   1.947  18.845  0.00  0.00    +0.000 A 
ATOM      6  C   UNL     1       3.990   2.174  18.519  0.00  0.00    +0.000 A 
ATOM      7  N   UNL     1       4.307   3.461  18.897  0.00  0.00    +0.000 N 
ATOM      8  C   UNL     1       3.186   4.097  19.417  0.00  0.00    +0.000 A 
ATOM      9  C   UNL     1       2.961   5.419  19.876  0.00  0.00    +0.000 A 
ENDROOT
BRANCH   1  12
ATOM     10  C   UNL     1       1.515   8.183  20.482  0.00  0.00    +0.000 C 
ATOM     11  O   UNL     1       1.586   8.350  19.270  0.00  0.00    +0.000 OA
ATOM     12  N   UNL     1       1.551   6.965  21.145  0.00  0.00    +0.000 N 
ATOM     13  H   UNL     1       1.284   6.946  22.125  0.00  0.00    +0.000 HD
BRANCH  10  14
ATOM     14  C   UNL     1       1.270   9.394  21.362  0.00  0.00    +0.000 C 
BRANCH  14  15
ATOM     15  C   UNL     1       0.056  10.161  20.863  0.00  0.00    +0.000 C 
BRANCH  15  17
ATOM     16  C   UNL     1      -1.338  11.388  22.990  0.00  0.00    +0.000 C 
ATOM     17  C   UNL     1      -0.694  10.821  22.008  0.00  0.00    +0.000 C 
ENDBRANCH  15  17
ENDBRANCH  14  15
ENDBRANCH  10  14
ENDBRANCH   1  12
BRANCH   7  18
ATOM     18  C   UNL     1       5.657   4.023  18.742  0.00  0.00    +0.000 C 
BRANCH  18  19
ATOM     19  C   UNL     1       5.988   4.459  17.328  0.00  0.00    +0.000 A 
ATOM     20  C   UNL     1       5.550   3.655  16.254  0.00  0.00    +0.000 A 
ATOM     21  C   UNL     1       6.003   3.837  14.954  0.00  0.00    +0.000 A 
ATOM     22  C   UNL     1       6.870   4.882  14.665  0.00  0.00    +0.000 A 
ATOM     23  C   UNL     1       7.213   5.779  15.684  0.00  0.00    +0.000 A 
ATOM     24  C   UNL     1       6.802   5.570  17.018  0.00  0.00    +0.000 A 
BRANCH  22  25
ATOM     25  C   UNL     1       7.391   4.960  13.280  0.00  0.00    +0.000 C 
ATOM     26  O   UNL     1       8.200   5.803  12.923  0.00  0.00    +0.000 OA
BRANCH  25  27
ATOM     27  O   UNL     1       6.821   4.088  12.424  0.00  0.00    +0.000 OA
ATOM     28  H   UNL     1       6.336   4.488  11.676  0.00  0.00    +0.000 HD
ENDBRANCH  25  27
ENDBRANCH  22  25
BRANCH  24  29
ATOM     29  O   UNL     1       7.402   6.453  17.870  0.00  0.00    +0.000 OA
ATOM     30  C   UNL     1       7.656   7.789  17.466  0.00  0.00    +0.000 C 
ENDBRANCH  24  29
ENDBRANCH  18  19
ENDBRANCH   7  18
TORSDOF 9
ENDMDL
MODEL 4
REMARK VINA RESULT:      -7.7      2.310      4.431
REMARK  Name = 
REMARK  10 active torsions:
REMARK  status: ('A' for Active; 'I' for Inactive)
REMARK    1  A    between atoms: C_2  and  C_3
REMARK    2  A    between atoms: C_3  and  C_4
REMARK    3  A    between atoms: C_4  and  C_5
REMARK    4  A    between atoms: N_7  and  C_8
REMARK    5  A    between atoms: N_14  and  C_15
REMARK    6  A    between atoms: C_15  and  C_16
REMARK    7  A    between atoms: C_19  and  C_20
REMARK    8  A    between atoms: C_20  and  O_22
REMARK    9  A    between atoms: C_24  and  O_25
REMARK   10  A    between atoms: O_25  and  C_26
REMARK                            x       y       z     vdW  Elec       q    Type
REMARK                         _______ _______ _______ _____ _____    ______ ____
ROOT
ATOM      1  C   UNL     1       3.827   4.036  17.176  0.00  0.00    +0.000 A 
ATOM      2  C   UNL     1       3.057   2.883  17.300  0.00  0.00    +0.000 A 
ATOM      3  C   UNL     1       2.082   2.758  18.297  0.00  0.00    +0.000 A 
ATOM      4  C   UNL     1       1.846   3.829  19.168  0.00  0.00    +0.000 A 
ATOM      5  C   UNL     1       0.939   4.007  20.242  0.00  0.00    +0.000 A 
ATOM      6  C   UNL     1       1.121   5.278  20.729  0.00  0.00    +0.000 A 
ATOM      7  N   UNL     1       2.112   5.881  19.985  0.00  0.00    +0.000 N 
ATOM      8  C   UNL     1       2.621   4.988  19.050  0.00  0.00    +0.000 A 
ATOM      9  C   UNL     1       3.675   5.084  18.107  0.00  0.00    +0.000 A 
ENDROOT
BRANCH   1  12
ATOM     10  C   UNL     1       6.129   4.308  16.258  0.00  0.00    +0.000 C 
ATOM     11  O   UNL     1       6.745   4.254  17.316  0.00  0.00    +0.000 OA
ATOM     12  N   UNL     1       4.756   4.189  16.102  0.00  0.00    +0.000 N 
ATOM     13  H   UNL     1       4.391   4.052  15.164  0.00  0.00    +0.000 HD
BRANCH  10  14
ATOM     14  C   UNL     1       6.921   4.420  14.970  0.00  0.00    +0.000 C 
BRANCH  14  15
ATOM     15  C   UNL     1       5.986   4.723  13.811  0.00  0.00    +0.000 C 
BRANCH  15  17
ATOM     16  C   UNL     1       6.033   2.665  11.878  0.00  0.00    +0.000 C 
ATOM     17  C   UNL     1       6.011   3.615  12.771  0.00  0.00    +0.000 C 
ENDBRANCH  15  17
ENDBRANCH  14  15
ENDBRANCH  10  14
ENDBRANCH   1  12
BRANCH   7  18
ATOM     18  C   UNL     1       2.528   7.275  20.202  0.00  0.00    +0.000 C 
BRANCH  18  19
ATOM     19  C   UNL     1       1.495   8.303  19.783  0.00  0.00    +0.000 A 
ATOM     20  C   UNL     1       1.567   8.838  18.479  0.00  0.00    +0.000 A 
ATOM     21  C   UNL     1       0.828   9.946  18.087  0.00  0.00    +0.000 A 
ATOM     22  C   UNL     1      -0.070  10.526  18.974  0.00  0.00    +0.000 A 
ATOM     23  C   UNL     1      -0.264   9.932  20.226  0.00  0.00    +0.000 A 
ATOM     24  C   UNL     1       0.524   8.841  20.654  0.00  0.00    +0.000 A 
BRANCH  22  25
ATOM     25  C   UNL     1      -0.754  11.762  18.525  0.00  0.00    +0.000 C 
ATOM     26  O   UNL     1      -1.956  11.939  18.659  0.00  0.00    +0.000 OA
BRANCH  25  27
ATOM     27  O   UNL     1       0.042  12.627  17.866  0.00  0.00    +0.000 OA
ATOM     28  H   UNL     1       0.942  12.733  18.231  0.00  0.00    +0.000 HD
ENDBRANCH  25  27
ENDBRANCH  22  25
BRANCH  24  29
ATOM     29  O   UNL     1       0.297   8.546  21.968  0.00  0.00    +0.000 OA
ATOM     30  C   UNL     1       0.130   9.581  22.924  0.00  0.00    +0.000 C 
ENDBRANCH  24  29
ENDBRANCH  18  19
ENDBRANCH   7  18
TORSDOF 9
ENDMDL
MODEL 5
REMARK VINA RESULT:      -7.7      2.221      4.210
REMARK  Name = 
REMARK  10 active torsions:
REMARK  status: ('A' for Active; 'I' for Inactive)
REMARK    1  A    between atoms: C_2  and  C_3
REMARK    2  A    between atoms: C_3  and  C_4
REMARK    3  A    between atoms: C_4  and  C_5
REMARK    4  A    between atoms: N_7  and  C_8
REMARK    5  A    between atoms: N_14  and  C_15
REMARK    6  A    between atoms: C_15  and  C_16
REMARK    7  A    between atoms: C_19  and  C_20
REMARK    8  A    between atoms: C_20  and  O_22
REMARK    9  A    between atoms: C_24  and  O_25
REMARK   10  A    between atoms: O_25  and  C_26
REMARK                            x       y       z     vdW  Elec       q    Type
REMARK                         _______ _______ _______ _____ _____    ______ ____
ROOT
ATOM      1  C   UNL     1       4.414   3.347  17.536  0.00  0.00    +0.000 A 
ATOM      2  C   UNL     1       3.538   2.304  17.247  0.00  0.00    +0.000 A 
ATOM      3  C   UNL     1       2.322   2.160  17.924  0.00  0.00    +0.000 A 
ATOM      4  C   UNL     1       1.955   3.106  18.891  0.00  0.00    +0.000 A 
ATOM      5  C   UNL     1       0.811   3.238  19.715  0.00  0.00    +0.000 A 
ATOM      6  C   UNL     1       0.967   4.382  20.457  0.00  0.00    +0.000 A 
ATOM      7  N   UNL     1       2.173   4.953  20.112  0.00  0.00    +0.000 N 
ATOM      8  C   UNL     1       2.834   4.154  19.187  0.00  0.00    +0.000 A 
ATOM      9  C   UNL     1       4.109   4.250  18.576  0.00  0.00    +0.000 A 
ENDROOT
BRANCH   1  12
ATOM     10  C   UNL     1       5.803   4.550  15.852  0.00  0.00    +0.000 C 
ATOM     11  O   UNL     1       5.012   5.447  15.582  0.00  0.00    +0.000 OA
ATOM     12  N   UNL     1       5.609   3.536  16.778  0.00  0.00    +0.000 N 
ATOM     13  H   UNL     1       6.413   2.978  17.051  0.00  0.00    +0.000 HD
BRANCH  10  14
ATOM     14  C   UNL     1       7.170   4.578  15.196  0.00  0.00    +0.000 C 
BRANCH  14  15
ATOM     15  C   UNL     1       7.042   5.011  13.745  0.00  0.00    +0.000 C 
BRANCH  15  17
ATOM     16  C   UNL     1       5.957   2.953  12.144  0.00  0.00    +0.000 C 
ATOM     17  C   UNL     1       6.458   3.903  12.884  0.00  0.00    +0.000 C 
ENDBRANCH  15  17
ENDBRANCH  14  15
ENDBRANCH  10  14
ENDBRANCH   1  12
BRANCH   7  18
ATOM     18  C   UNL     1       2.638   6.227  20.681  0.00  0.00    +0.000 C 
BRANCH  18  19
ATOM     19  C   UNL     1       1.989   7.453  20.069  0.00  0.00    +0.000 A 
ATOM     20  C   UNL     1       2.324   7.803  18.743  0.00  0.00    +0.000 A 
ATOM     21  C   UNL     1       1.975   9.025  18.185  0.00  0.00    +0.000 A 
ATOM     22  C   UNL     1       1.213   9.926  18.916  0.00  0.00    +0.000 A 
ATOM     23  C   UNL     1       0.750   9.549  20.182  0.00  0.00    +0.000 A 
ATOM     24  C   UNL     1       1.146   8.333  20.780  0.00  0.00    +0.000 A 
BRANCH  22  25
ATOM     25  C   UNL     1       0.959  11.249  18.298  0.00  0.00    +0.000 C 
ATOM     26  O   UNL     1       1.845  12.064  18.091  0.00  0.00    +0.000 OA
BRANCH  25  27
ATOM     27  O   UNL     1      -0.345  11.517  18.080  0.00  0.00    +0.000 OA
ATOM     28  H   UNL     1      -0.895  10.749  17.829  0.00  0.00    +0.000 HD
ENDBRANCH  25  27
ENDBRANCH  22  25
BRANCH  24  29
ATOM     29  O   UNL     1       0.733   8.257  22.080  0.00  0.00    +0.000 OA
ATOM     30  C   UNL     1       0.387   9.430  22.799  0.00  0.00    +0.000 C 
ENDBRANCH  24  29
ENDBRANCH  18  19
ENDBRANCH   7  18
TORSDOF 9
ENDMDL
MODEL 6
REMARK VINA RESULT:      -7.6      3.349      6.051
REMARK  Name = 
REMARK  10 active torsions:
REMARK  status: ('A' for Active; 'I' for Inactive)
REMARK    1  A    between atoms: C_2  and  C_3
REMARK    2  A    between atoms: C_3  and  C_4
REMARK    3  A    between atoms: C_4  and  C_5
REMARK    4  A    between atoms: N_7  and  C_8
REMARK    5  A    between atoms: N_14  and  C_15
REMARK    6  A    between atoms: C_15  and  C_16
REMARK    7  A    between atoms: C_19  and  C_20
REMARK    8  A    between atoms: C_20  and  O_22
REMARK    9  A    between atoms: C_24  and  O_25
REMARK   10  A    between atoms: O_25  and  C_26
REMARK                            x       y       z     vdW  Elec       q    Type
REMARK                         _______ _______ _______ _____ _____    ______ ____
ROOT
ATOM      1  C   UNL     1       3.661   5.670  18.305  0.00  0.00    +0.000 A 
ATOM      2  C   UNL     1       3.326   4.834  19.368  0.00  0.00    +0.000 A 
ATOM      3  C   UNL     1       2.503   5.271  20.412  0.00  0.00    +0.000 A 
ATOM      4  C   UNL     1       1.970   6.566  20.374  0.00  0.00    +0.000 A 
ATOM      5  C   UNL     1       1.113   7.274  21.252  0.00  0.00    +0.000 A 
ATOM      6  C   UNL     1       0.887   8.510  20.699  0.00  0.00    +0.000 A 
ATOM      7  N   UNL     1       1.579   8.578  19.509  0.00  0.00    +0.000 N 
ATOM      8  C   UNL     1       2.306   7.411  19.311  0.00  0.00    +0.000 A 
ATOM      9  C   UNL     1       3.217   7.009  18.302  0.00  0.00    +0.000 A 
ENDROOT
BRANCH   1  12
ATOM     10  C   UNL     1       5.670   4.583  17.310  0.00  0.00    +0.000 C 
ATOM     11  O   UNL     1       6.266   4.333  18.351  0.00  0.00    +0.000 OA
ATOM     12  N   UNL     1       4.427   5.188  17.202  0.00  0.00    +0.000 N 
ATOM     13  H   UNL     1       3.957   5.158  16.302  0.00  0.00    +0.000 HD
BRANCH  10  14
ATOM     14  C   UNL     1       6.279   4.113  16.003  0.00  0.00    +0.000 C 
BRANCH  14  15
ATOM     15  C   UNL     1       5.393   4.528  14.839  0.00  0.00    +0.000 C 
BRANCH  15  17
ATOM     16  C   UNL     1       6.271   3.385  12.411  0.00  0.00    +0.000 C 
ATOM     17  C   UNL     1       5.866   3.913  13.533  0.00  0.00    +0.000 C 
ENDBRANCH  15  17
ENDBRANCH  14  15
ENDBRANCH  10  14
ENDBRANCH   1  12
BRANCH   7  18
ATOM     18  C   UNL     1       1.518   9.750  18.623  0.00  0.00    +0.000 C 
BRANCH  18  19
ATOM     19  C   UNL     1       0.110  10.225  18.319  0.00  0.00    +0.000 A 
ATOM     20  C   UNL     1      -0.742   9.378  17.579  0.00  0.00    +0.000 A 
ATOM     21  C   UNL     1      -1.949   9.815  17.049  0.00  0.00    +0.000 A 
ATOM     22  C   UNL     1      -2.384  11.109  17.298  0.00  0.00    +0.000 A 
ATOM     23  C   UNL     1      -1.626  11.928  18.144  0.00  0.00    +0.000 A 
ATOM     24  C   UNL     1      -0.372  11.512  18.641  0.00  0.00    +0.000 A 
BRANCH  22  25
ATOM     25  C   UNL     1      -3.631  11.541  16.623  0.00  0.00    +0.000 C 
ATOM     26  O   UNL     1      -4.691  11.682  17.216  0.00  0.00    +0.000 OA
BRANCH  25  27
ATOM     27  O   UNL     1      -3.522  11.665  15.285  0.00  0.00    +0.000 OA
ATOM     28  H   UNL     1      -2.632  11.894  14.955  0.00  0.00    +0.000 HD
ENDBRANCH  25  27
ENDBRANCH  22  25
BRANCH  24  29
ATOM     29  O   UNL     1       0.274  12.530  19.283  0.00  0.00    +0.000 OA
ATOM     30  C   UNL     1       0.266  12.613  20.699  0.00  0.00    +0.000 C 
ENDBRANCH  24  29
ENDBRANCH  18  19
ENDBRANCH   7  18
TORSDOF 9
ENDMDL
MODEL 7
REMARK VINA RESULT:      -7.6      3.612      6.167
REMARK  Name = 
REMARK  10 active torsions:
REMARK  status: ('A' for Active; 'I' for Inactive)
REMARK    1  A    between atoms: C_2  and  C_3
REMARK    2  A    between atoms: C_3  and  C_4
REMARK    3  A    between atoms: C_4  and  C_5
REMARK    4  A    between atoms: N_7  and  C_8
REMARK    5  A    between atoms: N_14  and  C_15
REMARK    6  A    between atoms: C_15  and  C_16
REMARK    7  A    between atoms: C_19  and  C_20
REMARK    8  A    between atoms: C_20  and  O_22
REMARK    9  A    between atoms: C_24  and  O_25
REMARK   10  A    between atoms: O_25  and  C_26
REMARK                            x       y       z     vdW  Elec       q    Type
REMARK                         _______ _______ _______ _____ _____    ______ ____
ROOT
ATOM      1  C   UNL     1       3.653   6.392  17.845  0.00  0.00    +0.000 A 
ATOM      2  C   UNL     1       3.526   5.467  18.879  0.00  0.00    +0.000 A 
ATOM      3  C   UNL     1       2.776   5.750  20.026  0.00  0.00    +0.000 A 
ATOM      4  C   UNL     1       2.104   6.976  20.126  0.00  0.00    +0.000 A 
ATOM      5  C   UNL     1       1.274   7.533  21.129  0.00  0.00    +0.000 A 
ATOM      6  C   UNL     1       0.858   8.763  20.683  0.00  0.00    +0.000 A 
ATOM      7  N   UNL     1       1.408   8.973  19.437  0.00  0.00    +0.000 N 
ATOM      8  C   UNL     1       2.232   7.909  19.091  0.00  0.00    +0.000 A 
ATOM      9  C   UNL     1       3.068   7.669  17.973  0.00  0.00    +0.000 A 
ENDROOT
BRANCH   1  12
ATOM     10  C   UNL     1       5.715   5.868  16.548  0.00  0.00    +0.000 C 
ATOM     11  O   UNL     1       6.517   5.905  17.474  0.00  0.00    +0.000 OA
ATOM     12  N   UNL     1       4.345   6.061  16.641  0.00  0.00    +0.000 N 
ATOM     13  H   UNL     1       3.771   5.808  15.843  0.00  0.00    +0.000 HD
BRANCH  10  14
ATOM     14  C   UNL     1       6.224   5.483  15.172  0.00  0.00    +0.000 C 
BRANCH  14  15
ATOM     15  C   UNL     1       6.052   3.988  14.954  0.00  0.00    +0.000 C 
BRANCH  15  17
ATOM     16  C   UNL     1       5.942   3.350  12.206  0.00  0.00    +0.000 C 
ATOM     17  C   UNL     1       5.993   3.644  13.475  0.00  0.00    +0.000 C 
ENDBRANCH  15  17
ENDBRANCH  14  15
ENDBRANCH  10  14
ENDBRANCH   1  12
BRANCH   7  18
ATOM     18  C   UNL     1       1.126  10.176  18.640  0.00  0.00    +0.000 C 
BRANCH  18  19
ATOM     19  C   UNL     1      -0.349  10.506  18.514  0.00  0.00    +0.000 A 
ATOM     20  C   UNL     1      -1.138   9.743  17.627  0.00  0.00    +0.000 A 
ATOM     21  C   UNL     1      -2.425  10.116  17.265  0.00  0.00    +0.000 A 
ATOM     22  C   UNL     1      -3.002  11.243  17.835  0.00  0.00    +0.000 A 
ATOM     23  C   UNL     1      -2.296  11.941  18.821  0.00  0.00    +0.000 A 
ATOM     24  C   UNL     1      -0.967  11.602  19.154  0.00  0.00    +0.000 A 
BRANCH  22  25
ATOM     25  C   UNL     1      -4.339  11.640  17.333  0.00  0.00    +0.000 C 
ATOM     26  O   UNL     1      -4.827  11.179  16.312  0.00  0.00    +0.000 OA
BRANCH  25  27
ATOM     27  O   UNL     1      -4.926  12.627  18.040  0.00  0.00    +0.000 OA
ATOM     28  H   UNL     1      -4.635  12.708  18.969  0.00  0.00    +0.000 HD
ENDBRANCH  25  27
ENDBRANCH  22  25
BRANCH  24  29
ATOM     29  O   UNL     1      -0.411  12.523  19.996  0.00  0.00    +0.000 OA
ATOM     30  C   UNL     1      -1.232  13.362  20.794  0.00  0.00    +0.000 C 
ENDBRANCH  24  29
ENDBRANCH  18  19
ENDBRANCH   7  18
TORSDOF 9
ENDMDL
MODEL 8
REMARK VINA RESULT:      -7.6      2.813      8.082
REMARK  Name = 
REMARK  10 active torsions:
REMARK  status: ('A' for Active; 'I' for Inactive)
REMARK    1  A    between atoms: C_2  and  C_3
REMARK    2  A    between atoms: C_3  and  C_4
REMARK    3  A    between atoms: C_4  and  C_5
REMARK    4  A    between atoms: N_7  and  C_8
REMARK    5  A    between atoms: N_14  and  C_15
REMARK    6  A    between atoms: C_15  and  C_16
REMARK    7  A    between atoms: C_19  and  C_20
REMARK    8  A    between atoms: C_20  and  O_22
REMARK    9  A    between atoms: C_24  and  O_25
REMARK   10  A    between atoms: O_25  and  C_26
REMARK                            x       y       z     vdW  Elec       q    Type
REMARK                         _______ _______ _______ _____ _____    ______ ____
ROOT
ATOM      1  C   UNL     1       1.844   5.150  20.524  0.00  0.00    +0.000 A 
ATOM      2  C   UNL     1       1.664   4.116  21.439  0.00  0.00    +0.000 A 
ATOM      3  C   UNL     1       2.027   2.799  21.137  0.00  0.00    +0.000 A 
ATOM      4  C   UNL     1       2.621   2.514  19.900  0.00  0.00    +0.000 A 
ATOM      5  C   UNL     1       3.101   1.313  19.322  0.00  0.00    +0.000 A 
ATOM      6  C   UNL     1       3.617   1.626  18.089  0.00  0.00    +0.000 A 
ATOM      7  N   UNL     1       3.468   2.983  17.896  0.00  0.00    +0.000 N 
ATOM      8  C   UNL     1       2.801   3.550  18.976  0.00  0.00    +0.000 A 
ATOM      9  C   UNL     1       2.346   4.866  19.237  0.00  0.00    +0.000 A 
ENDROOT
BRANCH   1  12
ATOM     10  C   UNL     1       1.809   7.599  20.065  0.00  0.00    +0.000 C 
ATOM     11  O   UNL     1       2.271   7.570  18.931  0.00  0.00    +0.000 OA
ATOM     12  N   UNL     1       1.554   6.503  20.875  0.00  0.00    +0.000 N 
ATOM     13  H   UNL     1       0.990   6.645  21.708  0.00  0.00    +0.000 HD
BRANCH  10  14
ATOM     14  C   UNL     1       1.378   8.939  20.632  0.00  0.00    +0.000 C 
BRANCH  14  15
ATOM     15  C   UNL     1       1.271   8.852  22.145  0.00  0.00    +0.000 C 
BRANCH  15  17
ATOM     16  C   UNL     1      -0.914  10.355  23.114  0.00  0.00    +0.000 C 
ATOM     17  C   UNL     1       0.096   9.661  22.667  0.00  0.00    +0.000 C 
ENDBRANCH  15  17
ENDBRANCH  14  15
ENDBRANCH  10  14
ENDBRANCH   1  12
BRANCH   7  18
ATOM     18  C   UNL     1       3.962   3.671  16.695  0.00  0.00    +0.000 C 
BRANCH  18  19
ATOM     19  C   UNL     1       5.160   4.568  16.943  0.00  0.00    +0.000 A 
ATOM     20  C   UNL     1       5.507   4.877  18.275  0.00  0.00    +0.000 A 
ATOM     21  C   UNL     1       6.424   5.869  18.595  0.00  0.00    +0.000 A 
ATOM     22  C   UNL     1       7.085   6.550  17.582  0.00  0.00    +0.000 A 
ATOM     23  C   UNL     1       6.864   6.169  16.253  0.00  0.00    +0.000 A 
ATOM     24  C   UNL     1       5.893   5.202  15.916  0.00  0.00    +0.000 A 
BRANCH  22  25
ATOM     25  C   UNL     1       7.978   7.661  17.990  0.00  0.00    +0.000 C 
ATOM     26  O   UNL     1       8.135   8.667  17.314  0.00  0.00    +0.000 OA
BRANCH  25  27
ATOM     27  O   UNL     1       8.679   7.423  19.117  0.00  0.00    +0.000 OA
ATOM     28  H   UNL     1       9.184   8.183  19.466  0.00  0.00    +0.000 HD
ENDBRANCH  25  27
ENDBRANCH  22  25
BRANCH  24  29
ATOM     29  O   UNL     1       5.712   5.124  14.565  0.00  0.00    +0.000 OA
ATOM     30  C   UNL     1       6.345   4.104  13.808  0.00  0.00    +0.000 C 
ENDBRANCH  24  29
ENDBRANCH  18  19
ENDBRANCH   7  18
TORSDOF 9
ENDMDL
MODEL 9
REMARK VINA RESULT:      -7.6      2.532      8.221
REMARK  Name = 
REMARK  10 active torsions:
REMARK  status: ('A' for Active; 'I' for Inactive)
REMARK    1  A    between atoms: C_2  and  C_3
REMARK    2  A    between atoms: C_3  and  C_4
REMARK    3  A    between atoms: C_4  and  C_5
REMARK    4  A    between atoms: N_7  and  C_8
REMARK    5  A    between atoms: N_14  and  C_15
REMARK    6  A    between atoms: C_15  and  C_16
REMARK    7  A    between atoms: C_19  and  C_20
REMARK    8  A    between atoms: C_20  and  O_22
REMARK    9  A    between atoms: C_24  and  O_25
REMARK   10  A    between atoms: O_25  and  C_26
REMARK                            x       y       z     vdW  Elec       q    Type
REMARK                         _______ _______ _______ _____ _____    ______ ____
ROOT
ATOM      1  C   UNL     1       2.116   6.699  19.844  0.00  0.00    +0.000 A 
ATOM      2  C   UNL     1       1.260   5.809  20.489  0.00  0.00    +0.000 A 
ATOM      3  C   UNL     1       1.591   4.458  20.644  0.00  0.00    +0.000 A 
ATOM      4  C   UNL     1       2.826   3.992  20.175  0.00  0.00    +0.000 A 
ATOM      5  C   UNL     1       3.439   2.715  20.198  0.00  0.00    +0.000 A 
ATOM      6  C   UNL     1       4.678   2.842  19.621  0.00  0.00    +0.000 A 
ATOM      7  N   UNL     1       4.841   4.158  19.246  0.00  0.00    +0.000 N 
ATOM      8  C   UNL     1       3.688   4.882  19.523  0.00  0.00    +0.000 A 
ATOM      9  C   UNL     1       3.318   6.227  19.275  0.00  0.00    +0.000 A 
ENDROOT
BRANCH   1  12
ATOM     10  C   UNL     1       1.784   8.831  18.596  0.00  0.00    +0.000 C 
ATOM     11  O   UNL     1       1.969   8.400  17.464  0.00  0.00    +0.000 OA
ATOM     12  N   UNL     1       1.811   8.091  19.769  0.00  0.00    +0.000 N 
ATOM     13  H   UNL     1       1.447   8.522  20.614  0.00  0.00    +0.000 HD
BRANCH  10  14
ATOM     14  C   UNL     1       1.393  10.287  18.756  0.00  0.00    +0.000 C 
BRANCH  14  15
ATOM     15  C   UNL     1       0.362  10.429  19.863  0.00  0.00    +0.000 C 
BRANCH  15  17
ATOM     16  C   UNL     1      -0.762  13.020  19.901  0.00  0.00    +0.000 C 
ATOM     17  C   UNL     1      -0.244  11.823  19.884  0.00  0.00    +0.000 C 
ENDBRANCH  15  17
ENDBRANCH  14  15
ENDBRANCH  10  14
ENDBRANCH   1  12
BRANCH   7  18
ATOM     18  C   UNL     1       6.083   4.661  18.640  0.00  0.00    +0.000 C 
BRANCH  18  19
ATOM     19  C   UNL     1       6.065   4.690  17.124  0.00  0.00    +0.000 A 
ATOM     20  C   UNL     1       5.272   3.744  16.440  0.00  0.00    +0.000 A 
ATOM     21  C   UNL     1       5.375   3.536  15.072  0.00  0.00    +0.000 A 
ATOM     22  C   UNL     1       6.237   4.320  14.317  0.00  0.00    +0.000 A 
ATOM     23  C   UNL     1       6.934   5.358  14.945  0.00  0.00    +0.000 A 
ATOM     24  C   UNL     1       6.878   5.541  16.344  0.00  0.00    +0.000 A 
BRANCH  22  25
ATOM     25  C   UNL     1       6.371   3.980  12.880  0.00  0.00    +0.000 C 
ATOM     26  O   UNL     1       7.321   4.340  12.200  0.00  0.00    +0.000 OA
BRANCH  25  27
ATOM     27  O   UNL     1       5.308   3.331  12.363  0.00  0.00    +0.000 OA
ATOM     28  H   UNL     1       4.968   3.686  11.519  0.00  0.00    +0.000 HD
ENDBRANCH  25  27
ENDBRANCH  22  25
BRANCH  24  29
ATOM     29  O   UNL     1       7.774   6.484  16.761  0.00  0.00    +0.000 OA
ATOM     30  C   UNL     1       7.328   7.703  17.334  0.00  0.00    +0.000 C 
ENDBRANCH  24  29
ENDBRANCH  18  19
ENDBRANCH   7  18
TORSDOF 9
ENDMDL
