MODEL 1
REMARK VINA RESULT:      -7.8      0.000      0.000
REMARK  Name = 
REMARK  6 active torsions:
REMARK  status: ('A' for Active; 'I' for Inactive)
REMARK    1  A    between atoms: S_2  and  O_4
REMARK    2  A    between atoms: S_2  and  C_5
REMARK    3  A    between atoms: C_10  and  N_11
REMARK    4  A    between atoms: N_17  and  C_18
REMARK    5  A    between atoms: C_23  and  S_24
REMARK    6  A    between atoms: S_24  and  O_27
REMARK                            x       y       z     vdW  Elec       q    Type
REMARK                         _______ _______ _______ _____ _____    ______ ____
ROOT
ATOM      1  N   UNL     1       3.550   3.800  17.451  0.00  0.00    +0.000 N 
ATOM      2  C   UNL     1       2.803   4.450  18.459  0.00  0.00    +0.000 A 
ATOM      3  C   UNL     1       1.987   3.650  19.236  0.00  0.00    +0.000 A 
ATOM      4  C   UNL     1       1.237   4.290  20.182  0.00  0.00    +0.000 A 
ATOM      5  N   UNL     1       1.317   5.607  20.396  0.00  0.00    +0.000 NA
ATOM      6  C   UNL     1       2.176   6.307  19.636  0.00  0.00    +0.000 A 
ATOM      7  N   UNL     1       2.395   7.670  19.934  0.00  0.00    +0.000 N 
ATOM      8  N   UNL     1       2.896   5.778  18.641  0.00  0.00    +0.000 NA
ATOM      9  H   UNL     1       2.903   3.268  16.876  0.00  0.00    +0.000 HD
ATOM     10  H   UNL     1       2.801   8.076  19.092  0.00  0.00    +0.000 HD
ENDROOT
BRANCH   1  16
ATOM     11  C   UNL     1       5.950   4.556  17.259  0.00  0.00    +0.000 A 
ATOM     12  C   UNL     1       7.033   4.807  16.384  0.00  0.00    +0.000 A 
ATOM     13  C   UNL     1       6.875   4.754  15.006  0.00  0.00    +0.000 A 
ATOM     14  C   UNL     1       5.629   4.463  14.471  0.00  0.00    +0.000 A 
ATOM     15  C   UNL     1       4.561   4.190  15.326  0.00  0.00    +0.000 A 
ATOM     16  C   UNL     1       4.692   4.213  16.737  0.00  0.00    +0.000 A 
BRANCH  11  18
ATOM     17  O   UNL     1       7.747   4.856  19.199  0.00  0.00    +0.000 OA
ATOM     18  S   UNL     1       6.335   4.628  18.993  0.00  0.00    +0.000 S 
ATOM     19  O   UNL     1       5.627   3.554  19.664  0.00  0.00    +0.000 OA
BRANCH  18  20
ATOM     20  O   UNL     1       5.639   5.987  19.518  0.00  0.00    +0.000 OA
ATOM     21  H   UNL     1       6.333   6.523  19.957  0.00  0.00    +0.000 HD
ENDBRANCH  18  20
ENDBRANCH  11  18
ENDBRANCH   1  16
BRANCH   7  22
ATOM     22  C   UNL     1       1.430   8.485  20.573  0.00  0.00    +0.000 A 
ATOM     23  C   UNL     1       1.045   8.203  21.898  0.00  0.00    +0.000 A 
ATOM     24  C   UNL     1       0.119   8.998  22.578  0.00  0.00    +0.000 A 
ATOM     25  C   UNL     1      -0.468  10.081  21.937  0.00  0.00    +0.000 A 
ATOM     26  C   UNL     1      -0.150  10.347  20.608  0.00  0.00    +0.000 A 
ATOM     27  C   UNL     1       0.774   9.538  19.922  0.00  0.00    +0.000 A 
BRANCH  27  28
ATOM     28  S   UNL     1       1.088   9.952  18.222  0.00  0.00    +0.000 S 
ATOM     29  O   UNL     1       2.007  11.072  18.250  0.00  0.00    +0.000 OA
ATOM     30  O   UNL     1       1.423   8.723  17.530  0.00  0.00    +0.000 OA
BRANCH  28  31
ATOM     31  O   UNL     1      -0.307  10.475  17.605  0.00  0.00    +0.000 OA
ATOM     32  H   UNL     1      -0.237  11.422  17.352  0.00  0.00    +0.000 HD
ENDBRANCH  28  31
ENDBRANCH  27  28
ENDBRANCH   7  22
TORSDOF 6
ENDMDL
MODEL 2
REMARK VINA RESULT:      -7.7      2.401      3.535
REMARK  Name = 
REMARK  6 active torsions:
REMARK  status: ('A' for Active; 'I' for Inactive)
REMARK    1  A    between atoms: S_2  and  O_4
REMARK    2  A    between atoms: S_2  and  C_5
REMARK    3  A    between atoms: C_10  and  N_11
REMARK    4  A    between atoms: N_17  and  C_18
REMARK    5  A    between atoms: C_23  and  S_24
REMARK    6  A    between atoms: S_24  and  O_27
REMARK                            x       y       z     vdW  Elec       q    Type
REMARK                         _______ _______ _______ _____ _____    ______ ____
ROOT
ATOM      1  N   UNL     1       3.224   5.958  19.505  0.00  0.00    +0.000 N 
ATOM      2  C   UNL     1       2.388   7.065  19.776  0.00  0.00    +0.000 A 
ATOM      3  C   UNL     1       2.103   7.315  21.104  0.00  0.00    +0.000 A 
ATOM      4  C   UNL     1       1.262   8.361  21.356  0.00  0.00    +0.000 A 
ATOM      5  N   UNL     1       0.776   9.145  20.388  0.00  0.00    +0.000 NA
ATOM      6  C   UNL     1       1.144   8.870  19.125  0.00  0.00    +0.000 A 
ATOM      7  N   UNL     1       0.771   9.763  18.097  0.00  0.00    +0.000 N 
ATOM      8  N   UNL     1       1.905   7.826  18.779  0.00  0.00    +0.000 NA
ATOM      9  H   UNL     1       2.817   5.142  19.953  0.00  0.00    +0.000 HD
ATOM     10  H   UNL     1       0.857   9.237  17.228  0.00  0.00    +0.000 HD
ENDROOT
BRANCH   1  16
ATOM     11  C   UNL     1       4.267   4.343  17.872  0.00  0.00    +0.000 A 
ATOM     12  C   UNL     1       4.914   4.194  16.622  0.00  0.00    +0.000 A 
ATOM     13  C   UNL     1       5.302   5.297  15.873  0.00  0.00    +0.000 A 
ATOM     14  C   UNL     1       5.066   6.572  16.363  0.00  0.00    +0.000 A 
ATOM     15  C   UNL     1       4.406   6.730  17.582  0.00  0.00    +0.000 A 
ATOM     16  C   UNL     1       3.976   5.627  18.362  0.00  0.00    +0.000 A 
BRANCH  11  18
ATOM     17  O   UNL     1       3.665   1.755  17.722  0.00  0.00    +0.000 OA
ATOM     18  S   UNL     1       3.805   2.828  18.678  0.00  0.00    +0.000 S 
ATOM     19  O   UNL     1       2.771   3.126  19.653  0.00  0.00    +0.000 OA
BRANCH  18  20
ATOM     20  O   UNL     1       5.099   2.409  19.549  0.00  0.00    +0.000 OA
ATOM     21  H   UNL     1       5.566   1.699  19.059  0.00  0.00    +0.000 HD
ENDBRANCH  18  20
ENDBRANCH  11  18
ENDBRANCH   1  16
BRANCH   7  22
ATOM     22  C   UNL     1      -0.374  10.591  18.172  0.00  0.00    +0.000 A 
ATOM     23  C   UNL     1      -1.645  10.053  17.892  0.00  0.00    +0.000 A 
ATOM     24  C   UNL     1      -2.805  10.826  17.982  0.00  0.00    +0.000 A 
ATOM     25  C   UNL     1      -2.719  12.168  18.330  0.00  0.00    +0.000 A 
ATOM     26  C   UNL     1      -1.470  12.740  18.554  0.00  0.00    +0.000 A 
ATOM     27  C   UNL     1      -0.302  11.962  18.451  0.00  0.00    +0.000 A 
BRANCH  27  28
ATOM     28  S   UNL     1       1.241  12.799  18.734  0.00  0.00    +0.000 S 
ATOM     29  O   UNL     1       0.956  14.213  18.590  0.00  0.00    +0.000 OA
ATOM     30  O   UNL     1       1.804  12.268  19.959  0.00  0.00    +0.000 OA
BRANCH  28  31
ATOM     31  O   UNL     1       2.230  12.371  17.535  0.00  0.00    +0.000 OA
ATOM     32  H   UNL     1       3.139  12.705  17.704  0.00  0.00    +0.000 HD
ENDBRANCH  28  31
ENDBRANCH  27  28
ENDBRANCH   7  22
TORSDOF 6
ENDMDL
MODEL 3
REMARK VINA RESULT:      -7.5      2.495      3.594
REMARK  Name = 
REMARK  6 active torsions:
REMARK  status: ('A' for Active; 'I' for Inactive)
REMARK    1  A    between atoms: S_2  and  O_4
REMARK    2  A    between atoms: S_2  and  C_5
REMARK    3  A    between atoms: C_10  and  N_11
REMARK    4  A    between atoms: N_17  and  C_18
REMARK    5  A    between atoms: C_23  and  S_24
REMARK    6  A    between atoms: S_24  and  O_27
REMARK                            x       y       z     vdW  Elec       q    Type
REMARK                         _______ _______ _______ _____ _____    ______ ____
ROOT
ATOM      1  N   UNL     1       3.249   5.753  19.338  0.00  0.00    +0.000 N 
ATOM      2  C   UNL     1       2.449   6.880  19.635  0.00  0.00    +0.000 A 
ATOM      3  C   UNL     1       2.166   7.102  20.969  0.00  0.00    +0.000 A 
ATOM      4  C   UNL     1       1.359   8.170  21.245  0.00  0.00    +0.000 A 
ATOM      5  N   UNL     1       0.906   8.995  20.297  0.00  0.00    +0.000 NA
ATOM      6  C   UNL     1       1.272   8.743  19.029  0.00  0.00    +0.000 A 
ATOM      7  N   UNL     1       0.935   9.677  18.025  0.00  0.00    +0.000 N 
ATOM      8  N   UNL     1       1.998   7.684  18.658  0.00  0.00    +0.000 NA
ATOM      9  H   UNL     1       2.812   4.939  19.762  0.00  0.00    +0.000 HD
ATOM     10  H   UNL     1       1.008   9.172  17.142  0.00  0.00    +0.000 HD
ENDROOT
BRANCH   1  16
ATOM     11  C   UNL     1       4.048   4.192  17.524  0.00  0.00    +0.000 A 
ATOM     12  C   UNL     1       4.737   4.080  16.294  0.00  0.00    +0.000 A 
ATOM     13  C   UNL     1       5.400   5.165  15.737  0.00  0.00    +0.000 A 
ATOM     14  C   UNL     1       5.400   6.382  16.402  0.00  0.00    +0.000 A 
ATOM     15  C   UNL     1       4.702   6.508  17.603  0.00  0.00    +0.000 A 
ATOM     16  C   UNL     1       3.996   5.428  18.190  0.00  0.00    +0.000 A 
BRANCH  11  18
ATOM     17  O   UNL     1       2.052   2.450  17.271  0.00  0.00    +0.000 OA
ATOM     18  S   UNL     1       3.222   2.717  18.074  0.00  0.00    +0.000 S 
ATOM     19  O   UNL     1       3.168   2.736  19.525  0.00  0.00    +0.000 OA
BRANCH  18  20
ATOM     20  O   UNL     1       4.233   1.513  17.704  0.00  0.00    +0.000 OA
ATOM     21  H   UNL     1       4.852   1.847  17.021  0.00  0.00    +0.000 HD
ENDBRANCH  18  20
ENDBRANCH  11  18
ENDBRANCH   1  16
BRANCH   7  22
ATOM     22  C   UNL     1      -0.182  10.541  18.117  0.00  0.00    +0.000 A 
ATOM     23  C   UNL     1      -1.448  10.096  17.690  0.00  0.00    +0.000 A 
ATOM     24  C   UNL     1      -2.582  10.904  17.790  0.00  0.00    +0.000 A 
ATOM     25  C   UNL     1      -2.474  12.193  18.296  0.00  0.00    +0.000 A 
ATOM     26  C   UNL     1      -1.223  12.680  18.670  0.00  0.00    +0.000 A 
ATOM     27  C   UNL     1      -0.081  11.867  18.558  0.00  0.00    +0.000 A 
BRANCH  27  28
ATOM     28  S   UNL     1       1.467  12.598  19.041  0.00  0.00    +0.000 S 
ATOM     29  O   UNL     1       1.586  12.366  20.466  0.00  0.00    +0.000 OA
ATOM     30  O   UNL     1       2.478  12.125  18.116  0.00  0.00    +0.000 OA
BRANCH  28  31
ATOM     31  O   UNL     1       1.324  14.188  18.811  0.00  0.00    +0.000 OA
ATOM     32  H   UNL     1       0.513  14.526  19.251  0.00  0.00    +0.000 HD
ENDBRANCH  28  31
ENDBRANCH  27  28
ENDBRANCH   7  22
TORSDOF 6
ENDMDL
MODEL 4
REMARK VINA RESULT:      -7.4      2.573      3.706
REMARK  Name = 
REMARK  6 active torsions:
REMARK  status: ('A' for Active; 'I' for Inactive)
REMARK    1  A    between atoms: S_2  and  O_4
REMARK    2  A    between atoms: S_2  and  C_5
REMARK    3  A    between atoms: C_10  and  N_11
REMARK    4  A    between atoms: N_17  and  C_18
REMARK    5  A    between atoms: C_23  and  S_24
REMARK    6  A    between atoms: S_24  and  O_27
REMARK                            x       y       z     vdW  Elec       q    Type
REMARK                         _______ _______ _______ _____ _____    ______ ____
ROOT
ATOM      1  N   UNL     1       3.229   5.958  19.511  0.00  0.00    +0.000 N 
ATOM      2  C   UNL     1       2.385   7.064  19.762  0.00  0.00    +0.000 A 
ATOM      3  C   UNL     1       2.124   7.353  21.088  0.00  0.00    +0.000 A 
ATOM      4  C   UNL     1       1.277   8.398  21.323  0.00  0.00    +0.000 A 
ATOM      5  N   UNL     1       0.762   9.145  20.340  0.00  0.00    +0.000 NA
ATOM      6  C   UNL     1       1.108   8.833  19.080  0.00  0.00    +0.000 A 
ATOM      7  N   UNL     1       0.705   9.688  18.031  0.00  0.00    +0.000 N 
ATOM      8  N   UNL     1       1.874   7.787  18.752  0.00  0.00    +0.000 NA
ATOM      9  H   UNL     1       2.840   5.152  19.993  0.00  0.00    +0.000 HD
ATOM     10  H   UNL     1       0.779   9.135  17.178  0.00  0.00    +0.000 HD
ENDROOT
BRANCH   1  16
ATOM     11  C   UNL     1       3.979   4.352  17.716  0.00  0.00    +0.000 A 
ATOM     12  C   UNL     1       4.660   4.206  16.484  0.00  0.00    +0.000 A 
ATOM     13  C   UNL     1       5.346   5.266  15.908  0.00  0.00    +0.000 A 
ATOM     14  C   UNL     1       5.380   6.491  16.556  0.00  0.00    +0.000 A 
ATOM     15  C   UNL     1       4.691   6.652  17.758  0.00  0.00    +0.000 A 
ATOM     16  C   UNL     1       3.961   5.598  18.363  0.00  0.00    +0.000 A 
BRANCH  11  18
ATOM     17  O   UNL     1       2.881   2.978  19.714  0.00  0.00    +0.000 OA
ATOM     18  S   UNL     1       3.120   2.906  18.291  0.00  0.00    +0.000 S 
ATOM     19  O   UNL     1       3.724   1.739  17.674  0.00  0.00    +0.000 OA
BRANCH  18  20
ATOM     20  O   UNL     1       1.646   3.012  17.641  0.00  0.00    +0.000 OA
ATOM     21  H   UNL     1       1.701   2.664  16.726  0.00  0.00    +0.000 HD
ENDBRANCH  18  20
ENDBRANCH  11  18
ENDBRANCH   1  16
BRANCH   7  22
ATOM     22  C   UNL     1      -0.448  10.506  18.103  0.00  0.00    +0.000 A 
ATOM     23  C   UNL     1      -1.681  10.019  17.628  0.00  0.00    +0.000 A 
ATOM     24  C   UNL     1      -2.850  10.780  17.706  0.00  0.00    +0.000 A 
ATOM     25  C   UNL     1      -2.809  12.063  18.237  0.00  0.00    +0.000 A 
ATOM     26  C   UNL     1      -1.592  12.592  18.659  0.00  0.00    +0.000 A 
ATOM     27  C   UNL     1      -0.414  11.827  18.569  0.00  0.00    +0.000 A 
BRANCH  27  28
ATOM     28  S   UNL     1       1.087  12.609  19.113  0.00  0.00    +0.000 S 
ATOM     29  O   UNL     1       2.131  12.113  18.239  0.00  0.00    +0.000 OA
ATOM     30  O   UNL     1       0.818  14.028  19.233  0.00  0.00    +0.000 OA
BRANCH  28  31
ATOM     31  O   UNL     1       1.386  12.059  20.600  0.00  0.00    +0.000 OA
ATOM     32  H   UNL     1       0.773  11.325  20.824  0.00  0.00    +0.000 HD
ENDBRANCH  28  31
ENDBRANCH  27  28
ENDBRANCH   7  22
TORSDOF 6
ENDMDL
MODEL 5
REMARK VINA RESULT:      -7.3      2.622      3.839
REMARK  Name = 
REMARK  6 active torsions:
REMARK  status: ('A' for Active; 'I' for Inactive)
REMARK    1  A    between atoms: S_2  and  O_4
REMARK    2  A    between atoms: S_2  and  C_5
REMARK    3  A    between atoms: C_10  and  N_11
REMARK    4  A    between atoms: N_17  and  C_18
REMARK    5  A    between atoms: C_23  and  S_24
REMARK    6  A    between atoms: S_24  and  O_27
REMARK                            x       y       z     vdW  Elec       q    Type
REMARK                         _______ _______ _______ _____ _____    ______ ____
ROOT
ATOM      1  N   UNL     1       3.201   5.756  19.856  0.00  0.00    +0.000 N 
ATOM      2  C   UNL     1       2.376   6.893  20.011  0.00  0.00    +0.000 A 
ATOM      3  C   UNL     1       2.035   7.237  21.304  0.00  0.00    +0.000 A 
ATOM      4  C   UNL     1       1.205   8.313  21.444  0.00  0.00    +0.000 A 
ATOM      5  N   UNL     1       0.781   9.037  20.403  0.00  0.00    +0.000 NA
ATOM      6  C   UNL     1       1.202   8.671  19.181  0.00  0.00    +0.000 A 
ATOM      7  N   UNL     1       0.896   9.497  18.078  0.00  0.00    +0.000 N 
ATOM      8  N   UNL     1       1.956   7.592  18.943  0.00  0.00    +0.000 NA
ATOM      9  H   UNL     1       2.757   4.979  20.338  0.00  0.00    +0.000 HD
ATOM     10  H   UNL     1       1.011   8.912  17.252  0.00  0.00    +0.000 HD
ENDROOT
BRANCH   1  16
ATOM     11  C   UNL     1       3.675   4.384  17.793  0.00  0.00    +0.000 A 
ATOM     12  C   UNL     1       4.538   4.187  16.689  0.00  0.00    +0.000 A 
ATOM     13  C   UNL     1       5.726   4.894  16.566  0.00  0.00    +0.000 A 
ATOM     14  C   UNL     1       6.086   5.802  17.550  0.00  0.00    +0.000 A 
ATOM     15  C   UNL     1       5.229   6.022  18.629  0.00  0.00    +0.000 A 
ATOM     16  C   UNL     1       3.999   5.334  18.775  0.00  0.00    +0.000 A 
BRANCH  11  18
ATOM     17  O   UNL     1       2.414   2.109  17.227  0.00  0.00    +0.000 OA
ATOM     18  S   UNL     1       2.178   3.425  17.773  0.00  0.00    +0.000 S 
ATOM     19  O   UNL     1       1.099   4.270  17.296  0.00  0.00    +0.000 OA
BRANCH  18  20
ATOM     20  O   UNL     1       1.842   3.148  19.328  0.00  0.00    +0.000 OA
ATOM     21  H   UNL     1       2.428   2.423  19.632  0.00  0.00    +0.000 HD
ENDBRANCH  18  20
ENDBRANCH  11  18
ENDBRANCH   1  16
BRANCH   7  22
ATOM     22  C   UNL     1      -0.234  10.349  18.042  0.00  0.00    +0.000 A 
ATOM     23  C   UNL     1      -1.458   9.865  17.539  0.00  0.00    +0.000 A 
ATOM     24  C   UNL     1      -2.606  10.661  17.512  0.00  0.00    +0.000 A 
ATOM     25  C   UNL     1      -2.551  11.973  17.963  0.00  0.00    +0.000 A 
ATOM     26  C   UNL     1      -1.340  12.495  18.410  0.00  0.00    +0.000 A 
ATOM     27  C   UNL     1      -0.183  11.695  18.426  0.00  0.00    +0.000 A 
BRANCH  27  28
ATOM     28  S   UNL     1       1.313  12.470  18.993  0.00  0.00    +0.000 S 
ATOM     29  O   UNL     1       2.366  11.978  18.127  0.00  0.00    +0.000 OA
ATOM     30  O   UNL     1       1.047  13.889  19.119  0.00  0.00    +0.000 OA
BRANCH  28  31
ATOM     31  O   UNL     1       1.595  11.909  20.478  0.00  0.00    +0.000 OA
ATOM     32  H   UNL     1       0.777  11.518  20.858  0.00  0.00    +0.000 HD
ENDBRANCH  28  31
ENDBRANCH  27  28
ENDBRANCH   7  22
TORSDOF 6
ENDMDL
MODEL 6
REMARK VINA RESULT:      -7.2      0.606      1.319
REMARK  Name = 
REMARK  6 active torsions:
REMARK  status: ('A' for Active; 'I' for Inactive)
REMARK    1  A    between atoms: S_2  and  O_4
REMARK    2  A    between atoms: S_2  and  C_5
REMARK    3  A    between atoms: C_10  and  N_11
REMARK    4  A    between atoms: N_17  and  C_18
REMARK    5  A    between atoms: C_23  and  S_24
REMARK    6  A    between atoms: S_24  and  O_27
REMARK                            x       y       z     vdW  Elec       q    Type
REMARK                         _______ _______ _______ _____ _____    ______ ____
ROOT
ATOM      1  N   UNL     1       3.962   3.836  17.714  0.00  0.00    +0.000 N 
ATOM      2  C   UNL     1       3.264   4.520  18.735  0.00  0.00    +0.000 A 
ATOM      3  C   UNL     1       2.736   3.744  19.749  0.00  0.00    +0.000 A 
ATOM      4  C   UNL     1       2.029   4.407  20.712  0.00  0.00    +0.000 A 
ATOM      5  N   UNL     1       1.893   5.737  20.719  0.00  0.00    +0.000 NA
ATOM      6  C   UNL     1       2.484   6.426  19.728  0.00  0.00    +0.000 A 
ATOM      7  N   UNL     1       2.486   7.836  19.786  0.00  0.00    +0.000 N 
ATOM      8  N   UNL     1       3.134   5.857  18.707  0.00  0.00    +0.000 NA
ATOM      9  H   UNL     1       3.347   3.116  17.343  0.00  0.00    +0.000 HD
ATOM     10  H   UNL     1       2.680   8.152  18.836  0.00  0.00    +0.000 HD
ENDROOT
BRANCH   1  16
ATOM     11  C   UNL     1       6.164   4.833  16.994  0.00  0.00    +0.000 A 
ATOM     12  C   UNL     1       7.024   5.113  15.906  0.00  0.00    +0.000 A 
ATOM     13  C   UNL     1       6.622   4.900  14.594  0.00  0.00    +0.000 A 
ATOM     14  C   UNL     1       5.348   4.417  14.340  0.00  0.00    +0.000 A 
ATOM     15  C   UNL     1       4.502   4.115  15.407  0.00  0.00    +0.000 A 
ATOM     16  C   UNL     1       4.887   4.298  16.759  0.00  0.00    +0.000 A 
BRANCH  11  18
ATOM     17  O   UNL     1       6.140   4.379  19.616  0.00  0.00    +0.000 OA
ATOM     18  S   UNL     1       6.852   5.127  18.607  0.00  0.00    +0.000 S 
ATOM     19  O   UNL     1       7.107   6.549  18.744  0.00  0.00    +0.000 OA
BRANCH  18  20
ATOM     20  O   UNL     1       8.312   4.438  18.567  0.00  0.00    +0.000 OA
ATOM     21  H   UNL     1       8.972   5.152  18.434  0.00  0.00    +0.000 HD
ENDBRANCH  18  20
ENDBRANCH  11  18
ENDBRANCH   1  16
BRANCH   7  22
ATOM     22  C   UNL     1       1.492   8.583  20.463  0.00  0.00    +0.000 A 
ATOM     23  C   UNL     1       1.278   8.375  21.839  0.00  0.00    +0.000 A 
ATOM     24  C   UNL     1       0.329   9.110  22.554  0.00  0.00    +0.000 A 
ATOM     25  C   UNL     1      -0.453  10.054  21.900  0.00  0.00    +0.000 A 
ATOM     26  C   UNL     1      -0.303  10.238  20.528  0.00  0.00    +0.000 A 
ATOM     27  C   UNL     1       0.646   9.488  19.809  0.00  0.00    +0.000 A 
BRANCH  27  28
ATOM     28  S   UNL     1       0.736   9.786  18.059  0.00  0.00    +0.000 S 
ATOM     29  O   UNL     1       1.319   8.591  17.484  0.00  0.00    +0.000 OA
ATOM     30  O   UNL     1      -0.563  10.268  17.633  0.00  0.00    +0.000 OA
BRANCH  28  31
ATOM     31  O   UNL     1       1.781  10.996  17.845  0.00  0.00    +0.000 OA
ATOM     32  H   UNL     1       1.307  11.818  17.589  0.00  0.00    +0.000 HD
ENDBRANCH  28  31
ENDBRANCH  27  28
ENDBRANCH   7  22
TORSDOF 6
ENDMDL
MODEL 7
REMARK VINA RESULT:      -7.0      8.012     12.174
REMARK  Name = 
REMARK  6 active torsions:
REMARK  status: ('A' for Active; 'I' for Inactive)
REMARK    1  A    between atoms: S_2  and  O_4
REMARK    2  A    between atoms: S_2  and  C_5
REMARK    3  A    between atoms: C_10  and  N_11
REMARK    4  A    between atoms: N_17  and  C_18
REMARK    5  A    between atoms: C_23  and  S_24
REMARK    6  A    between atoms: S_24  and  O_27
REMARK                            x       y       z     vdW  Elec       q    Type
REMARK                         _______ _______ _______ _____ _____    ______ ____
ROOT
ATOM      1  N   UNL     1      -7.081  12.972  22.660  0.00  0.00    +0.000 N 
ATOM      2  C   UNL     1      -6.762  12.308  21.455  0.00  0.00    +0.000 A 
ATOM      3  C   UNL     1      -7.590  11.264  21.087  0.00  0.00    +0.000 A 
ATOM      4  C   UNL     1      -7.254  10.601  19.941  0.00  0.00    +0.000 A 
ATOM      5  N   UNL     1      -6.218  10.962  19.176  0.00  0.00    +0.000 NA
ATOM      6  C   UNL     1      -5.494  12.022  19.574  0.00  0.00    +0.000 A 
ATOM      7  N   UNL     1      -4.489  12.520  18.717  0.00  0.00    +0.000 N 
ATOM      8  N   UNL     1      -5.707  12.687  20.715  0.00  0.00    +0.000 NA
ATOM      9  H   UNL     1      -7.140  12.273  23.396  0.00  0.00    +0.000 HD
ATOM     10  H   UNL     1      -3.875  13.082  19.307  0.00  0.00    +0.000 HD
ENDROOT
BRANCH   1  16
ATOM     11  C   UNL     1      -5.488  14.579  23.777  0.00  0.00    +0.000 A 
ATOM     12  C   UNL     1      -5.206  15.934  24.071  0.00  0.00    +0.000 A 
ATOM     13  C   UNL     1      -6.116  16.941  23.781  0.00  0.00    +0.000 A 
ATOM     14  C   UNL     1      -7.333  16.617  23.203  0.00  0.00    +0.000 A 
ATOM     15  C   UNL     1      -7.611  15.287  22.886  0.00  0.00    +0.000 A 
ATOM     16  C   UNL     1      -6.696  14.236  23.147  0.00  0.00    +0.000 A 
BRANCH  11  18
ATOM     17  O   UNL     1      -3.124  13.494  23.215  0.00  0.00    +0.000 OA
ATOM     18  S   UNL     1      -4.198  13.424  24.178  0.00  0.00    +0.000 S 
ATOM     19  O   UNL     1      -4.812  12.163  24.552  0.00  0.00    +0.000 OA
BRANCH  18  20
ATOM     20  O   UNL     1      -3.540  13.993  25.539  0.00  0.00    +0.000 OA
ATOM     21  H   UNL     1      -2.644  14.324  25.316  0.00  0.00    +0.000 HD
ENDBRANCH  18  20
ENDBRANCH  11  18
ENDBRANCH   1  16
BRANCH   7  22
ATOM     22  C   UNL     1      -3.816  11.716  17.767  0.00  0.00    +0.000 A 
ATOM     23  C   UNL     1      -4.541  11.123  16.715  0.00  0.00    +0.000 A 
ATOM     24  C   UNL     1      -3.914  10.346  15.738  0.00  0.00    +0.000 A 
ATOM     25  C   UNL     1      -2.545  10.119  15.805  0.00  0.00    +0.000 A 
ATOM     26  C   UNL     1      -1.814  10.644  16.868  0.00  0.00    +0.000 A 
ATOM     27  C   UNL     1      -2.450  11.416  17.856  0.00  0.00    +0.000 A 
BRANCH  27  28
ATOM     28  S   UNL     1      -1.426  12.016  19.180  0.00  0.00    +0.000 S 
ATOM     29  O   UNL     1      -2.082  11.605  20.405  0.00  0.00    +0.000 OA
ATOM     30  O   UNL     1      -0.063  11.621  18.888  0.00  0.00    +0.000 OA
BRANCH  28  31
ATOM     31  O   UNL     1      -1.474  13.627  19.113  0.00  0.00    +0.000 OA
ATOM     32  H   UNL     1      -1.948  13.923  18.304  0.00  0.00    +0.000 HD
ENDBRANCH  28  31
ENDBRANCH  27  28
ENDBRANCH   7  22
TORSDOF 6
ENDMDL
MODEL 8
REMARK VINA RESULT:      -7.0      3.194      8.404
REMARK  Name = 
REMARK  6 active torsions:
REMARK  status: ('A' for Active; 'I' for Inactive)
REMARK    1  A    between atoms: S_2  and  O_4
REMARK    2  A    between atoms: S_2  and  C_5
REMARK    3  A    between atoms: C_10  and  N_11
REMARK    4  A    between atoms: N_17  and  C_18
REMARK    5  A    between atoms: C_23  and  S_24
REMARK    6  A    between atoms: S_24  and  O_27
REMARK                            x       y       z     vdW  Elec       q    Type
REMARK                         _______ _______ _______ _____ _____    ______ ____
ROOT
ATOM      1  N   UNL     1       0.334  10.231  19.419  0.00  0.00    +0.000 N 
ATOM      2  C   UNL     1       1.279   9.268  18.998  0.00  0.00    +0.000 A 
ATOM      3  C   UNL     1       1.854   9.468  17.758  0.00  0.00    +0.000 A 
ATOM      4  C   UNL     1       2.738   8.513  17.341  0.00  0.00    +0.000 A 
ATOM      5  N   UNL     1       3.079   7.467  18.099  0.00  0.00    +0.000 NA
ATOM      6  C   UNL     1       2.517   7.373  19.316  0.00  0.00    +0.000 A 
ATOM      7  N   UNL     1       2.966   6.366  20.198  0.00  0.00    +0.000 N 
ATOM      8  N   UNL     1       1.592   8.220  19.778  0.00  0.00    +0.000 NA
ATOM      9  H   UNL     1      -0.375  10.311  18.694  0.00  0.00    +0.000 HD
ATOM     10  H   UNL     1       2.231   6.262  20.896  0.00  0.00    +0.000 HD
ENDROOT
BRANCH   1  16
ATOM     11  C   UNL     1      -0.845  11.697  21.100  0.00  0.00    +0.000 A 
ATOM     12  C   UNL     1      -1.414  11.774  22.393  0.00  0.00    +0.000 A 
ATOM     13  C   UNL     1      -1.292  10.729  23.299  0.00  0.00    +0.000 A 
ATOM     14  C   UNL     1      -0.587   9.591  22.938  0.00  0.00    +0.000 A 
ATOM     15  C   UNL     1      -0.045   9.496  21.656  0.00  0.00    +0.000 A 
ATOM     16  C   UNL     1      -0.169  10.533  20.699  0.00  0.00    +0.000 A 
BRANCH  11  18
ATOM     17  O   UNL     1       0.099  13.548  19.436  0.00  0.00    +0.000 OA
ATOM     18  S   UNL     1      -1.129  13.107  20.055  0.00  0.00    +0.000 S 
ATOM     19  O   UNL     1      -2.006  14.027  20.756  0.00  0.00    +0.000 OA
BRANCH  18  20
ATOM     20  O   UNL     1      -2.007  12.542  18.823  0.00  0.00    +0.000 OA
ATOM     21  H   UNL     1      -1.573  11.722  18.504  0.00  0.00    +0.000 HD
ENDBRANCH  18  20
ENDBRANCH  11  18
ENDBRANCH   1  16
BRANCH   7  22
ATOM     22  C   UNL     1       3.531   5.147  19.754  0.00  0.00    +0.000 A 
ATOM     23  C   UNL     1       4.733   5.160  19.020  0.00  0.00    +0.000 A 
ATOM     24  C   UNL     1       5.343   3.980  18.587  0.00  0.00    +0.000 A 
ATOM     25  C   UNL     1       4.748   2.754  18.856  0.00  0.00    +0.000 A 
ATOM     26  C   UNL     1       3.529   2.715  19.528  0.00  0.00    +0.000 A 
ATOM     27  C   UNL     1       2.912   3.906  19.952  0.00  0.00    +0.000 A 
BRANCH  27  28
ATOM     28  S   UNL     1       1.347   3.741  20.779  0.00  0.00    +0.000 S 
ATOM     29  O   UNL     1       1.649   3.219  22.097  0.00  0.00    +0.000 OA
ATOM     30  O   UNL     1       0.634   4.992  20.612  0.00  0.00    +0.000 OA
BRANCH  28  31
ATOM     31  O   UNL     1       0.514   2.613  19.982  0.00  0.00    +0.000 OA
ATOM     32  H   UNL     1       1.022   2.301  19.201  0.00  0.00    +0.000 HD
ENDBRANCH  28  31
ENDBRANCH  27  28
ENDBRANCH   7  22
TORSDOF 6
ENDMDL
MODEL 9
REMARK VINA RESULT:      -6.9      2.676      7.775
REMARK  Name = 
REMARK  6 active torsions:
REMARK  status: ('A' for Active; 'I' for Inactive)
REMARK    1  A    between atoms: S_2  and  O_4
REMARK    2  A    between atoms: S_2  and  C_5
REMARK    3  A    between atoms: C_10  and  N_11
REMARK    4  A    between atoms: N_17  and  C_18
REMARK    5  A    between atoms: C_23  and  S_24
REMARK    6  A    between atoms: S_24  and  O_27
REMARK                            x       y       z     vdW  Elec       q    Type
REMARK                         _______ _______ _______ _____ _____    ______ ____
ROOT
ATOM      1  N   UNL     1       0.139  10.141  20.234  0.00  0.00    +0.000 N 
ATOM      2  C   UNL     1       0.961   8.994  20.158  0.00  0.00    +0.000 A 
ATOM      3  C   UNL     1       1.260   8.366  21.351  0.00  0.00    +0.000 A 
ATOM      4  C   UNL     1       2.086   7.282  21.274  0.00  0.00    +0.000 A 
ATOM      5  N   UNL     1       2.547   6.807  20.112  0.00  0.00    +0.000 NA
ATOM      6  C   UNL     1       2.166   7.440  18.990  0.00  0.00    +0.000 A 
ATOM      7  N   UNL     1       2.511   6.879  17.741  0.00  0.00    +0.000 N 
ATOM      8  N   UNL     1       1.418   8.549  18.975  0.00  0.00    +0.000 NA
ATOM      9  H   UNL     1       0.566  10.787  20.892  0.00  0.00    +0.000 HD
ATOM     10  H   UNL     1       2.422   7.636  17.064  0.00  0.00    +0.000 HD
ENDROOT
BRANCH   1  16
ATOM     11  C   UNL     1      -0.289  11.971  18.552  0.00  0.00    +0.000 A 
ATOM     12  C   UNL     1      -1.106  12.415  17.485  0.00  0.00    +0.000 A 
ATOM     13  C   UNL     1      -2.259  11.731  17.126  0.00  0.00    +0.000 A 
ATOM     14  C   UNL     1      -2.630  10.598  17.833  0.00  0.00    +0.000 A 
ATOM     15  C   UNL     1      -1.818  10.138  18.870  0.00  0.00    +0.000 A 
ATOM     16  C   UNL     1      -0.622  10.798  19.249  0.00  0.00    +0.000 A 
BRANCH  11  18
ATOM     17  O   UNL     1       1.863  12.482  20.033  0.00  0.00    +0.000 OA
ATOM     18  S   UNL     1       1.170  12.942  18.852  0.00  0.00    +0.000 S 
ATOM     19  O   UNL     1       0.838  14.341  18.654  0.00  0.00    +0.000 OA
BRANCH  18  20
ATOM     20  O   UNL     1       2.172  12.570  17.641  0.00  0.00    +0.000 OA
ATOM     21  H   UNL     1       2.959  13.151  17.721  0.00  0.00    +0.000 HD
ENDBRANCH  18  20
ENDBRANCH  11  18
ENDBRANCH   1  16
BRANCH   7  22
ATOM     22  C   UNL     1       3.643   6.051  17.553  0.00  0.00    +0.000 A 
ATOM     23  C   UNL     1       4.883   6.629  17.218  0.00  0.00    +0.000 A 
ATOM     24  C   UNL     1       6.033   5.854  17.052  0.00  0.00    +0.000 A 
ATOM     25  C   UNL     1       5.965   4.473  17.190  0.00  0.00    +0.000 A 
ATOM     26  C   UNL     1       4.739   3.871  17.462  0.00  0.00    +0.000 A 
ATOM     27  C   UNL     1       3.581   4.653  17.617  0.00  0.00    +0.000 A 
BRANCH  27  28
ATOM     28  S   UNL     1       2.066   3.779  17.939  0.00  0.00    +0.000 S 
ATOM     29  O   UNL     1       1.059   4.417  17.114  0.00  0.00    +0.000 OA
ATOM     30  O   UNL     1       2.348   2.363  17.819  0.00  0.00    +0.000 OA
BRANCH  28  31
ATOM     31  O   UNL     1       1.687   4.056  19.482  0.00  0.00    +0.000 OA
ATOM     32  H   UNL     1       0.816   3.655  19.698  0.00  0.00    +0.000 HD
ENDBRANCH  28  31
ENDBRANCH  27  28
ENDBRANCH   7  22
TORSDOF 6
ENDMDL
