MODEL 1
REMARK VINA RESULT:      -7.2      0.000      0.000
REMARK  Name = 
REMARK  2 active torsions:
REMARK  status: ('A' for Active; 'I' for Inactive)
REMARK    1  A    between atoms: N_14  and  C_15
REMARK    2  A    between atoms: C_15  and  C_16
REMARK                            x       y       z     vdW  Elec       q    Type
REMARK                         _______ _______ _______ _____ _____    ______ ____
ROOT
ATOM      1 CL   UNL     1       6.632   4.016  14.557  0.00  0.00    +0.000 Cl
ATOM      2  C   UNL     1       5.491   4.705  15.649  0.00  0.00    +0.000 A 
ATOM      3  C   UNL     1       5.329   6.086  15.697  0.00  0.00    +0.000 A 
ATOM      4  C   UNL     1       4.435   6.671  16.605  0.00  0.00    +0.000 A 
ATOM      5  C   UNL     1       3.707   5.825  17.456  0.00  0.00    +0.000 A 
ATOM      6  C   UNL     1       3.828   4.435  17.386  0.00  0.00    +0.000 A 
ATOM      7  C   UNL     1       4.747   3.867  16.476  0.00  0.00    +0.000 A 
ATOM      8  C   UNL     1       2.929   3.867  18.337  0.00  0.00    +0.000 A 
ATOM      9  C   UNL     1       2.606   2.542  18.695  0.00  0.00    +0.000 A 
ATOM     10  C   UNL     1       1.677   2.306  19.710  0.00  0.00    +0.000 A 
ATOM     11  C   UNL     1       1.076   3.366  20.376  0.00  0.00    +0.000 A 
ATOM     12  C   UNL     1       1.387   4.691  20.044  0.00  0.00    +0.000 A 
ATOM     13  C   UNL     1       2.309   4.920  19.013  0.00  0.00    +0.000 A 
ATOM     14  N   UNL     1       2.827   6.098  18.494  0.00  0.00    +0.000 N 
ENDROOT
BRANCH  14  15
ATOM     15  C   UNL     1       2.673   7.403  19.140  0.00  0.00    +0.000 C 
BRANCH  15  16
ATOM     16  C   UNL     1       1.642   8.298  18.524  0.00  0.00    +0.000 C 
ATOM     17  C   UNL     1       1.695   9.808  18.479  0.00  0.00    +0.000 C 
ATOM     18  O   UNL     1       2.152   9.013  17.383  0.00  0.00    +0.000 OA
ENDBRANCH  15  16
ENDBRANCH  14  15
TORSDOF 2
ENDMDL
MODEL 2
REMARK VINA RESULT:      -6.8      2.238      4.307
REMARK  Name = 
REMARK  2 active torsions:
REMARK  status: ('A' for Active; 'I' for Inactive)
REMARK    1  A    between atoms: N_14  and  C_15
REMARK    2  A    between atoms: C_15  and  C_16
REMARK                            x       y       z     vdW  Elec       q    Type
REMARK                         _______ _______ _______ _____ _____    ______ ____
ROOT
ATOM      1 CL   UNL     1       1.475   2.393  21.196  0.00  0.00    +0.000 Cl
ATOM      2  C   UNL     1       2.159   3.715  20.327  0.00  0.00    +0.000 A 
ATOM      3  C   UNL     1       1.930   5.017  20.761  0.00  0.00    +0.000 A 
ATOM      4  C   UNL     1       2.444   6.109  20.048  0.00  0.00    +0.000 A 
ATOM      5  C   UNL     1       3.197   5.851  18.892  0.00  0.00    +0.000 A 
ATOM      6  C   UNL     1       3.470   4.547  18.472  0.00  0.00    +0.000 A 
ATOM      7  C   UNL     1       2.930   3.461  19.195  0.00  0.00    +0.000 A 
ATOM      8  C   UNL     1       4.290   4.623  17.307  0.00  0.00    +0.000 A 
ATOM      9  C   UNL     1       4.885   3.652  16.474  0.00  0.00    +0.000 A 
ATOM     10  C   UNL     1       5.632   4.056  15.367  0.00  0.00    +0.000 A 
ATOM     11  C   UNL     1       5.787   5.404  15.073  0.00  0.00    +0.000 A 
ATOM     12  C   UNL     1       5.200   6.387  15.881  0.00  0.00    +0.000 A 
ATOM     13  C   UNL     1       4.464   5.975  17.001  0.00  0.00    +0.000 A 
ATOM     14  N   UNL     1       3.756   6.701  17.948  0.00  0.00    +0.000 N 
ENDROOT
BRANCH  14  15
ATOM     15  C   UNL     1       3.428   8.120  17.800  0.00  0.00    +0.000 C 
BRANCH  15  16
ATOM     16  C   UNL     1       1.964   8.436  17.789  0.00  0.00    +0.000 C 
ATOM     17  C   UNL     1       1.264   9.418  18.700  0.00  0.00    +0.000 C 
ATOM     18  O   UNL     1       1.703   9.796  17.394  0.00  0.00    +0.000 OA
ENDBRANCH  15  16
ENDBRANCH  14  15
TORSDOF 2
ENDMDL
MODEL 3
REMARK VINA RESULT:      -6.8      2.891      4.562
REMARK  Name = 
REMARK  2 active torsions:
REMARK  status: ('A' for Active; 'I' for Inactive)
REMARK    1  A    between atoms: N_14  and  C_15
REMARK    2  A    between atoms: C_15  and  C_16
REMARK                            x       y       z     vdW  Elec       q    Type
REMARK                         _______ _______ _______ _____ _____    ______ ____
ROOT
ATOM      1 CL   UNL     1       0.816   9.909  19.403  0.00  0.00    +0.000 Cl
ATOM      2  C   UNL     1       1.806   8.555  19.011  0.00  0.00    +0.000 A 
ATOM      3  C   UNL     1       2.656   8.617  17.911  0.00  0.00    +0.000 A 
ATOM      4  C   UNL     1       3.442   7.514  17.550  0.00  0.00    +0.000 A 
ATOM      5  C   UNL     1       3.352   6.351  18.332  0.00  0.00    +0.000 A 
ATOM      6  C   UNL     1       2.536   6.293  19.465  0.00  0.00    +0.000 A 
ATOM      7  C   UNL     1       1.740   7.410  19.801  0.00  0.00    +0.000 A 
ATOM      8  C   UNL     1       2.703   5.007  20.061  0.00  0.00    +0.000 A 
ATOM      9  C   UNL     1       2.165   4.394  21.211  0.00  0.00    +0.000 A 
ATOM     10  C   UNL     1       2.516   3.080  21.523  0.00  0.00    +0.000 A 
ATOM     11  C   UNL     1       3.383   2.368  20.704  0.00  0.00    +0.000 A 
ATOM     12  C   UNL     1       3.924   2.952  19.551  0.00  0.00    +0.000 A 
ATOM     13  C   UNL     1       3.579   4.278  19.253  0.00  0.00    +0.000 A 
ATOM     14  N   UNL     1       3.926   5.096  18.187  0.00  0.00    +0.000 N 
ENDROOT
BRANCH  14  15
ATOM     15  C   UNL     1       4.569   4.605  16.967  0.00  0.00    +0.000 C 
BRANCH  15  16
ATOM     16  C   UNL     1       6.013   4.972  16.819  0.00  0.00    +0.000 C 
ATOM     17  C   UNL     1       6.879   4.685  15.614  0.00  0.00    +0.000 C 
ATOM     18  O   UNL     1       6.224   5.944  15.778  0.00  0.00    +0.000 OA
ENDBRANCH  15  16
ENDBRANCH  14  15
TORSDOF 2
ENDMDL
MODEL 4
REMARK VINA RESULT:      -6.8      1.892      4.115
REMARK  Name = 
REMARK  2 active torsions:
REMARK  status: ('A' for Active; 'I' for Inactive)
REMARK    1  A    between atoms: N_14  and  C_15
REMARK    2  A    between atoms: C_15  and  C_16
REMARK                            x       y       z     vdW  Elec       q    Type
REMARK                         _______ _______ _______ _____ _____    ______ ____
ROOT
ATOM      1 CL   UNL     1       6.528   5.201  14.744  0.00  0.00    +0.000 Cl
ATOM      2  C   UNL     1       5.660   5.331  16.227  0.00  0.00    +0.000 A 
ATOM      3  C   UNL     1       5.838   4.370  17.217  0.00  0.00    +0.000 A 
ATOM      4  C   UNL     1       5.113   4.435  18.415  0.00  0.00    +0.000 A 
ATOM      5  C   UNL     1       4.212   5.497  18.589  0.00  0.00    +0.000 A 
ATOM      6  C   UNL     1       4.058   6.492  17.621  0.00  0.00    +0.000 A 
ATOM      7  C   UNL     1       4.786   6.399  16.413  0.00  0.00    +0.000 A 
ATOM      8  C   UNL     1       3.116   7.443  18.114  0.00  0.00    +0.000 A 
ATOM      9  C   UNL     1       2.592   8.646  17.597  0.00  0.00    +0.000 A 
ATOM     10  C   UNL     1       1.640   9.357  18.330  0.00  0.00    +0.000 A 
ATOM     11  C   UNL     1       1.200   8.885  19.560  0.00  0.00    +0.000 A 
ATOM     12  C   UNL     1       1.700   7.688  20.090  0.00  0.00    +0.000 A 
ATOM     13  C   UNL     1       2.667   6.988  19.355  0.00  0.00    +0.000 A 
ATOM     14  N   UNL     1       3.310   5.784  19.604  0.00  0.00    +0.000 N 
ENDROOT
BRANCH  14  15
ATOM     15  C   UNL     1       2.888   4.840  20.641  0.00  0.00    +0.000 C 
BRANCH  15  16
ATOM     16  C   UNL     1       2.048   3.699  20.157  0.00  0.00    +0.000 C 
ATOM     17  C   UNL     1       1.239   2.764  21.026  0.00  0.00    +0.000 C 
ATOM     18  O   UNL     1       0.646   3.909  20.409  0.00  0.00    +0.000 OA
ENDBRANCH  15  16
ENDBRANCH  14  15
TORSDOF 2
ENDMDL
MODEL 5
REMARK VINA RESULT:      -6.6      3.380      5.421
REMARK  Name = 
REMARK  2 active torsions:
REMARK  status: ('A' for Active; 'I' for Inactive)
REMARK    1  A    between atoms: N_14  and  C_15
REMARK    2  A    between atoms: C_15  and  C_16
REMARK                            x       y       z     vdW  Elec       q    Type
REMARK                         _______ _______ _______ _____ _____    ______ ____
ROOT
ATOM      1 CL   UNL     1       1.122   3.166  18.971  0.00  0.00    +0.000 Cl
ATOM      2  C   UNL     1       2.730   3.664  18.604  0.00  0.00    +0.000 A 
ATOM      3  C   UNL     1       3.562   4.117  19.624  0.00  0.00    +0.000 A 
ATOM      4  C   UNL     1       4.860   4.564  19.343  0.00  0.00    +0.000 A 
ATOM      5  C   UNL     1       5.298   4.535  18.009  0.00  0.00    +0.000 A 
ATOM      6  C   UNL     1       4.488   4.040  16.984  0.00  0.00    +0.000 A 
ATOM      7  C   UNL     1       3.177   3.611  17.286  0.00  0.00    +0.000 A 
ATOM      8  C   UNL     1       5.233   4.100  15.769  0.00  0.00    +0.000 A 
ATOM      9  C   UNL     1       4.949   3.727  14.438  0.00  0.00    +0.000 A 
ATOM     10  C   UNL     1       5.902   3.941  13.442  0.00  0.00    +0.000 A 
ATOM     11  C   UNL     1       7.125   4.526  13.749  0.00  0.00    +0.000 A 
ATOM     12  C   UNL     1       7.426   4.912  15.061  0.00  0.00    +0.000 A 
ATOM     13  C   UNL     1       6.469   4.680  16.059  0.00  0.00    +0.000 A 
ATOM     14  N   UNL     1       6.471   4.977  17.415  0.00  0.00    +0.000 N 
ENDROOT
BRANCH  14  15
ATOM     15  C   UNL     1       7.446   5.868  18.047  0.00  0.00    +0.000 C 
BRANCH  15  16
ATOM     16  C   UNL     1       7.162   7.330  17.897  0.00  0.00    +0.000 C 
ATOM     17  C   UNL     1       8.160   8.449  18.083  0.00  0.00    +0.000 C 
ATOM     18  O   UNL     1       7.875   7.913  16.790  0.00  0.00    +0.000 OA
ENDBRANCH  15  16
ENDBRANCH  14  15
TORSDOF 2
ENDMDL
MODEL 6
REMARK VINA RESULT:      -6.6      2.927      4.347
REMARK  Name = 
REMARK  2 active torsions:
REMARK  status: ('A' for Active; 'I' for Inactive)
REMARK    1  A    between atoms: N_14  and  C_15
REMARK    2  A    between atoms: C_15  and  C_16
REMARK                            x       y       z     vdW  Elec       q    Type
REMARK                         _______ _______ _______ _____ _____    ______ ____
ROOT
ATOM      1 CL   UNL     1       1.057   9.408  18.137  0.00  0.00    +0.000 Cl
ATOM      2  C   UNL     1       2.132   8.073  17.954  0.00  0.00    +0.000 A 
ATOM      3  C   UNL     1       3.428   8.290  17.499  0.00  0.00    +0.000 A 
ATOM      4  C   UNL     1       4.307   7.215  17.305  0.00  0.00    +0.000 A 
ATOM      5  C   UNL     1       3.845   5.920  17.589  0.00  0.00    +0.000 A 
ATOM      6  C   UNL     1       2.560   5.695  18.089  0.00  0.00    +0.000 A 
ATOM      7  C   UNL     1       1.684   6.790  18.261  0.00  0.00    +0.000 A 
ATOM      8  C   UNL     1       2.416   4.295  18.317  0.00  0.00    +0.000 A 
ATOM      9  C   UNL     1       1.369   3.497  18.823  0.00  0.00    +0.000 A 
ATOM     10  C   UNL     1       1.531   2.113  18.903  0.00  0.00    +0.000 A 
ATOM     11  C   UNL     1       2.711   1.515  18.480  0.00  0.00    +0.000 A 
ATOM     12  C   UNL     1       3.762   2.285  17.966  0.00  0.00    +0.000 A 
ATOM     13  C   UNL     1       3.598   3.676  17.903  0.00  0.00    +0.000 A 
ATOM     14  N   UNL     1       4.434   4.675  17.423  0.00  0.00    +0.000 N 
ENDROOT
BRANCH  14  15
ATOM     15  C   UNL     1       5.627   4.413  16.617  0.00  0.00    +0.000 C 
BRANCH  15  16
ATOM     16  C   UNL     1       6.918   4.403  17.376  0.00  0.00    +0.000 C 
ATOM     17  C   UNL     1       7.526   5.580  18.103  0.00  0.00    +0.000 C 
ATOM     18  O   UNL     1       6.721   4.618  18.786  0.00  0.00    +0.000 OA
ENDBRANCH  15  16
ENDBRANCH  14  15
TORSDOF 2
ENDMDL
MODEL 7
REMARK VINA RESULT:      -6.6      2.798      5.142
REMARK  Name = 
REMARK  2 active torsions:
REMARK  status: ('A' for Active; 'I' for Inactive)
REMARK    1  A    between atoms: N_14  and  C_15
REMARK    2  A    between atoms: C_15  and  C_16
REMARK                            x       y       z     vdW  Elec       q    Type
REMARK                         _______ _______ _______ _____ _____    ______ ____
ROOT
ATOM      1 CL   UNL     1       2.134   2.412  21.948  0.00  0.00    +0.000 Cl
ATOM      2  C   UNL     1       2.599   3.414  20.626  0.00  0.00    +0.000 A 
ATOM      3  C   UNL     1       3.412   2.897  19.622  0.00  0.00    +0.000 A 
ATOM      4  C   UNL     1       3.834   3.703  18.557  0.00  0.00    +0.000 A 
ATOM      5  C   UNL     1       3.410   5.042  18.529  0.00  0.00    +0.000 A 
ATOM      6  C   UNL     1       2.558   5.559  19.508  0.00  0.00    +0.000 A 
ATOM      7  C   UNL     1       2.157   4.734  20.581  0.00  0.00    +0.000 A 
ATOM      8  C   UNL     1       2.278   6.917  19.172  0.00  0.00    +0.000 A 
ATOM      9  C   UNL     1       1.480   7.918  19.765  0.00  0.00    +0.000 A 
ATOM     10  C   UNL     1       1.429   9.190  19.194  0.00  0.00    +0.000 A 
ATOM     11  C   UNL     1       2.165   9.482  18.053  0.00  0.00    +0.000 A 
ATOM     12  C   UNL     1       2.972   8.507  17.451  0.00  0.00    +0.000 A 
ATOM     13  C   UNL     1       3.005   7.227  18.021  0.00  0.00    +0.000 A 
ATOM     14  N   UNL     1       3.720   6.089  17.673  0.00  0.00    +0.000 N 
ENDROOT
BRANCH  14  15
ATOM     15  C   UNL     1       4.832   6.092  16.721  0.00  0.00    +0.000 C 
BRANCH  15  16
ATOM     16  C   UNL     1       6.160   6.476  17.295  0.00  0.00    +0.000 C 
ATOM     17  C   UNL     1       7.301   5.531  17.595  0.00  0.00    +0.000 C 
ATOM     18  O   UNL     1       7.239   6.259  16.367  0.00  0.00    +0.000 OA
ENDBRANCH  15  16
ENDBRANCH  14  15
TORSDOF 2
ENDMDL
MODEL 8
REMARK VINA RESULT:      -6.5      2.889      4.366
REMARK  Name = 
REMARK  2 active torsions:
REMARK  status: ('A' for Active; 'I' for Inactive)
REMARK    1  A    between atoms: N_14  and  C_15
REMARK    2  A    between atoms: C_15  and  C_16
REMARK                            x       y       z     vdW  Elec       q    Type
REMARK                         _______ _______ _______ _____ _____    ______ ____
ROOT
ATOM      1 CL   UNL     1       1.181   9.686  17.889  0.00  0.00    +0.000 Cl
ATOM      2  C   UNL     1       2.204   8.313  18.087  0.00  0.00    +0.000 A 
ATOM      3  C   UNL     1       3.402   8.239  17.385  0.00  0.00    +0.000 A 
ATOM      4  C   UNL     1       4.231   7.115  17.500  0.00  0.00    +0.000 A 
ATOM      5  C   UNL     1       3.821   6.073  18.348  0.00  0.00    +0.000 A 
ATOM      6  C   UNL     1       2.642   6.156  19.092  0.00  0.00    +0.000 A 
ATOM      7  C   UNL     1       1.813   7.290  18.948  0.00  0.00    +0.000 A 
ATOM      8  C   UNL     1       2.536   4.972  19.881  0.00  0.00    +0.000 A 
ATOM      9  C   UNL     1       1.591   4.516  20.823  0.00  0.00    +0.000 A 
ATOM     10  C   UNL     1       1.760   3.267  21.423  0.00  0.00    +0.000 A 
ATOM     11  C   UNL     1       2.847   2.467  21.094  0.00  0.00    +0.000 A 
ATOM     12  C   UNL     1       3.795   2.895  20.155  0.00  0.00    +0.000 A 
ATOM     13  C   UNL     1       3.626   4.157  19.568  0.00  0.00    +0.000 A 
ATOM     14  N   UNL     1       4.369   4.824  18.604  0.00  0.00    +0.000 N 
ENDROOT
BRANCH  14  15
ATOM     15  C   UNL     1       5.404   4.181  17.792  0.00  0.00    +0.000 C 
BRANCH  15  16
ATOM     16  C   UNL     1       4.995   3.844  16.391  0.00  0.00    +0.000 C 
ATOM     17  C   UNL     1       5.366   4.622  15.150  0.00  0.00    +0.000 C 
ATOM     18  O   UNL     1       6.119   3.482  15.568  0.00  0.00    +0.000 OA
ENDBRANCH  15  16
ENDBRANCH  14  15
TORSDOF 2
ENDMDL
MODEL 9
REMARK VINA RESULT:      -6.5      2.936      5.374
REMARK  Name = 
REMARK  2 active torsions:
REMARK  status: ('A' for Active; 'I' for Inactive)
REMARK    1  A    between atoms: N_14  and  C_15
REMARK    2  A    between atoms: C_15  and  C_16
REMARK                            x       y       z     vdW  Elec       q    Type
REMARK                         _______ _______ _______ _____ _____    ______ ____
ROOT
ATOM      1 CL   UNL     1       1.269  10.804  18.770  0.00  0.00    +0.000 Cl
ATOM      2  C   UNL     1       1.768   9.162  18.925  0.00  0.00    +0.000 A 
ATOM      3  C   UNL     1       1.282   8.391  19.976  0.00  0.00    +0.000 A 
ATOM      4  C   UNL     1       1.704   7.065  20.144  0.00  0.00    +0.000 A 
ATOM      5  C   UNL     1       2.622   6.538  19.221  0.00  0.00    +0.000 A 
ATOM      6  C   UNL     1       3.081   7.289  18.137  0.00  0.00    +0.000 A 
ATOM      7  C   UNL     1       2.656   8.629  17.995  0.00  0.00    +0.000 A 
ATOM      8  C   UNL     1       3.953   6.462  17.368  0.00  0.00    +0.000 A 
ATOM      9  C   UNL     1       4.681   6.665  16.177  0.00  0.00    +0.000 A 
ATOM     10  C   UNL     1       5.485   5.640  15.676  0.00  0.00    +0.000 A 
ATOM     11  C   UNL     1       5.581   4.426  16.345  0.00  0.00    +0.000 A 
ATOM     12  C   UNL     1       4.874   4.205  17.534  0.00  0.00    +0.000 A 
ATOM     13  C   UNL     1       4.056   5.233  18.023  0.00  0.00    +0.000 A 
ATOM     14  N   UNL     1       3.276   5.316  19.168  0.00  0.00    +0.000 N 
ENDROOT
BRANCH  14  15
ATOM     15  C   UNL     1       3.362   4.362  20.276  0.00  0.00    +0.000 C 
BRANCH  15  16
ATOM     16  C   UNL     1       2.303   3.304  20.287  0.00  0.00    +0.000 C 
ATOM     17  C   UNL     1       1.654   2.715  21.518  0.00  0.00    +0.000 C 
ATOM     18  O   UNL     1       1.050   3.793  20.800  0.00  0.00    +0.000 OA
ENDBRANCH  15  16
ENDBRANCH  14  15
TORSDOF 2
ENDMDL
