MODEL 1
REMARK VINA RESULT:      -9.9      0.000      0.000
REMARK  Name = 
REMARK  6 active torsions:
REMARK  status: ('A' for Active; 'I' for Inactive)
REMARK    1  A    between atoms: C_2  and  C_22
REMARK    2  A    between atoms: N_3  and  C_4
REMARK    3  A    between atoms: C_7  and  O_9
REMARK    4  A    between atoms: O_9  and  C_10
REMARK    5  A    between atoms: C_10  and  C_11
REMARK    6  A    between atoms: C_28  and  C_29
REMARK                            x       y       z     vdW  Elec       q    Type
REMARK                         _______ _______ _______ _____ _____    ______ ____
ROOT
ATOM      1  O   UNL     1       2.350   8.043  18.305  0.00  0.00    +0.000 OA
ATOM      2  C   UNL     1       1.891   7.909  19.437  0.00  0.00    +0.000 C 
ATOM      3  N   UNL     1       1.961   6.703  20.099  0.00  0.00    +0.000 N 
ATOM      4  H   UNL     1       1.438   6.544  20.947  0.00  0.00    +0.000 HD
ENDROOT
BRANCH   3   5
ATOM      5  C   UNL     1       2.596   5.551  19.436  0.00  0.00    +0.000 C 
ATOM      6  C   UNL     1       4.109   5.474  19.717  0.00  0.00    +0.000 C 
ATOM      7  N   UNL     1       4.857   4.772  18.669  0.00  0.00    +0.000 N 
ATOM      8  C   UNL     1       5.452   5.504  17.653  0.00  0.00    +0.000 C 
ATOM      9  O   UNL     1       5.384   6.724  17.576  0.00  0.00    +0.000 OA
ATOM     10  C   UNL     1       4.753   3.313  18.655  0.00  0.00    +0.000 C 
ATOM     11  C   UNL     1       3.330   2.847  18.330  0.00  0.00    +0.000 C 
ATOM     12  N   UNL     1       2.389   3.044  19.416  0.00  0.00    +0.000 N 
ATOM     13  C   UNL     1       1.868   4.240  19.830  0.00  0.00    +0.000 C 
ATOM     14  O   UNL     1       0.796   4.207  20.439  0.00  0.00    +0.000 OA
ATOM     15  H   UNL     1       1.816   2.259  19.707  0.00  0.00    +0.000 HD
BRANCH   8  16
ATOM     16  O   UNL     1       6.106   4.720  16.757  0.00  0.00    +0.000 OA
BRANCH  16  17
ATOM     17  C   UNL     1       6.944   5.388  15.802  0.00  0.00    +0.000 C 
BRANCH  17  18
ATOM     18  C   UNL     1       6.721   4.807  14.427  0.00  0.00    +0.000 A 
ATOM     19  C   UNL     1       7.651   5.015  13.395  0.00  0.00    +0.000 A 
ATOM     20  C   UNL     1       7.460   4.436  12.138  0.00  0.00    +0.000 A 
ATOM     21  C   UNL     1       6.341   3.641  11.896  0.00  0.00    +0.000 A 
ATOM     22  C   UNL     1       5.414   3.428  12.914  0.00  0.00    +0.000 A 
ATOM     23  C   UNL     1       5.601   4.003  14.173  0.00  0.00    +0.000 A 
ENDBRANCH  17  18
ENDBRANCH  16  17
ENDBRANCH   8  16
ENDBRANCH   3   5
BRANCH   2  24
ATOM     24  C   UNL     1       1.161   9.045  20.066  0.00  0.00    +0.000 A 
ATOM     25  C   UNL     1       1.286   9.474  21.392  0.00  0.00    +0.000 A 
ATOM     26  C   UNL     1       0.462  10.500  21.905  0.00  0.00    +0.000 A 
ATOM     27  C   UNL     1      -0.516  11.031  21.053  0.00  0.00    +0.000 A 
ATOM     28  N   UNL     1      -1.496  11.974  21.225  0.00  0.00    +0.000 N 
ATOM     29  N   UNL     1      -2.290  12.155  20.150  0.00  0.00    +0.000 NA
ATOM     30  C   UNL     1      -1.823  11.280  19.244  0.00  0.00    +0.000 A 
ATOM     31  C   UNL     1      -0.665  10.615  19.741  0.00  0.00    +0.000 A 
ATOM     32  C   UNL     1       0.224   9.662  19.228  0.00  0.00    +0.000 A 
ATOM     33  H   UNL     1      -1.699  12.509  22.061  0.00  0.00    +0.000 HD
BRANCH  30  34
ATOM     34  C   UNL     1      -2.499  11.017  17.973  0.00  0.00    +0.000 A 
ATOM     35  C   UNL     1      -1.927  10.202  17.000  0.00  0.00    +0.000 A 
ATOM     36  C   UNL     1      -2.624  10.007  15.819  0.00  0.00    +0.000 A 
ATOM     37  N   UNL     1      -3.831  10.553  15.549  0.00  0.00    +0.000 NA
ATOM     38  C   UNL     1      -4.364  11.341  16.501  0.00  0.00    +0.000 A 
ATOM     39  C   UNL     1      -3.742  11.606  17.707  0.00  0.00    +0.000 A 
ENDBRANCH  30  34
ENDBRANCH   2  24
TORSDOF 6
ENDMDL
MODEL 2
REMARK VINA RESULT:      -9.3      2.654      3.112
REMARK  Name = 
REMARK  6 active torsions:
REMARK  status: ('A' for Active; 'I' for Inactive)
REMARK    1  A    between atoms: C_2  and  C_22
REMARK    2  A    between atoms: N_3  and  C_4
REMARK    3  A    between atoms: C_7  and  O_9
REMARK    4  A    between atoms: O_9  and  C_10
REMARK    5  A    between atoms: C_10  and  C_11
REMARK    6  A    between atoms: C_28  and  C_29
REMARK                            x       y       z     vdW  Elec       q    Type
REMARK                         _______ _______ _______ _____ _____    ______ ____
ROOT
ATOM      1  O   UNL     1       1.996   7.667  18.983  0.00  0.00    +0.000 OA
ATOM      2  C   UNL     1       1.691   7.399  20.143  0.00  0.00    +0.000 C 
ATOM      3  N   UNL     1       1.874   6.136  20.658  0.00  0.00    +0.000 N 
ATOM      4  H   UNL     1       1.470   5.871  21.543  0.00  0.00    +0.000 HD
ENDROOT
BRANCH   3   5
ATOM      5  C   UNL     1       2.445   5.083  19.800  0.00  0.00    +0.000 C 
ATOM      6  C   UNL     1       3.986   5.106  19.789  0.00  0.00    +0.000 C 
ATOM      7  N   UNL     1       4.564   4.534  18.569  0.00  0.00    +0.000 N 
ATOM      8  C   UNL     1       4.907   5.375  17.521  0.00  0.00    +0.000 C 
ATOM      9  O   UNL     1       4.747   6.588  17.554  0.00  0.00    +0.000 OA
ATOM     10  C   UNL     1       4.554   3.075  18.459  0.00  0.00    +0.000 C 
ATOM     11  C   UNL     1       3.129   2.522  18.367  0.00  0.00    +0.000 C 
ATOM     12  N   UNL     1       2.400   2.574  19.621  0.00  0.00    +0.000 N 
ATOM     13  C   UNL     1       1.891   3.695  20.217  0.00  0.00    +0.000 C 
ATOM     14  O   UNL     1       0.959   3.539  21.010  0.00  0.00    +0.000 OA
ATOM     15  H   UNL     1       1.945   1.728  19.950  0.00  0.00    +0.000 HD
BRANCH   8  16
ATOM     16  O   UNL     1       5.427   4.705  16.460  0.00  0.00    +0.000 OA
BRANCH  16  17
ATOM     17  C   UNL     1       6.643   5.223  15.899  0.00  0.00    +0.000 C 
BRANCH  17  18
ATOM     18  C   UNL     1       6.750   4.823  14.448  0.00  0.00    +0.000 A 
ATOM     19  C   UNL     1       7.692   5.429  13.599  0.00  0.00    +0.000 A 
ATOM     20  C   UNL     1       7.817   5.021  12.269  0.00  0.00    +0.000 A 
ATOM     21  C   UNL     1       7.006   4.003  11.770  0.00  0.00    +0.000 A 
ATOM     22  C   UNL     1       6.069   3.397  12.604  0.00  0.00    +0.000 A 
ATOM     23  C   UNL     1       5.942   3.799  13.935  0.00  0.00    +0.000 A 
ENDBRANCH  17  18
ENDBRANCH  16  17
ENDBRANCH   8  16
ENDBRANCH   3   5
BRANCH   2  24
ATOM     24  C   UNL     1       1.022   8.437  20.977  0.00  0.00    +0.000 A 
ATOM     25  C   UNL     1      -0.035   8.223  21.869  0.00  0.00    +0.000 A 
ATOM     26  C   UNL     1      -0.659   9.305  22.529  0.00  0.00    +0.000 A 
ATOM     27  C   UNL     1      -0.213  10.596  22.218  0.00  0.00    +0.000 A 
ATOM     28  N   UNL     1      -0.611  11.846  22.616  0.00  0.00    +0.000 N 
ATOM     29  N   UNL     1       0.049  12.859  22.018  0.00  0.00    +0.000 NA
ATOM     30  C   UNL     1       0.901  12.247  21.180  0.00  0.00    +0.000 A 
ATOM     31  C   UNL     1       0.824  10.832  21.332  0.00  0.00    +0.000 A 
ATOM     32  C   UNL     1       1.487   9.739  20.759  0.00  0.00    +0.000 A 
ATOM     33  H   UNL     1      -1.349  12.080  23.270  0.00  0.00    +0.000 HD
BRANCH  30  34
ATOM     34  C   UNL     1       1.708  12.974  20.199  0.00  0.00    +0.000 A 
ATOM     35  C   UNL     1       2.655  13.916  20.591  0.00  0.00    +0.000 A 
ATOM     36  C   UNL     1       3.374  14.570  19.604  0.00  0.00    +0.000 A 
ATOM     37  N   UNL     1       3.222  14.349  18.279  0.00  0.00    +0.000 NA
ATOM     38  C   UNL     1       2.299  13.436  17.922  0.00  0.00    +0.000 A 
ATOM     39  C   UNL     1       1.523  12.741  18.830  0.00  0.00    +0.000 A 
ENDBRANCH  30  34
ENDBRANCH   2  24
TORSDOF 6
ENDMDL
MODEL 3
REMARK VINA RESULT:      -9.2      3.074     10.772
REMARK  Name = 
REMARK  6 active torsions:
REMARK  status: ('A' for Active; 'I' for Inactive)
REMARK    1  A    between atoms: C_2  and  C_22
REMARK    2  A    between atoms: N_3  and  C_4
REMARK    3  A    between atoms: C_7  and  O_9
REMARK    4  A    between atoms: O_9  and  C_10
REMARK    5  A    between atoms: C_10  and  C_11
REMARK    6  A    between atoms: C_28  and  C_29
REMARK                            x       y       z     vdW  Elec       q    Type
REMARK                         _______ _______ _______ _____ _____    ______ ____
ROOT
ATOM      1  O   UNL     1       0.230   7.234  21.131  0.00  0.00    +0.000 OA
ATOM      2  C   UNL     1       1.259   7.037  20.488  0.00  0.00    +0.000 C 
ATOM      3  N   UNL     1       1.820   8.029  19.715  0.00  0.00    +0.000 N 
ATOM      4  H   UNL     1       2.557   7.823  19.058  0.00  0.00    +0.000 HD
ENDROOT
BRANCH   3   5
ATOM      5  C   UNL     1       1.174   9.352  19.657  0.00  0.00    +0.000 C 
ATOM      6  C   UNL     1       1.515  10.226  20.880  0.00  0.00    +0.000 C 
ATOM      7  N   UNL     1       0.493  11.235  21.172  0.00  0.00    +0.000 N 
ATOM      8  C   UNL     1      -0.492  10.953  22.107  0.00  0.00    +0.000 C 
ATOM      9  O   UNL     1      -0.562   9.888  22.708  0.00  0.00    +0.000 OA
ATOM     10  C   UNL     1       0.462  12.410  20.302  0.00  0.00    +0.000 C 
ATOM     11  C   UNL     1       0.075  12.043  18.865  0.00  0.00    +0.000 C 
ATOM     12  N   UNL     1       1.124  11.355  18.136  0.00  0.00    +0.000 N 
ATOM     13  C   UNL     1       1.527  10.060  18.324  0.00  0.00    +0.000 C 
ATOM     14  O   UNL     1       2.092   9.504  17.379  0.00  0.00    +0.000 OA
ATOM     15  H   UNL     1       1.385  11.705  17.220  0.00  0.00    +0.000 HD
BRANCH   8  16
ATOM     16  O   UNL     1      -1.368  11.978  22.271  0.00  0.00    +0.000 OA
BRANCH  16  17
ATOM     17  C   UNL     1      -2.002  12.089  23.554  0.00  0.00    +0.000 C 
BRANCH  17  18
ATOM     18  C   UNL     1      -3.463  12.425  23.377  0.00  0.00    +0.000 A 
ATOM     19  C   UNL     1      -3.992  12.698  22.104  0.00  0.00    +0.000 A 
ATOM     20  C   UNL     1      -5.355  12.962  21.942  0.00  0.00    +0.000 A 
ATOM     21  C   UNL     1      -6.205  12.956  23.046  0.00  0.00    +0.000 A 
ATOM     22  C   UNL     1      -5.690  12.685  24.312  0.00  0.00    +0.000 A 
ATOM     23  C   UNL     1      -4.329  12.418  24.479  0.00  0.00    +0.000 A 
ENDBRANCH  17  18
ENDBRANCH  16  17
ENDBRANCH   8  16
ENDBRANCH   3   5
BRANCH   2  24
ATOM     24  C   UNL     1       1.855   5.672  20.468  0.00  0.00    +0.000 A 
ATOM     25  C   UNL     1       1.482   4.596  21.281  0.00  0.00    +0.000 A 
ATOM     26  C   UNL     1       2.193   3.376  21.244  0.00  0.00    +0.000 A 
ATOM     27  C   UNL     1       3.311   3.304  20.402  0.00  0.00    +0.000 A 
ATOM     28  N   UNL     1       4.239   2.325  20.158  0.00  0.00    +0.000 N 
ATOM     29  N   UNL     1       5.220   2.686  19.305  0.00  0.00    +0.000 NA
ATOM     30  C   UNL     1       4.933   3.960  18.993  0.00  0.00    +0.000 A 
ATOM     31  C   UNL     1       3.704   4.359  19.595  0.00  0.00    +0.000 A 
ATOM     32  C   UNL     1       2.930   5.526  19.582  0.00  0.00    +0.000 A 
ATOM     33  H   UNL     1       4.280   1.398  20.565  0.00  0.00    +0.000 HD
BRANCH  30  34
ATOM     34  C   UNL     1       5.835   4.809  18.215  0.00  0.00    +0.000 A 
ATOM     35  C   UNL     1       6.703   5.706  18.832  0.00  0.00    +0.000 A 
ATOM     36  C   UNL     1       7.521   6.483  18.027  0.00  0.00    +0.000 A 
ATOM     37  N   UNL     1       7.538   6.423  16.677  0.00  0.00    +0.000 NA
ATOM     38  C   UNL     1       6.689   5.551  16.101  0.00  0.00    +0.000 A 
ATOM     39  C   UNL     1       5.825   4.743  16.816  0.00  0.00    +0.000 A 
ENDBRANCH  30  34
ENDBRANCH   2  24
TORSDOF 6
ENDMDL
MODEL 4
REMARK VINA RESULT:      -9.0      3.429      9.709
REMARK  Name = 
REMARK  6 active torsions:
REMARK  status: ('A' for Active; 'I' for Inactive)
REMARK    1  A    between atoms: C_2  and  C_22
REMARK    2  A    between atoms: N_3  and  C_4
REMARK    3  A    between atoms: C_7  and  O_9
REMARK    4  A    between atoms: O_9  and  C_10
REMARK    5  A    between atoms: C_10  and  C_11
REMARK    6  A    between atoms: C_28  and  C_29
REMARK                            x       y       z     vdW  Elec       q    Type
REMARK                         _______ _______ _______ _____ _____    ______ ____
ROOT
ATOM      1  O   UNL     1       1.952   8.305  19.303  0.00  0.00    +0.000 OA
ATOM      2  C   UNL     1       1.587   7.577  20.223  0.00  0.00    +0.000 C 
ATOM      3  N   UNL     1       0.852   8.071  21.278  0.00  0.00    +0.000 N 
ATOM      4  H   UNL     1       0.702   7.521  22.110  0.00  0.00    +0.000 HD
ENDROOT
BRANCH   3   5
ATOM      5  C   UNL     1       0.499   9.500  21.304  0.00  0.00    +0.000 C 
ATOM      6  C   UNL     1      -0.344   9.919  20.084  0.00  0.00    +0.000 C 
ATOM      7  N   UNL     1      -0.215  11.341  19.752  0.00  0.00    +0.000 N 
ATOM      8  C   UNL     1       0.706  11.733  18.791  0.00  0.00    +0.000 C 
ATOM      9  O   UNL     1       1.433  10.946  18.198  0.00  0.00    +0.000 OA
ATOM     10  C   UNL     1      -0.931  12.284  20.610  0.00  0.00    +0.000 C 
ATOM     11  C   UNL     1      -0.376  12.289  22.038  0.00  0.00    +0.000 C 
ATOM     12  N   UNL     1      -0.725  11.107  22.804  0.00  0.00    +0.000 N 
ATOM     13  C   UNL     1      -0.205   9.852  22.641  0.00  0.00    +0.000 C 
ATOM     14  O   UNL     1      -0.264   9.088  23.607  0.00  0.00    +0.000 OA
ATOM     15  H   UNL     1      -1.135  11.232  23.724  0.00  0.00    +0.000 HD
BRANCH   8  16
ATOM     16  O   UNL     1       0.715  13.076  18.591  0.00  0.00    +0.000 OA
BRANCH  16  17
ATOM     17  C   UNL     1       1.905  13.781  18.976  0.00  0.00    +0.000 C 
BRANCH  17  18
ATOM     18  C   UNL     1       1.878  15.180  18.412  0.00  0.00    +0.000 A 
ATOM     19  C   UNL     1       0.804  16.046  18.679  0.00  0.00    +0.000 A 
ATOM     20  C   UNL     1       0.808  17.356  18.191  0.00  0.00    +0.000 A 
ATOM     21  C   UNL     1       1.883  17.818  17.435  0.00  0.00    +0.000 A 
ATOM     22  C   UNL     1       2.953  16.967  17.166  0.00  0.00    +0.000 A 
ATOM     23  C   UNL     1       2.955  15.658  17.653  0.00  0.00    +0.000 A 
ENDBRANCH  17  18
ENDBRANCH  16  17
ENDBRANCH   8  16
ENDBRANCH   3   5
BRANCH   2  24
ATOM     24  C   UNL     1       2.030   6.154  20.246  0.00  0.00    +0.000 A 
ATOM     25  C   UNL     1       1.604   5.172  21.147  0.00  0.00    +0.000 A 
ATOM     26  C   UNL     1       2.175   3.880  21.136  0.00  0.00    +0.000 A 
ATOM     27  C   UNL     1       3.213   3.639  20.226  0.00  0.00    +0.000 A 
ATOM     28  N   UNL     1       4.010   2.551  19.982  0.00  0.00    +0.000 N 
ATOM     29  N   UNL     1       4.959   2.754  19.044  0.00  0.00    +0.000 NA
ATOM     30  C   UNL     1       4.789   4.034  18.675  0.00  0.00    +0.000 A 
ATOM     31  C   UNL     1       3.658   4.599  19.333  0.00  0.00    +0.000 A 
ATOM     32  C   UNL     1       3.015   5.843  19.301  0.00  0.00    +0.000 A 
ATOM     33  H   UNL     1       3.981   1.647  20.440  0.00  0.00    +0.000 HD
BRANCH  30  34
ATOM     34  C   UNL     1       5.718   4.734  17.788  0.00  0.00    +0.000 A 
ATOM     35  C   UNL     1       5.916   4.324  16.473  0.00  0.00    +0.000 A 
ATOM     36  C   UNL     1       6.820   5.032  15.696  0.00  0.00    +0.000 A 
ATOM     37  N   UNL     1       7.520   6.103  16.131  0.00  0.00    +0.000 NA
ATOM     38  C   UNL     1       7.317   6.480  17.407  0.00  0.00    +0.000 A 
ATOM     39  C   UNL     1       6.447   5.832  18.264  0.00  0.00    +0.000 A 
ENDBRANCH  30  34
ENDBRANCH   2  24
TORSDOF 6
ENDMDL
MODEL 5
REMARK VINA RESULT:      -8.9      0.699      1.318
REMARK  Name = 
REMARK  6 active torsions:
REMARK  status: ('A' for Active; 'I' for Inactive)
REMARK    1  A    between atoms: C_2  and  C_22
REMARK    2  A    between atoms: N_3  and  C_4
REMARK    3  A    between atoms: C_7  and  O_9
REMARK    4  A    between atoms: O_9  and  C_10
REMARK    5  A    between atoms: C_10  and  C_11
REMARK    6  A    between atoms: C_28  and  C_29
REMARK                            x       y       z     vdW  Elec       q    Type
REMARK                         _______ _______ _______ _____ _____    ______ ____
ROOT
ATOM      1  O   UNL     1       2.076   7.829  18.525  0.00  0.00    +0.000 OA
ATOM      2  C   UNL     1       1.861   7.679  19.725  0.00  0.00    +0.000 C 
ATOM      3  N   UNL     1       2.142   6.489  20.359  0.00  0.00    +0.000 N 
ATOM      4  H   UNL     1       1.810   6.306  21.293  0.00  0.00    +0.000 HD
ENDROOT
BRANCH   3   5
ATOM      5  C   UNL     1       2.710   5.374  19.582  0.00  0.00    +0.000 C 
ATOM      6  C   UNL     1       4.245   5.452  19.480  0.00  0.00    +0.000 C 
ATOM      7  N   UNL     1       4.782   4.777  18.294  0.00  0.00    +0.000 N 
ATOM      8  C   UNL     1       5.032   5.516  17.147  0.00  0.00    +0.000 C 
ATOM      9  O   UNL     1       4.823   6.720  17.066  0.00  0.00    +0.000 OA
ATOM     10  C   UNL     1       4.827   3.316  18.334  0.00  0.00    +0.000 C 
ATOM     11  C   UNL     1       3.423   2.704  18.381  0.00  0.00    +0.000 C 
ATOM     12  N   UNL     1       2.760   2.860  19.662  0.00  0.00    +0.000 N 
ATOM     13  C   UNL     1       2.238   4.019  20.169  0.00  0.00    +0.000 C 
ATOM     14  O   UNL     1       1.357   3.912  21.026  0.00  0.00    +0.000 OA
ATOM     15  H   UNL     1       2.360   2.038  20.102  0.00  0.00    +0.000 HD
BRANCH   8  16
ATOM     16  O   UNL     1       5.523   4.759  16.133  0.00  0.00    +0.000 OA
BRANCH  16  17
ATOM     17  C   UNL     1       5.988   5.458  14.968  0.00  0.00    +0.000 C 
BRANCH  17  18
ATOM     18  C   UNL     1       6.079   4.506  13.800  0.00  0.00    +0.000 A 
ATOM     19  C   UNL     1       4.941   3.832  13.327  0.00  0.00    +0.000 A 
ATOM     20  C   UNL     1       5.024   2.988  12.217  0.00  0.00    +0.000 A 
ATOM     21  C   UNL     1       6.242   2.808  11.564  0.00  0.00    +0.000 A 
ATOM     22  C   UNL     1       7.376   3.474  12.025  0.00  0.00    +0.000 A 
ATOM     23  C   UNL     1       7.298   4.320  13.133  0.00  0.00    +0.000 A 
ENDBRANCH  17  18
ENDBRANCH  16  17
ENDBRANCH   8  16
ENDBRANCH   3   5
BRANCH   2  24
ATOM     24  C   UNL     1       1.195   8.772  20.488  0.00  0.00    +0.000 A 
ATOM     25  C   UNL     1       1.332   9.025  21.857  0.00  0.00    +0.000 A 
ATOM     26  C   UNL     1       0.567  10.028  22.492  0.00  0.00    +0.000 A 
ATOM     27  C   UNL     1      -0.367  10.721  21.709  0.00  0.00    +0.000 A 
ATOM     28  N   UNL     1      -1.291  11.693  21.994  0.00  0.00    +0.000 N 
ATOM     29  N   UNL     1      -2.061  12.054  20.947  0.00  0.00    +0.000 NA
ATOM     30  C   UNL     1      -1.638  11.271  19.941  0.00  0.00    +0.000 A 
ATOM     31  C   UNL     1      -0.528  10.480  20.355  0.00  0.00    +0.000 A 
ATOM     32  C   UNL     1       0.306   9.544  19.730  0.00  0.00    +0.000 A 
ATOM     33  H   UNL     1      -1.469  12.133  22.889  0.00  0.00    +0.000 HD
BRANCH  30  34
ATOM     34  C   UNL     1      -2.316  11.209  18.646  0.00  0.00    +0.000 A 
ATOM     35  C   UNL     1      -3.604  11.708  18.474  0.00  0.00    +0.000 A 
ATOM     36  C   UNL     1      -4.184  11.604  17.220  0.00  0.00    +0.000 A 
ATOM     37  N   UNL     1      -3.576  11.054  16.145  0.00  0.00    +0.000 NA
ATOM     38  C   UNL     1      -2.333  10.575  16.333  0.00  0.00    +0.000 A 
ATOM     39  C   UNL     1      -1.675  10.620  17.548  0.00  0.00    +0.000 A 
ENDBRANCH  30  34
ENDBRANCH   2  24
TORSDOF 6
ENDMDL
MODEL 6
REMARK VINA RESULT:      -8.9      3.271      9.980
REMARK  Name = 
REMARK  6 active torsions:
REMARK  status: ('A' for Active; 'I' for Inactive)
REMARK    1  A    between atoms: C_2  and  C_22
REMARK    2  A    between atoms: N_3  and  C_4
REMARK    3  A    between atoms: C_7  and  O_9
REMARK    4  A    between atoms: O_9  and  C_10
REMARK    5  A    between atoms: C_10  and  C_11
REMARK    6  A    between atoms: C_28  and  C_29
REMARK                            x       y       z     vdW  Elec       q    Type
REMARK                         _______ _______ _______ _____ _____    ______ ____
ROOT
ATOM      1  O   UNL     1       2.067   8.493  19.402  0.00  0.00    +0.000 OA
ATOM      2  C   UNL     1       1.577   7.718  20.220  0.00  0.00    +0.000 C 
ATOM      3  N   UNL     1       0.696   8.157  21.183  0.00  0.00    +0.000 N 
ATOM      4  H   UNL     1       0.430   7.564  21.954  0.00  0.00    +0.000 HD
ENDROOT
BRANCH   3   5
ATOM      5  C   UNL     1       0.336   9.584  21.235  0.00  0.00    +0.000 C 
ATOM      6  C   UNL     1      -0.663   9.978  20.129  0.00  0.00    +0.000 C 
ATOM      7  N   UNL     1      -0.591  11.396  19.762  0.00  0.00    +0.000 N 
ATOM      8  C   UNL     1       0.193  11.779  18.685  0.00  0.00    +0.000 C 
ATOM      9  O   UNL     1       0.844  10.988  18.013  0.00  0.00    +0.000 OA
ATOM     10  C   UNL     1      -1.198  12.347  20.694  0.00  0.00    +0.000 C 
ATOM     11  C   UNL     1      -0.461  12.378  22.036  0.00  0.00    +0.000 C 
ATOM     12  N   UNL     1      -0.696  11.206  22.859  0.00  0.00    +0.000 N 
ATOM     13  C   UNL     1      -0.190   9.951  22.647  0.00  0.00    +0.000 C 
ATOM     14  O   UNL     1      -0.116   9.201  23.623  0.00  0.00    +0.000 OA
ATOM     15  H   UNL     1      -0.984  11.342  23.822  0.00  0.00    +0.000 HD
BRANCH   8  16
ATOM     16  O   UNL     1       0.164  13.119  18.466  0.00  0.00    +0.000 OA
BRANCH  16  17
ATOM     17  C   UNL     1       1.399  13.831  18.636  0.00  0.00    +0.000 C 
BRANCH  17  18
ATOM     18  C   UNL     1       1.122  15.304  18.814  0.00  0.00    +0.000 A 
ATOM     19  C   UNL     1      -0.177  15.818  18.668  0.00  0.00    +0.000 A 
ATOM     20  C   UNL     1      -0.434  17.175  18.880  0.00  0.00    +0.000 A 
ATOM     21  C   UNL     1       0.602  18.035  19.240  0.00  0.00    +0.000 A 
ATOM     22  C   UNL     1       1.894  17.535  19.387  0.00  0.00    +0.000 A 
ATOM     23  C   UNL     1       2.155  16.179  19.179  0.00  0.00    +0.000 A 
ENDBRANCH  17  18
ENDBRANCH  16  17
ENDBRANCH   8  16
ENDBRANCH   3   5
BRANCH   2  24
ATOM     24  C   UNL     1       2.018   6.295  20.230  0.00  0.00    +0.000 A 
ATOM     25  C   UNL     1       1.571   5.298  21.104  0.00  0.00    +0.000 A 
ATOM     26  C   UNL     1       2.140   4.006  21.086  0.00  0.00    +0.000 A 
ATOM     27  C   UNL     1       3.200   3.778  20.197  0.00  0.00    +0.000 A 
ATOM     28  N   UNL     1       4.001   2.694  19.953  0.00  0.00    +0.000 N 
ATOM     29  N   UNL     1       4.972   2.911  19.041  0.00  0.00    +0.000 NA
ATOM     30  C   UNL     1       4.811   4.197  18.689  0.00  0.00    +0.000 A 
ATOM     31  C   UNL     1       3.666   4.752  19.330  0.00  0.00    +0.000 A 
ATOM     32  C   UNL     1       3.024   5.998  19.303  0.00  0.00    +0.000 A 
ATOM     33  H   UNL     1       3.961   1.783  20.395  0.00  0.00    +0.000 HD
BRANCH  30  34
ATOM     34  C   UNL     1       5.761   4.911  17.835  0.00  0.00    +0.000 A 
ATOM     35  C   UNL     1       6.547   5.948  18.330  0.00  0.00    +0.000 A 
ATOM     36  C   UNL     1       7.417   6.582  17.457  0.00  0.00    +0.000 A 
ATOM     37  N   UNL     1       7.559   6.255  16.153  0.00  0.00    +0.000 NA
ATOM     38  C   UNL     1       6.787   5.252  15.695  0.00  0.00    +0.000 A 
ATOM     39  C   UNL     1       5.881   4.567  16.482  0.00  0.00    +0.000 A 
ENDBRANCH  30  34
ENDBRANCH   2  24
TORSDOF 6
ENDMDL
MODEL 7
REMARK VINA RESULT:      -8.8      2.834      4.052
REMARK  Name = 
REMARK  6 active torsions:
REMARK  status: ('A' for Active; 'I' for Inactive)
REMARK    1  A    between atoms: C_2  and  C_22
REMARK    2  A    between atoms: N_3  and  C_4
REMARK    3  A    between atoms: C_7  and  O_9
REMARK    4  A    between atoms: O_9  and  C_10
REMARK    5  A    between atoms: C_10  and  C_11
REMARK    6  A    between atoms: C_28  and  C_29
REMARK                            x       y       z     vdW  Elec       q    Type
REMARK                         _______ _______ _______ _____ _____    ______ ____
ROOT
ATOM      1  O   UNL     1       2.328   8.379  17.151  0.00  0.00    +0.000 OA
ATOM      2  C   UNL     1       1.760   8.579  18.222  0.00  0.00    +0.000 C 
ATOM      3  N   UNL     1       1.860   7.682  19.263  0.00  0.00    +0.000 N 
ATOM      4  H   UNL     1       1.263   7.756  20.072  0.00  0.00    +0.000 HD
ENDROOT
BRANCH   3   5
ATOM      5  C   UNL     1       2.662   6.459  19.087  0.00  0.00    +0.000 C 
ATOM      6  C   UNL     1       4.176   6.734  19.155  0.00  0.00    +0.000 C 
ATOM      7  N   UNL     1       4.978   5.747  18.425  0.00  0.00    +0.000 N 
ATOM      8  C   UNL     1       5.358   6.013  17.118  0.00  0.00    +0.000 C 
ATOM      9  O   UNL     1       5.053   7.041  16.527  0.00  0.00    +0.000 OA
ATOM     10  C   UNL     1       5.154   4.443  19.064  0.00  0.00    +0.000 C 
ATOM     11  C   UNL     1       3.830   3.683  19.181  0.00  0.00    +0.000 C 
ATOM     12  N   UNL     1       2.937   4.216  20.193  0.00  0.00    +0.000 N 
ATOM     13  C   UNL     1       2.224   5.381  20.112  0.00  0.00    +0.000 C 
ATOM     14  O   UNL     1       1.218   5.476  20.820  0.00  0.00    +0.000 OA
ATOM     15  H   UNL     1       2.545   3.576  20.876  0.00  0.00    +0.000 HD
BRANCH   8  16
ATOM     16  O   UNL     1       6.092   5.010  16.572  0.00  0.00    +0.000 OA
BRANCH  16  17
ATOM     17  C   UNL     1       5.421   4.148  15.641  0.00  0.00    +0.000 C 
BRANCH  17  18
ATOM     18  C   UNL     1       6.113   4.201  14.301  0.00  0.00    +0.000 A 
ATOM     19  C   UNL     1       5.641   3.447  13.214  0.00  0.00    +0.000 A 
ATOM     20  C   UNL     1       6.258   3.537  11.963  0.00  0.00    +0.000 A 
ATOM     21  C   UNL     1       7.352   4.382  11.782  0.00  0.00    +0.000 A 
ATOM     22  C   UNL     1       7.827   5.134  12.854  0.00  0.00    +0.000 A 
ATOM     23  C   UNL     1       7.212   5.049  14.105  0.00  0.00    +0.000 A 
ENDBRANCH  17  18
ENDBRANCH  16  17
ENDBRANCH   8  16
ENDBRANCH   3   5
BRANCH   2  24
ATOM     24  C   UNL     1       0.870   9.765  18.364  0.00  0.00    +0.000 A 
ATOM     25  C   UNL     1      -0.490   9.819  18.040  0.00  0.00    +0.000 A 
ATOM     26  C   UNL     1      -1.208  11.033  18.120  0.00  0.00    +0.000 A 
ATOM     27  C   UNL     1      -0.496  12.183  18.486  0.00  0.00    +0.000 A 
ATOM     28  N   UNL     1      -0.847  13.502  18.610  0.00  0.00    +0.000 N 
ATOM     29  N   UNL     1       0.175  14.324  18.927  0.00  0.00    +0.000 NA
ATOM     30  C   UNL     1       1.243  13.512  18.992  0.00  0.00    +0.000 A 
ATOM     31  C   UNL     1       0.852  12.155  18.801  0.00  0.00    +0.000 A 
ATOM     32  C   UNL     1       1.521  10.924  18.803  0.00  0.00    +0.000 A 
ATOM     33  H   UNL     1      -1.761  13.915  18.464  0.00  0.00    +0.000 HD
BRANCH  30  34
ATOM     34  C   UNL     1       2.610  14.010  19.148  0.00  0.00    +0.000 A 
ATOM     35  C   UNL     1       3.158  14.248  20.405  0.00  0.00    +0.000 A 
ATOM     36  C   UNL     1       4.457  14.728  20.471  0.00  0.00    +0.000 A 
ATOM     37  N   UNL     1       5.232  14.976  19.391  0.00  0.00    +0.000 NA
ATOM     38  C   UNL     1       4.681  14.742  18.186  0.00  0.00    +0.000 A 
ATOM     39  C   UNL     1       3.391  14.275  18.015  0.00  0.00    +0.000 A 
ENDBRANCH  30  34
ENDBRANCH   2  24
TORSDOF 6
ENDMDL
MODEL 8
REMARK VINA RESULT:      -8.8      2.843      3.977
REMARK  Name = 
REMARK  6 active torsions:
REMARK  status: ('A' for Active; 'I' for Inactive)
REMARK    1  A    between atoms: C_2  and  C_22
REMARK    2  A    between atoms: N_3  and  C_4
REMARK    3  A    between atoms: C_7  and  O_9
REMARK    4  A    between atoms: O_9  and  C_10
REMARK    5  A    between atoms: C_10  and  C_11
REMARK    6  A    between atoms: C_28  and  C_29
REMARK                            x       y       z     vdW  Elec       q    Type
REMARK                         _______ _______ _______ _____ _____    ______ ____
ROOT
ATOM      1  O   UNL     1       2.293   8.376  17.125  0.00  0.00    +0.000 OA
ATOM      2  C   UNL     1       1.752   8.594  18.206  0.00  0.00    +0.000 C 
ATOM      3  N   UNL     1       1.878   7.717  19.260  0.00  0.00    +0.000 N 
ATOM      4  H   UNL     1       1.302   7.805  20.082  0.00  0.00    +0.000 HD
ENDROOT
BRANCH   3   5
ATOM      5  C   UNL     1       2.675   6.490  19.086  0.00  0.00    +0.000 C 
ATOM      6  C   UNL     1       4.191   6.761  19.152  0.00  0.00    +0.000 C 
ATOM      7  N   UNL     1       4.988   5.769  18.423  0.00  0.00    +0.000 N 
ATOM      8  C   UNL     1       5.367   6.030  17.115  0.00  0.00    +0.000 C 
ATOM      9  O   UNL     1       5.065   7.057  16.521  0.00  0.00    +0.000 OA
ATOM     10  C   UNL     1       5.161   4.466  19.066  0.00  0.00    +0.000 C 
ATOM     11  C   UNL     1       3.834   3.710  19.186  0.00  0.00    +0.000 C 
ATOM     12  N   UNL     1       2.945   4.249  20.198  0.00  0.00    +0.000 N 
ATOM     13  C   UNL     1       2.235   5.417  20.115  0.00  0.00    +0.000 C 
ATOM     14  O   UNL     1       1.231   5.517  20.824  0.00  0.00    +0.000 OA
ATOM     15  H   UNL     1       2.551   3.613  20.883  0.00  0.00    +0.000 HD
BRANCH   8  16
ATOM     16  O   UNL     1       6.097   5.023  16.570  0.00  0.00    +0.000 OA
BRANCH  16  17
ATOM     17  C   UNL     1       5.420   4.155  15.650  0.00  0.00    +0.000 C 
BRANCH  17  18
ATOM     18  C   UNL     1       6.070   4.240  14.290  0.00  0.00    +0.000 A 
ATOM     19  C   UNL     1       7.194   5.055  14.077  0.00  0.00    +0.000 A 
ATOM     20  C   UNL     1       7.819   5.092  12.828  0.00  0.00    +0.000 A 
ATOM     21  C   UNL     1       7.331   4.317  11.777  0.00  0.00    +0.000 A 
ATOM     22  C   UNL     1       6.217   3.505  11.980  0.00  0.00    +0.000 A 
ATOM     23  C   UNL     1       5.590   3.462  13.227  0.00  0.00    +0.000 A 
ENDBRANCH  17  18
ENDBRANCH  16  17
ENDBRANCH   8  16
ENDBRANCH   3   5
BRANCH   2  24
ATOM     24  C   UNL     1       0.866   9.783  18.350  0.00  0.00    +0.000 A 
ATOM     25  C   UNL     1      -0.496   9.840  18.032  0.00  0.00    +0.000 A 
ATOM     26  C   UNL     1      -1.211  11.055  18.112  0.00  0.00    +0.000 A 
ATOM     27  C   UNL     1      -0.494  12.205  18.471  0.00  0.00    +0.000 A 
ATOM     28  N   UNL     1      -0.841  13.526  18.593  0.00  0.00    +0.000 N 
ATOM     29  N   UNL     1       0.185  14.346  18.902  0.00  0.00    +0.000 NA
ATOM     30  C   UNL     1       1.250  13.531  18.964  0.00  0.00    +0.000 A 
ATOM     31  C   UNL     1       0.856  12.174  18.779  0.00  0.00    +0.000 A 
ATOM     32  C   UNL     1       1.522  10.942  18.781  0.00  0.00    +0.000 A 
ATOM     33  H   UNL     1      -1.754  13.940  18.449  0.00  0.00    +0.000 HD
BRANCH  30  34
ATOM     34  C   UNL     1       2.619  14.026  19.112  0.00  0.00    +0.000 A 
ATOM     35  C   UNL     1       3.427  14.274  18.005  0.00  0.00    +0.000 A 
ATOM     36  C   UNL     1       4.715  14.733  18.226  0.00  0.00    +0.000 A 
ATOM     37  N   UNL     1       5.241  14.963  19.449  0.00  0.00    +0.000 NA
ATOM     38  C   UNL     1       4.446  14.713  20.506  0.00  0.00    +0.000 A 
ATOM     39  C   UNL     1       3.151  14.242  20.390  0.00  0.00    +0.000 A 
ENDBRANCH  30  34
ENDBRANCH   2  24
TORSDOF 6
ENDMDL
MODEL 9
REMARK VINA RESULT:      -8.7      3.439      9.860
REMARK  Name = 
REMARK  6 active torsions:
REMARK  status: ('A' for Active; 'I' for Inactive)
REMARK    1  A    between atoms: C_2  and  C_22
REMARK    2  A    between atoms: N_3  and  C_4
REMARK    3  A    between atoms: C_7  and  O_9
REMARK    4  A    between atoms: O_9  and  C_10
REMARK    5  A    between atoms: C_10  and  C_11
REMARK    6  A    between atoms: C_28  and  C_29
REMARK                            x       y       z     vdW  Elec       q    Type
REMARK                         _______ _______ _______ _____ _____    ______ ____
ROOT
ATOM      1  O   UNL     1       1.946   8.451  19.074  0.00  0.00    +0.000 OA
ATOM      2  C   UNL     1       1.656   7.789  20.067  0.00  0.00    +0.000 C 
ATOM      3  N   UNL     1       1.042   8.364  21.157  0.00  0.00    +0.000 N 
ATOM      4  H   UNL     1       0.961   7.868  22.031  0.00  0.00    +0.000 HD
ENDROOT
BRANCH   3   5
ATOM      5  C   UNL     1       0.729   9.804  21.133  0.00  0.00    +0.000 C 
ATOM      6  C   UNL     1       0.041  10.233  19.822  0.00  0.00    +0.000 C 
ATOM      7  N   UNL     1       0.249  11.647  19.496  0.00  0.00    +0.000 N 
ATOM      8  C   UNL     1       1.283  12.002  18.642  0.00  0.00    +0.000 C 
ATOM      9  O   UNL     1       2.049  11.188  18.141  0.00  0.00    +0.000 OA
ATOM     10  C   UNL     1      -0.532  12.619  20.261  0.00  0.00    +0.000 C 
ATOM     11  C   UNL     1      -0.141  12.624  21.742  0.00  0.00    +0.000 C 
ATOM     12  N   UNL     1      -0.608  11.461  22.473  0.00  0.00    +0.000 N 
ATOM     13  C   UNL     1      -0.109  10.189  22.379  0.00  0.00    +0.000 C 
ATOM     14  O   UNL     1      -0.299   9.438  23.338  0.00  0.00    +0.000 OA
ATOM     15  H   UNL     1      -1.115  11.607  23.340  0.00  0.00    +0.000 HD
BRANCH   8  16
ATOM     16  O   UNL     1       1.353  13.342  18.434  0.00  0.00    +0.000 OA
BRANCH  16  17
ATOM     17  C   UNL     1       2.590  13.987  18.775  0.00  0.00    +0.000 C 
BRANCH  17  18
ATOM     18  C   UNL     1       2.323  15.400  19.233  0.00  0.00    +0.000 A 
ATOM     19  C   UNL     1       3.331  16.162  19.847  0.00  0.00    +0.000 A 
ATOM     20  C   UNL     1       3.090  17.485  20.227  0.00  0.00    +0.000 A 
ATOM     21  C   UNL     1       1.843  18.063  19.998  0.00  0.00    +0.000 A 
ATOM     22  C   UNL     1       0.838  17.315  19.389  0.00  0.00    +0.000 A 
ATOM     23  C   UNL     1       1.074  15.993  19.006  0.00  0.00    +0.000 A 
ENDBRANCH  17  18
ENDBRANCH  16  17
ENDBRANCH   8  16
ENDBRANCH   3   5
BRANCH   2  24
ATOM     24  C   UNL     1       2.062   6.357  20.132  0.00  0.00    +0.000 A 
ATOM     25  C   UNL     1       1.614   5.412  21.062  0.00  0.00    +0.000 A 
ATOM     26  C   UNL     1       2.151   4.106  21.089  0.00  0.00    +0.000 A 
ATOM     27  C   UNL     1       3.181   3.812  20.185  0.00  0.00    +0.000 A 
ATOM     28  N   UNL     1       3.950   2.697  19.972  0.00  0.00    +0.000 N 
ATOM     29  N   UNL     1       4.902   2.849  19.028  0.00  0.00    +0.000 NA
ATOM     30  C   UNL     1       4.764   4.121  18.622  0.00  0.00    +0.000 A 
ATOM     31  C   UNL     1       3.649   4.734  19.264  0.00  0.00    +0.000 A 
ATOM     32  C   UNL     1       3.037   5.992  19.196  0.00  0.00    +0.000 A 
ATOM     33  H   UNL     1       3.898   1.809  20.457  0.00  0.00    +0.000 HD
BRANCH  30  34
ATOM     34  C   UNL     1       5.709   4.771  17.713  0.00  0.00    +0.000 A 
ATOM     35  C   UNL     1       5.924   4.293  16.424  0.00  0.00    +0.000 A 
ATOM     36  C   UNL     1       6.842   4.956  15.625  0.00  0.00    +0.000 A 
ATOM     37  N   UNL     1       7.541   6.046  16.015  0.00  0.00    +0.000 NA
ATOM     38  C   UNL     1       7.321   6.489  17.267  0.00  0.00    +0.000 A 
ATOM     39  C   UNL     1       6.436   5.889  18.142  0.00  0.00    +0.000 A 
ENDBRANCH  30  34
ENDBRANCH   2  24
TORSDOF 6
ENDMDL
