MODEL 1
REMARK VINA RESULT:      -6.9      0.000      0.000
REMARK  Name = 
REMARK  2 active torsions:
REMARK  status: ('A' for Active; 'I' for Inactive)
REMARK    1  A    between atoms: C_2  and  C_4
REMARK    2  A    between atoms: N_10  and  C_11
REMARK                            x       y       z     vdW  Elec       q    Type
REMARK                         _______ _______ _______ _____ _____    ______ ____
ROOT
ATOM      1  C   UNL     1      -1.166  10.913  18.995  0.00  0.00    +0.000 C 
ATOM      2  C   UNL     1      -0.774  10.430  20.398  0.00  0.00    +0.000 C 
ATOM      3  C   UNL     1       0.732  10.202  20.522  0.00  0.00    +0.000 C 
ATOM      4  N   UNL     1       1.207   9.294  19.480  0.00  0.00    +0.000 N 
ATOM      5  C   UNL     1       1.810   8.113  19.870  0.00  0.00    +0.000 C 
ATOM      6  O   UNL     1       1.928   7.794  21.052  0.00  0.00    +0.000 OA
ATOM      7  N   UNL     1       2.245   7.288  18.865  0.00  0.00    +0.000 N 
ATOM      8  C   UNL     1       0.932   9.749  18.118  0.00  0.00    +0.000 C 
ATOM      9  C   UNL     1      -0.566   9.991  17.917  0.00  0.00    +0.000 C 
ATOM     10  H   UNL     1       2.527   7.741  18.013  0.00  0.00    +0.000 HD
ENDROOT
BRANCH   7  11
ATOM     11  C   UNL     1       2.935   6.029  19.174  0.00  0.00    +0.000 C 
ATOM     12  C   UNL     1       1.947   4.857  19.134  0.00  0.00    +0.000 C 
ATOM     13  C   UNL     1       1.644   4.305  17.742  0.00  0.00    +0.000 C 
ATOM     14  C   UNL     1       2.625   3.218  17.303  0.00  0.00    +0.000 C 
ATOM     15  C   UNL     1       4.042   3.694  17.006  0.00  0.00    +0.000 C 
ATOM     16  C   UNL     1       4.724   4.464  18.137  0.00  0.00    +0.000 C 
ATOM     17  C   UNL     1       4.184   5.885  18.289  0.00  0.00    +0.000 C 
ENDBRANCH   7  11
BRANCH   1  19
ATOM     18  N   UNL     1      -0.975  12.838  17.493  0.00  0.00    +0.000 N 
ATOM     19  C   UNL     1      -0.787  12.373  18.759  0.00  0.00    +0.000 C 
ATOM     20  O   UNL     1      -0.300  13.103  19.616  0.00  0.00    +0.000 OA
ATOM     21  H   UNL     1      -0.738  13.806  17.313  0.00  0.00    +0.000 HD
ATOM     22  H   UNL     1      -1.459  12.324  16.771  0.00  0.00    +0.000 HD
ENDBRANCH   1  19
TORSDOF 2
ENDMDL
MODEL 2
REMARK VINA RESULT:      -6.5      2.319      7.282
REMARK  Name = 
REMARK  2 active torsions:
REMARK  status: ('A' for Active; 'I' for Inactive)
REMARK    1  A    between atoms: C_2  and  C_4
REMARK    2  A    between atoms: N_10  and  C_11
REMARK                            x       y       z     vdW  Elec       q    Type
REMARK                         _______ _______ _______ _____ _____    ______ ____
ROOT
ATOM      1  C   UNL     1       1.808   3.660  19.649  0.00  0.00    +0.000 C 
ATOM      2  C   UNL     1       2.478   4.286  18.417  0.00  0.00    +0.000 C 
ATOM      3  C   UNL     1       3.258   5.550  18.773  0.00  0.00    +0.000 C 
ATOM      4  N   UNL     1       2.404   6.507  19.475  0.00  0.00    +0.000 N 
ATOM      5  C   UNL     1       2.216   7.752  18.907  0.00  0.00    +0.000 C 
ATOM      6  O   UNL     1       2.714   8.063  17.826  0.00  0.00    +0.000 OA
ATOM      7  N   UNL     1       1.412   8.623  19.595  0.00  0.00    +0.000 N 
ATOM      8  C   UNL     1       1.806   5.987  20.704  0.00  0.00    +0.000 C 
ATOM      9  C   UNL     1       0.998   4.718  20.421  0.00  0.00    +0.000 C 
ATOM     10  H   UNL     1       1.401   8.518  20.594  0.00  0.00    +0.000 HD
ENDROOT
BRANCH   7  11
ATOM     11  C   UNL     1       1.181   9.985  19.096  0.00  0.00    +0.000 C 
ATOM     12  C   UNL     1       0.054   9.988  18.056  0.00  0.00    +0.000 C 
ATOM     13  C   UNL     1      -1.362   9.998  18.627  0.00  0.00    +0.000 C 
ATOM     14  C   UNL     1      -1.890  11.408  18.891  0.00  0.00    +0.000 C 
ATOM     15  C   UNL     1      -1.223  12.153  20.042  0.00  0.00    +0.000 C 
ATOM     16  C   UNL     1       0.298  12.268  19.952  0.00  0.00    +0.000 C 
ATOM     17  C   UNL     1       1.007  10.954  20.277  0.00  0.00    +0.000 C 
ENDBRANCH   7  11
BRANCH   1  19
ATOM     18  N   UNL     1       2.417   2.761  21.845  0.00  0.00    +0.000 N 
ATOM     19  C   UNL     1       2.812   2.951  20.555  0.00  0.00    +0.000 C 
ATOM     20  O   UNL     1       3.930   2.597  20.197  0.00  0.00    +0.000 OA
ATOM     21  H   UNL     1       3.062   2.286  22.463  0.00  0.00    +0.000 HD
ATOM     22  H   UNL     1       1.480   2.938  22.178  0.00  0.00    +0.000 HD
ENDBRANCH   1  19
TORSDOF 2
ENDMDL
MODEL 3
REMARK VINA RESULT:      -6.3      0.921      1.210
REMARK  Name = 
REMARK  2 active torsions:
REMARK  status: ('A' for Active; 'I' for Inactive)
REMARK    1  A    between atoms: C_2  and  C_4
REMARK    2  A    between atoms: N_10  and  C_11
REMARK                            x       y       z     vdW  Elec       q    Type
REMARK                         _______ _______ _______ _____ _____    ______ ____
ROOT
ATOM      1  C   UNL     1      -1.150  10.905  18.973  0.00  0.00    +0.000 C 
ATOM      2  C   UNL     1      -0.737  10.574  20.414  0.00  0.00    +0.000 C 
ATOM      3  C   UNL     1       0.764  10.315  20.531  0.00  0.00    +0.000 C 
ATOM      4  N   UNL     1       1.188   9.280  19.591  0.00  0.00    +0.000 N 
ATOM      5  C   UNL     1       1.766   8.134  20.101  0.00  0.00    +0.000 C 
ATOM      6  O   UNL     1       1.904   7.949  21.310  0.00  0.00    +0.000 OA
ATOM      7  N   UNL     1       2.153   7.186  19.190  0.00  0.00    +0.000 N 
ATOM      8  C   UNL     1       0.892   9.584  18.191  0.00  0.00    +0.000 C 
ATOM      9  C   UNL     1      -0.603   9.848  17.996  0.00  0.00    +0.000 C 
ATOM     10  H   UNL     1       2.426   7.529  18.285  0.00  0.00    +0.000 HD
ENDROOT
BRANCH   7  11
ATOM     11  C   UNL     1       2.815   5.950  19.627  0.00  0.00    +0.000 C 
ATOM     12  C   UNL     1       1.947   5.217  20.656  0.00  0.00    +0.000 C 
ATOM     13  C   UNL     1       0.823   4.363  20.074  0.00  0.00    +0.000 C 
ATOM     14  C   UNL     1       1.263   2.937  19.744  0.00  0.00    +0.000 C 
ATOM     15  C   UNL     1       2.223   2.803  18.567  0.00  0.00    +0.000 C 
ATOM     16  C   UNL     1       3.497   3.641  18.664  0.00  0.00    +0.000 C 
ATOM     17  C   UNL     1       3.246   5.125  18.403  0.00  0.00    +0.000 C 
ENDBRANCH   7  11
BRANCH   1  19
ATOM     18  N   UNL     1      -1.087  12.695  17.301  0.00  0.00    +0.000 N 
ATOM     19  C   UNL     1      -0.736  12.316  18.562  0.00  0.00    +0.000 C 
ATOM     20  O   UNL     1      -0.090  13.077  19.275  0.00  0.00    +0.000 OA
ATOM     21  H   UNL     1      -0.830  13.629  17.008  0.00  0.00    +0.000 HD
ATOM     22  H   UNL     1      -1.699  12.158  16.703  0.00  0.00    +0.000 HD
ENDBRANCH   1  19
TORSDOF 2
ENDMDL
MODEL 4
REMARK VINA RESULT:      -6.2      1.559      2.293
REMARK  Name = 
REMARK  2 active torsions:
REMARK  status: ('A' for Active; 'I' for Inactive)
REMARK    1  A    between atoms: C_2  and  C_4
REMARK    2  A    between atoms: N_10  and  C_11
REMARK                            x       y       z     vdW  Elec       q    Type
REMARK                         _______ _______ _______ _____ _____    ______ ____
ROOT
ATOM      1  C   UNL     1       1.085  11.965  19.761  0.00  0.00    +0.000 C 
ATOM      2  C   UNL     1       2.037  11.612  18.609  0.00  0.00    +0.000 C 
ATOM      3  C   UNL     1       1.581  10.364  17.855  0.00  0.00    +0.000 C 
ATOM      4  N   UNL     1       1.395   9.242  18.773  0.00  0.00    +0.000 N 
ATOM      5  C   UNL     1       2.153   8.104  18.573  0.00  0.00    +0.000 C 
ATOM      6  O   UNL     1       2.990   8.022  17.676  0.00  0.00    +0.000 OA
ATOM      7  N   UNL     1       1.950   7.071  19.451  0.00  0.00    +0.000 N 
ATOM      8  C   UNL     1       0.432   9.496  19.844  0.00  0.00    +0.000 C 
ATOM      9  C   UNL     1       0.832  10.734  20.651  0.00  0.00    +0.000 C 
ATOM     10  H   UNL     1       1.027   7.000  19.842  0.00  0.00    +0.000 HD
ENDROOT
BRANCH   7  11
ATOM     11  C   UNL     1       2.675   5.804  19.300  0.00  0.00    +0.000 C 
ATOM     12  C   UNL     1       2.541   4.959  20.573  0.00  0.00    +0.000 C 
ATOM     13  C   UNL     1       1.246   4.158  20.692  0.00  0.00    +0.000 C 
ATOM     14  C   UNL     1       1.332   2.779  20.039  0.00  0.00    +0.000 C 
ATOM     15  C   UNL     1       1.409   2.778  18.516  0.00  0.00    +0.000 C 
ATOM     16  C   UNL     1       2.539   3.614  17.918  0.00  0.00    +0.000 C 
ATOM     17  C   UNL     1       2.261   5.115  17.990  0.00  0.00    +0.000 C 
ENDBRANCH   7  11
BRANCH   1  19
ATOM     18  N   UNL     1      -0.142  13.292  18.107  0.00  0.00    +0.000 N 
ATOM     19  C   UNL     1      -0.223  12.576  19.263  0.00  0.00    +0.000 C 
ATOM     20  O   UNL     1      -1.292  12.490  19.858  0.00  0.00    +0.000 OA
ATOM     21  H   UNL     1      -0.997  13.701  17.752  0.00  0.00    +0.000 HD
ATOM     22  H   UNL     1       0.680  13.320  17.520  0.00  0.00    +0.000 HD
ENDBRANCH   1  19
TORSDOF 2
ENDMDL
MODEL 5
REMARK VINA RESULT:      -6.2      2.374      7.319
REMARK  Name = 
REMARK  2 active torsions:
REMARK  status: ('A' for Active; 'I' for Inactive)
REMARK    1  A    between atoms: C_2  and  C_4
REMARK    2  A    between atoms: N_10  and  C_11
REMARK                            x       y       z     vdW  Elec       q    Type
REMARK                         _______ _______ _______ _____ _____    ______ ____
ROOT
ATOM      1  C   UNL     1       2.274   3.301  18.479  0.00  0.00    +0.000 C 
ATOM      2  C   UNL     1       3.051   4.188  17.496  0.00  0.00    +0.000 C 
ATOM      3  C   UNL     1       3.740   5.354  18.203  0.00  0.00    +0.000 C 
ATOM      4  N   UNL     1       2.779   6.124  18.992  0.00  0.00    +0.000 N 
ATOM      5  C   UNL     1       2.608   7.461  18.686  0.00  0.00    +0.000 C 
ATOM      6  O   UNL     1       3.210   8.006  17.762  0.00  0.00    +0.000 OA
ATOM      7  N   UNL     1       1.701   8.151  19.448  0.00  0.00    +0.000 N 
ATOM      8  C   UNL     1       2.070   5.341  20.003  0.00  0.00    +0.000 C 
ATOM      9  C   UNL     1       1.346   4.154  19.362  0.00  0.00    +0.000 C 
ATOM     10  H   UNL     1       1.585   7.831  20.394  0.00  0.00    +0.000 HD
ENDROOT
BRANCH   7  11
ATOM     11  C   UNL     1       1.476   9.586  19.231  0.00  0.00    +0.000 C 
ATOM     12  C   UNL     1       0.765   9.816  17.893  0.00  0.00    +0.000 C 
ATOM     13  C   UNL     1      -0.750   9.622  17.916  0.00  0.00    +0.000 C 
ATOM     14  C   UNL     1      -1.511  10.891  18.297  0.00  0.00    +0.000 C 
ATOM     15  C   UNL     1      -1.362  11.334  19.749  0.00  0.00    +0.000 C 
ATOM     16  C   UNL     1       0.077  11.528  20.228  0.00  0.00    +0.000 C 
ATOM     17  C   UNL     1       0.800  10.203  20.466  0.00  0.00    +0.000 C 
ENDBRANCH   7  11
BRANCH   1  19
ATOM     18  N   UNL     1       3.956   1.526  18.630  0.00  0.00    +0.000 N 
ATOM     19  C   UNL     1       3.199   2.424  19.320  0.00  0.00    +0.000 C 
ATOM     20  O   UNL     1       3.255   2.461  20.544  0.00  0.00    +0.000 OA
ATOM     21  H   UNL     1       4.583   0.938  19.164  0.00  0.00    +0.000 HD
ATOM     22  H   UNL     1       4.030   1.510  17.622  0.00  0.00    +0.000 HD
ENDBRANCH   1  19
TORSDOF 2
ENDMDL
MODEL 6
REMARK VINA RESULT:      -6.2      2.137      2.859
REMARK  Name = 
REMARK  2 active torsions:
REMARK  status: ('A' for Active; 'I' for Inactive)
REMARK    1  A    between atoms: C_2  and  C_4
REMARK    2  A    between atoms: N_10  and  C_11
REMARK                            x       y       z     vdW  Elec       q    Type
REMARK                         _______ _______ _______ _____ _____    ______ ____
ROOT
ATOM      1  C   UNL     1      -0.004  11.212  22.241  0.00  0.00    +0.000 C 
ATOM      2  C   UNL     1       0.872  11.330  20.987  0.00  0.00    +0.000 C 
ATOM      3  C   UNL     1       0.538  10.254  19.955  0.00  0.00    +0.000 C 
ATOM      4  N   UNL     1       0.615   8.922  20.550  0.00  0.00    +0.000 N 
ATOM      5  C   UNL     1       1.512   8.019  20.014  0.00  0.00    +0.000 C 
ATOM      6  O   UNL     1       2.260   8.310  19.083  0.00  0.00    +0.000 OA
ATOM      7  N   UNL     1       1.554   6.779  20.597  0.00  0.00    +0.000 N 
ATOM      8  C   UNL     1      -0.265   8.729  21.703  0.00  0.00    +0.000 C 
ATOM      9  C   UNL     1       0.020   9.772  22.786  0.00  0.00    +0.000 C 
ATOM     10  H   UNL     1       0.696   6.454  21.006  0.00  0.00    +0.000 HD
ENDROOT
BRANCH   7  11
ATOM     11  C   UNL     1       2.445   5.734  20.075  0.00  0.00    +0.000 C 
ATOM     12  C   UNL     1       2.407   4.499  20.984  0.00  0.00    +0.000 C 
ATOM     13  C   UNL     1       1.228   3.556  20.755  0.00  0.00    +0.000 C 
ATOM     14  C   UNL     1       1.506   2.498  19.687  0.00  0.00    +0.000 C 
ATOM     15  C   UNL     1       1.603   3.020  18.257  0.00  0.00    +0.000 C 
ATOM     16  C   UNL     1       2.621   4.139  18.038  0.00  0.00    +0.000 C 
ATOM     17  C   UNL     1       2.144   5.483  18.588  0.00  0.00    +0.000 C 
ENDBRANCH   7  11
BRANCH   1  19
ATOM     18  N   UNL     1      -2.245  11.721  23.090  0.00  0.00    +0.000 N 
ATOM     19  C   UNL     1      -1.431  11.696  21.997  0.00  0.00    +0.000 C 
ATOM     20  O   UNL     1      -1.871  12.011  20.897  0.00  0.00    +0.000 OA
ATOM     21  H   UNL     1      -3.194  12.045  22.955  0.00  0.00    +0.000 HD
ATOM     22  H   UNL     1      -1.922  11.570  24.035  0.00  0.00    +0.000 HD
ENDBRANCH   1  19
TORSDOF 2
ENDMDL
MODEL 7
REMARK VINA RESULT:      -6.1      2.370      7.397
REMARK  Name = 
REMARK  2 active torsions:
REMARK  status: ('A' for Active; 'I' for Inactive)
REMARK    1  A    between atoms: C_2  and  C_4
REMARK    2  A    between atoms: N_10  and  C_11
REMARK                            x       y       z     vdW  Elec       q    Type
REMARK                         _______ _______ _______ _____ _____    ______ ____
ROOT
ATOM      1  C   UNL     1       3.419   4.049  18.592  0.00  0.00    +0.000 C 
ATOM      2  C   UNL     1       3.582   4.914  17.334  0.00  0.00    +0.000 C 
ATOM      3  C   UNL     1       3.988   6.346  17.676  0.00  0.00    +0.000 C 
ATOM      4  N   UNL     1       3.049   6.939  18.627  0.00  0.00    +0.000 N 
ATOM      5  C   UNL     1       2.367   8.078  18.246  0.00  0.00    +0.000 C 
ATOM      6  O   UNL     1       2.502   8.583  17.132  0.00  0.00    +0.000 OA
ATOM      7  N   UNL     1       1.497   8.606  19.164  0.00  0.00    +0.000 N 
ATOM      8  C   UNL     1       2.918   6.197  19.881  0.00  0.00    +0.000 C 
ATOM      9  C   UNL     1       2.504   4.748  19.614  0.00  0.00    +0.000 C 
ATOM     10  H   UNL     1       1.733   8.459  20.130  0.00  0.00    +0.000 HD
ENDROOT
BRANCH   7  11
ATOM     11  C   UNL     1       0.754   9.839  18.872  0.00  0.00    +0.000 C 
ATOM     12  C   UNL     1      -0.452   9.968  19.810  0.00  0.00    +0.000 C 
ATOM     13  C   UNL     1      -0.145  10.528  21.197  0.00  0.00    +0.000 C 
ATOM     14  C   UNL     1      -0.205  12.054  21.254  0.00  0.00    +0.000 C 
ATOM     15  C   UNL     1       0.909  12.783  20.512  0.00  0.00    +0.000 C 
ATOM     16  C   UNL     1       1.068  12.408  19.038  0.00  0.00    +0.000 C 
ATOM     17  C   UNL     1       1.717  11.038  18.847  0.00  0.00    +0.000 C 
ENDBRANCH   7  11
BRANCH   1  19
ATOM     18  N   UNL     1       4.834   2.418  19.748  0.00  0.00    +0.000 N 
ATOM     19  C   UNL     1       4.762   3.667  19.209  0.00  0.00    +0.000 C 
ATOM     20  O   UNL     1       5.727   4.421  19.276  0.00  0.00    +0.000 OA
ATOM     21  H   UNL     1       5.717   2.138  20.157  0.00  0.00    +0.000 HD
ATOM     22  H   UNL     1       4.115   1.717  19.641  0.00  0.00    +0.000 HD
ENDBRANCH   1  19
TORSDOF 2
ENDMDL
MODEL 8
REMARK VINA RESULT:      -6.1      2.435      7.410
REMARK  Name = 
REMARK  2 active torsions:
REMARK  status: ('A' for Active; 'I' for Inactive)
REMARK    1  A    between atoms: C_2  and  C_4
REMARK    2  A    between atoms: N_10  and  C_11
REMARK                            x       y       z     vdW  Elec       q    Type
REMARK                         _______ _______ _______ _____ _____    ______ ____
ROOT
ATOM      1  C   UNL     1       2.445   3.060  17.245  0.00  0.00    +0.000 C 
ATOM      2  C   UNL     1       3.594   4.015  16.895  0.00  0.00    +0.000 C 
ATOM      3  C   UNL     1       3.982   4.898  18.080  0.00  0.00    +0.000 C 
ATOM      4  N   UNL     1       2.817   5.613  18.598  0.00  0.00    +0.000 N 
ATOM      5  C   UNL     1       2.845   6.994  18.593  0.00  0.00    +0.000 C 
ATOM      6  O   UNL     1       3.796   7.631  18.143  0.00  0.00    +0.000 OA
ATOM      7  N   UNL     1       1.735   7.630  19.088  0.00  0.00    +0.000 N 
ATOM      8  C   UNL     1       1.720   4.743  19.024  0.00  0.00    +0.000 C 
ATOM      9  C   UNL     1       1.273   3.831  17.879  0.00  0.00    +0.000 C 
ATOM     10  H   UNL     1       1.227   7.139  19.802  0.00  0.00    +0.000 HD
ENDROOT
BRANCH   7  11
ATOM     11  C   UNL     1       1.682   9.096  19.165  0.00  0.00    +0.000 C 
ATOM     12  C   UNL     1       1.070   9.674  17.884  0.00  0.00    +0.000 C 
ATOM     13  C   UNL     1      -0.456   9.660  17.825  0.00  0.00    +0.000 C 
ATOM     14  C   UNL     1      -1.091  10.908  18.439  0.00  0.00    +0.000 C 
ATOM     15  C   UNL     1      -0.967  11.029  19.954  0.00  0.00    +0.000 C 
ATOM     16  C   UNL     1       0.457  10.950  20.502  0.00  0.00    +0.000 C 
ATOM     17  C   UNL     1       1.016   9.528  20.482  0.00  0.00    +0.000 C 
ENDBRANCH   7  11
BRANCH   1  19
ATOM     18  N   UNL     1       1.973   1.420  19.003  0.00  0.00    +0.000 N 
ATOM     19  C   UNL     1       2.902   1.905  18.132  0.00  0.00    +0.000 C 
ATOM     20  O   UNL     1       4.037   1.441  18.125  0.00  0.00    +0.000 OA
ATOM     21  H   UNL     1       2.250   0.649  19.596  0.00  0.00    +0.000 HD
ATOM     22  H   UNL     1       0.999   1.688  18.992  0.00  0.00    +0.000 HD
ENDBRANCH   1  19
TORSDOF 2
ENDMDL
MODEL 9
REMARK VINA RESULT:      -6.1      2.579      7.348
REMARK  Name = 
REMARK  2 active torsions:
REMARK  status: ('A' for Active; 'I' for Inactive)
REMARK    1  A    between atoms: C_2  and  C_4
REMARK    2  A    between atoms: N_10  and  C_11
REMARK                            x       y       z     vdW  Elec       q    Type
REMARK                         _______ _______ _______ _____ _____    ______ ____
ROOT
ATOM      1  C   UNL     1       2.758   3.192  19.160  0.00  0.00    +0.000 C 
ATOM      2  C   UNL     1       3.601   3.830  18.047  0.00  0.00    +0.000 C 
ATOM      3  C   UNL     1       4.123   5.209  18.447  0.00  0.00    +0.000 C 
ATOM      4  N   UNL     1       3.025   6.078  18.866  0.00  0.00    +0.000 N 
ATOM      5  C   UNL     1       2.816   7.249  18.163  0.00  0.00    +0.000 C 
ATOM      6  O   UNL     1       3.498   7.561  17.189  0.00  0.00    +0.000 OA
ATOM      7  N   UNL     1       1.779   8.040  18.587  0.00  0.00    +0.000 N 
ATOM      8  C   UNL     1       2.239   5.554  19.983  0.00  0.00    +0.000 C 
ATOM      9  C   UNL     1       1.675   4.171  19.648  0.00  0.00    +0.000 C 
ATOM     10  H   UNL     1       1.561   7.994  19.567  0.00  0.00    +0.000 HD
ENDROOT
BRANCH   7  11
ATOM     11  C   UNL     1       1.500   9.325  17.933  0.00  0.00    +0.000 C 
ATOM     12  C   UNL     1      -0.006   9.618  17.957  0.00  0.00    +0.000 C 
ATOM     13  C   UNL     1      -0.535  10.210  19.261  0.00  0.00    +0.000 C 
ATOM     14  C   UNL     1      -0.452  11.736  19.303  0.00  0.00    +0.000 C 
ATOM     15  C   UNL     1       0.956  12.314  19.398  0.00  0.00    +0.000 C 
ATOM     16  C   UNL     1       1.925  11.855  18.309  0.00  0.00    +0.000 C 
ATOM     17  C   UNL     1       2.406  10.420  18.518  0.00  0.00    +0.000 C 
ENDBRANCH   7  11
BRANCH   1  19
ATOM     18  N   UNL     1       4.859   2.236  19.981  0.00  0.00    +0.000 N 
ATOM     19  C   UNL     1       3.617   2.684  20.316  0.00  0.00    +0.000 C 
ATOM     20  O   UNL     1       3.236   2.624  21.480  0.00  0.00    +0.000 OA
ATOM     21  H   UNL     1       5.450   1.900  20.731  0.00  0.00    +0.000 HD
ATOM     22  H   UNL     1       5.268   2.347  19.064  0.00  0.00    +0.000 HD
ENDBRANCH   1  19
TORSDOF 2
ENDMDL
