MODEL 1
REMARK VINA RESULT:      -8.4      0.000      0.000
REMARK  Name = 
REMARK  4 active torsions:
REMARK  status: ('A' for Active; 'I' for Inactive)
REMARK    1  A    between atoms: N_3  and  C_4
REMARK    2  A    between atoms: N_11  and  C_12
REMARK    3  A    between atoms: C_15  and  O_16
REMARK    4  A    between atoms: O_16  and  C_17
REMARK                            x       y       z     vdW  Elec       q    Type
REMARK                         _______ _______ _______ _____ _____    ______ ____
ROOT
ATOM      1  C   UNL     1      -0.095  10.151  19.674  0.00  0.00    +0.000 A 
ATOM      2  C   UNL     1       0.539   9.355  20.631  0.00  0.00    +0.000 A 
ATOM      3  C   UNL     1       1.555   8.460  20.255  0.00  0.00    +0.000 A 
ATOM      4  C   UNL     1       1.935   8.360  18.914  0.00  0.00    +0.000 A 
ATOM      5  C   UNL     1       1.397   9.209  17.965  0.00  0.00    +0.000 A 
ATOM      6  C   UNL     1       0.369  10.088  18.347  0.00  0.00    +0.000 A 
ENDROOT
BRANCH   1  10
ATOM      7  O   UNL     1      -0.332  12.502  21.464  0.00  0.00    +0.000 OA
ATOM      8  C   UNL     1      -1.288  12.044  20.849  0.00  0.00    +0.000 C 
ATOM      9  N   UNL     1      -2.608  12.487  20.989  0.00  0.00    +0.000 N 
ATOM     10  N   UNL     1      -1.209  10.994  19.940  0.00  0.00    +0.000 N 
ATOM     11  H   UNL     1      -3.321  11.897  20.586  0.00  0.00    +0.000 HD
ATOM     12  H   UNL     1      -2.024  10.836  19.368  0.00  0.00    +0.000 HD
BRANCH   9  13
ATOM     13  C   UNL     1      -3.079  13.530  21.824  0.00  0.00    +0.000 A 
ATOM     14  C   UNL     1      -3.057  14.883  21.473  0.00  0.00    +0.000 A 
ATOM     15  C   UNL     1      -3.505  15.867  22.362  0.00  0.00    +0.000 A 
ATOM     16  C   UNL     1      -3.988  15.505  23.617  0.00  0.00    +0.000 A 
ATOM     17 BR   UNL     1      -4.562  16.837  24.829  0.00  0.00    +0.000 Br
ATOM     18  C   UNL     1      -4.043  14.163  23.980  0.00  0.00    +0.000 A 
ATOM     19  C   UNL     1      -3.599  13.181  23.084  0.00  0.00    +0.000 A 
ENDBRANCH   9  13
ENDBRANCH   1  10
BRANCH   4  20
ATOM     20  O   UNL     1       2.941   7.370  18.607  0.00  0.00    +0.000 OA
BRANCH  20  21
ATOM     21  C   UNL     1       3.356   6.037  18.695  0.00  0.00    +0.000 C 
ATOM     22  N   UNL     1       4.457   5.702  18.095  0.00  0.00    +0.000 NA
ATOM     23  S   UNL     1       4.663   4.083  18.184  0.00  0.00    +0.000 S 
ATOM     24  O   UNL     1       4.619   3.493  16.863  0.00  0.00    +0.000 OA
ATOM     25  O   UNL     1       5.674   3.757  19.160  0.00  0.00    +0.000 OA
ATOM     26  C   UNL     1       3.128   3.754  18.937  0.00  0.00    +0.000 A 
ATOM     27  C   UNL     1       2.615   2.507  19.249  0.00  0.00    +0.000 A 
ATOM     28  C   UNL     1       1.535   2.480  20.124  0.00  0.00    +0.000 A 
ATOM     29  C   UNL     1       1.053   3.682  20.676  0.00  0.00    +0.000 A 
ATOM     30  C   UNL     1       1.567   4.935  20.283  0.00  0.00    +0.000 A 
ATOM     31  C   UNL     1       2.576   4.963  19.340  0.00  0.00    +0.000 A 
ENDBRANCH  20  21
ENDBRANCH   4  20
TORSDOF 4
ENDMDL
MODEL 2
REMARK VINA RESULT:      -8.4      1.193      1.482
REMARK  Name = 
REMARK  4 active torsions:
REMARK  status: ('A' for Active; 'I' for Inactive)
REMARK    1  A    between atoms: N_3  and  C_4
REMARK    2  A    between atoms: N_11  and  C_12
REMARK    3  A    between atoms: C_15  and  O_16
REMARK    4  A    between atoms: O_16  and  C_17
REMARK                            x       y       z     vdW  Elec       q    Type
REMARK                         _______ _______ _______ _____ _____    ______ ____
ROOT
ATOM      1  C   UNL     1       0.332   9.990  19.913  0.00  0.00    +0.000 A 
ATOM      2  C   UNL     1       0.955   8.949  20.607  0.00  0.00    +0.000 A 
ATOM      3  C   UNL     1       1.861   8.098  19.952  0.00  0.00    +0.000 A 
ATOM      4  C   UNL     1       2.142   8.288  18.598  0.00  0.00    +0.000 A 
ATOM      5  C   UNL     1       1.621   9.371  17.916  0.00  0.00    +0.000 A 
ATOM      6  C   UNL     1       0.702  10.207  18.573  0.00  0.00    +0.000 A 
ENDROOT
BRANCH   1  10
ATOM      7  O   UNL     1       0.539  12.608  21.288  0.00  0.00    +0.000 OA
ATOM      8  C   UNL     1      -0.526  12.013  21.161  0.00  0.00    +0.000 C 
ATOM      9  N   UNL     1      -1.737  12.424  21.728  0.00  0.00    +0.000 N 
ATOM     10  N   UNL     1      -0.683  10.824  20.457  0.00  0.00    +0.000 N 
ATOM     11  H   UNL     1      -2.485  11.747  21.720  0.00  0.00    +0.000 HD
ATOM     12  H   UNL     1      -1.632  10.538  20.270  0.00  0.00    +0.000 HD
BRANCH   9  13
ATOM     13  C   UNL     1      -1.968  13.579  22.515  0.00  0.00    +0.000 A 
ATOM     14  C   UNL     1      -1.493  13.744  23.820  0.00  0.00    +0.000 A 
ATOM     15  C   UNL     1      -1.789  14.897  24.556  0.00  0.00    +0.000 A 
ATOM     16  C   UNL     1      -2.563  15.906  23.989  0.00  0.00    +0.000 A 
ATOM     17 BR   UNL     1      -2.990  17.448  24.996  0.00  0.00    +0.000 Br
ATOM     18  C   UNL     1      -3.026  15.777  22.684  0.00  0.00    +0.000 A 
ATOM     19  C   UNL     1      -2.722  14.623  21.949  0.00  0.00    +0.000 A 
ENDBRANCH   9  13
ENDBRANCH   1  10
BRANCH   4  20
ATOM     20  O   UNL     1       3.035   7.328  17.989  0.00  0.00    +0.000 OA
BRANCH  20  21
ATOM     21  C   UNL     1       3.656   6.077  18.063  0.00  0.00    +0.000 C 
ATOM     22  N   UNL     1       4.949   6.033  17.957  0.00  0.00    +0.000 NA
ATOM     23  S   UNL     1       5.445   4.477  17.901  0.00  0.00    +0.000 S 
ATOM     24  O   UNL     1       6.060   4.187  16.624  0.00  0.00    +0.000 OA
ATOM     25  O   UNL     1       6.026   4.089  19.163  0.00  0.00    +0.000 OA
ATOM     26  C   UNL     1       3.847   3.786  17.863  0.00  0.00    +0.000 A 
ATOM     27  C   UNL     1       3.534   2.443  17.747  0.00  0.00    +0.000 A 
ATOM     28  C   UNL     1       2.228   2.080  18.056  0.00  0.00    +0.000 A 
ATOM     29  C   UNL     1       1.319   3.057  18.506  0.00  0.00    +0.000 A 
ATOM     30  C   UNL     1       1.665   4.424  18.551  0.00  0.00    +0.000 A 
ATOM     31  C   UNL     1       2.934   4.792  18.151  0.00  0.00    +0.000 A 
ENDBRANCH  20  21
ENDBRANCH   4  20
TORSDOF 4
ENDMDL
MODEL 3
REMARK VINA RESULT:      -8.4      1.875      2.142
REMARK  Name = 
REMARK  4 active torsions:
REMARK  status: ('A' for Active; 'I' for Inactive)
REMARK    1  A    between atoms: N_3  and  C_4
REMARK    2  A    between atoms: N_11  and  C_12
REMARK    3  A    between atoms: C_15  and  O_16
REMARK    4  A    between atoms: O_16  and  C_17
REMARK                            x       y       z     vdW  Elec       q    Type
REMARK                         _______ _______ _______ _____ _____    ______ ____
ROOT
ATOM      1  C   UNL     1       0.447  10.233  19.696  0.00  0.00    +0.000 A 
ATOM      2  C   UNL     1       0.810  10.248  18.347  0.00  0.00    +0.000 A 
ATOM      3  C   UNL     1       1.662   9.260  17.828  0.00  0.00    +0.000 A 
ATOM      4  C   UNL     1       2.156   8.255  18.663  0.00  0.00    +0.000 A 
ATOM      5  C   UNL     1       1.730   8.158  19.974  0.00  0.00    +0.000 A 
ATOM      6  C   UNL     1       0.892   9.160  20.490  0.00  0.00    +0.000 A 
ENDROOT
BRANCH   1  10
ATOM      7  O   UNL     1       1.344  12.597  21.244  0.00  0.00    +0.000 OA
ATOM      8  C   UNL     1       0.160  12.304  21.116  0.00  0.00    +0.000 C 
ATOM      9  N   UNL     1      -0.894  12.964  21.756  0.00  0.00    +0.000 N 
ATOM     10  N   UNL     1      -0.310  11.253  20.336  0.00  0.00    +0.000 N 
ATOM     11  H   UNL     1      -1.791  12.502  21.729  0.00  0.00    +0.000 HD
ATOM     12  H   UNL     1      -1.304  11.233  20.166  0.00  0.00    +0.000 HD
BRANCH   9  13
ATOM     13  C   UNL     1      -0.806  14.075  22.632  0.00  0.00    +0.000 A 
ATOM     14  C   UNL     1      -0.078  15.235  22.352  0.00  0.00    +0.000 A 
ATOM     15  C   UNL     1      -0.003  16.282  23.278  0.00  0.00    +0.000 A 
ATOM     16  C   UNL     1      -0.665  16.180  24.499  0.00  0.00    +0.000 A 
ATOM     17 BR   UNL     1      -0.536  17.580  25.763  0.00  0.00    +0.000 Br
ATOM     18  C   UNL     1      -1.416  15.046  24.791  0.00  0.00    +0.000 A 
ATOM     19  C   UNL     1      -1.493  14.004  23.857  0.00  0.00    +0.000 A 
ENDBRANCH   9  13
ENDBRANCH   1  10
BRANCH   4  20
ATOM     20  O   UNL     1       3.077   7.318  18.061  0.00  0.00    +0.000 OA
BRANCH  20  21
ATOM     21  C   UNL     1       3.700   6.067  18.121  0.00  0.00    +0.000 C 
ATOM     22  N   UNL     1       4.995   6.029  18.046  0.00  0.00    +0.000 NA
ATOM     23  S   UNL     1       5.498   4.477  17.966  0.00  0.00    +0.000 S 
ATOM     24  O   UNL     1       6.145   4.217  16.699  0.00  0.00    +0.000 OA
ATOM     25  O   UNL     1       6.049   4.060  19.233  0.00  0.00    +0.000 OA
ATOM     26  C   UNL     1       3.904   3.782  17.873  0.00  0.00    +0.000 A 
ATOM     27  C   UNL     1       3.598   2.441  17.718  0.00  0.00    +0.000 A 
ATOM     28  C   UNL     1       2.286   2.068  17.986  0.00  0.00    +0.000 A 
ATOM     29  C   UNL     1       1.363   3.031  18.436  0.00  0.00    +0.000 A 
ATOM     30  C   UNL     1       1.704   4.397  18.521  0.00  0.00    +0.000 A 
ATOM     31  C   UNL     1       2.981   4.779  18.162  0.00  0.00    +0.000 A 
ENDBRANCH  20  21
ENDBRANCH   4  20
TORSDOF 4
ENDMDL
MODEL 4
REMARK VINA RESULT:      -8.3      1.735      2.740
REMARK  Name = 
REMARK  4 active torsions:
REMARK  status: ('A' for Active; 'I' for Inactive)
REMARK    1  A    between atoms: N_3  and  C_4
REMARK    2  A    between atoms: N_11  and  C_12
REMARK    3  A    between atoms: C_15  and  O_16
REMARK    4  A    between atoms: O_16  and  C_17
REMARK                            x       y       z     vdW  Elec       q    Type
REMARK                         _______ _______ _______ _____ _____    ______ ____
ROOT
ATOM      1  C   UNL     1       0.014   9.818  20.484  0.00  0.00    +0.000 A 
ATOM      2  C   UNL     1       0.328   8.798  21.385  0.00  0.00    +0.000 A 
ATOM      3  C   UNL     1       1.260   7.804  21.041  0.00  0.00    +0.000 A 
ATOM      4  C   UNL     1       1.878   7.831  19.789  0.00  0.00    +0.000 A 
ATOM      5  C   UNL     1       1.664   8.885  18.921  0.00  0.00    +0.000 A 
ATOM      6  C   UNL     1       0.717   9.865  19.265  0.00  0.00    +0.000 A 
ENDROOT
BRANCH   1  10
ATOM      7  O   UNL     1      -0.028  12.176  22.280  0.00  0.00    +0.000 OA
ATOM      8  C   UNL     1      -0.997  11.843  21.608  0.00  0.00    +0.000 C 
ATOM      9  N   UNL     1      -2.257  12.449  21.677  0.00  0.00    +0.000 N 
ATOM     10  N   UNL     1      -0.999  10.794  20.694  0.00  0.00    +0.000 N 
ATOM     11  H   UNL     1      -3.014  11.955  21.228  0.00  0.00    +0.000 HD
ATOM     12  H   UNL     1      -1.793  10.742  20.076  0.00  0.00    +0.000 HD
BRANCH   9  13
ATOM     13  C   UNL     1      -2.640  13.540  22.494  0.00  0.00    +0.000 A 
ATOM     14  C   UNL     1      -3.101  13.410  23.808  0.00  0.00    +0.000 A 
ATOM     15  C   UNL     1      -3.498  14.529  24.548  0.00  0.00    +0.000 A 
ATOM     16  C   UNL     1      -3.433  15.799  23.981  0.00  0.00    +0.000 A 
ATOM     17 BR   UNL     1      -4.001  17.307  24.970  0.00  0.00    +0.000 Br
ATOM     18  C   UNL     1      -2.955  15.957  22.684  0.00  0.00    +0.000 A 
ATOM     19  C   UNL     1      -2.553  14.834  21.949  0.00  0.00    +0.000 A 
ENDBRANCH   9  13
ENDBRANCH   1  10
BRANCH   4  20
ATOM     20  O   UNL     1       2.774   6.736  19.494  0.00  0.00    +0.000 OA
BRANCH  20  21
ATOM     21  C   UNL     1       3.070   5.634  18.685  0.00  0.00    +0.000 C 
ATOM     22  N   UNL     1       2.577   4.482  19.023  0.00  0.00    +0.000 NA
ATOM     23  S   UNL     1       3.179   3.318  18.048  0.00  0.00    +0.000 S 
ATOM     24  O   UNL     1       3.978   2.381  18.809  0.00  0.00    +0.000 OA
ATOM     25  O   UNL     1       2.189   2.906  17.083  0.00  0.00    +0.000 OA
ATOM     26  C   UNL     1       4.289   4.357  17.200  0.00  0.00    +0.000 A 
ATOM     27  C   UNL     1       5.198   3.974  16.229  0.00  0.00    +0.000 A 
ATOM     28  C   UNL     1       5.754   4.991  15.462  0.00  0.00    +0.000 A 
ATOM     29  C   UNL     1       5.347   6.323  15.666  0.00  0.00    +0.000 A 
ATOM     30  C   UNL     1       4.462   6.674  16.707  0.00  0.00    +0.000 A 
ATOM     31  C   UNL     1       3.986   5.672  17.529  0.00  0.00    +0.000 A 
ENDBRANCH  20  21
ENDBRANCH   4  20
TORSDOF 4
ENDMDL
MODEL 5
REMARK VINA RESULT:      -8.3      2.396      3.148
REMARK  Name = 
REMARK  4 active torsions:
REMARK  status: ('A' for Active; 'I' for Inactive)
REMARK    1  A    between atoms: N_3  and  C_4
REMARK    2  A    between atoms: N_11  and  C_12
REMARK    3  A    between atoms: C_15  and  O_16
REMARK    4  A    between atoms: O_16  and  C_17
REMARK                            x       y       z     vdW  Elec       q    Type
REMARK                         _______ _______ _______ _____ _____    ______ ____
ROOT
ATOM      1  C   UNL     1       0.749  10.061  19.535  0.00  0.00    +0.000 A 
ATOM      2  C   UNL     1       1.096   8.960  20.321  0.00  0.00    +0.000 A 
ATOM      3  C   UNL     1       1.855   7.909  19.781  0.00  0.00    +0.000 A 
ATOM      4  C   UNL     1       2.266   7.958  18.448  0.00  0.00    +0.000 A 
ATOM      5  C   UNL     1       2.025   9.082  17.679  0.00  0.00    +0.000 A 
ATOM      6  C   UNL     1       1.251  10.121  18.221  0.00  0.00    +0.000 A 
ENDROOT
BRANCH   1  10
ATOM      7  O   UNL     1       1.280  12.377  21.307  0.00  0.00    +0.000 OA
ATOM      8  C   UNL     1       0.167  12.138  20.852  0.00  0.00    +0.000 C 
ATOM      9  N   UNL     1      -0.995  12.842  21.186  0.00  0.00    +0.000 N 
ATOM     10  N   UNL     1      -0.112  11.111  19.956  0.00  0.00    +0.000 N 
ATOM     11  H   UNL     1      -1.867  12.420  20.904  0.00  0.00    +0.000 HD
ATOM     12  H   UNL     1      -1.020  11.136  19.518  0.00  0.00    +0.000 HD
BRANCH   9  13
ATOM     13  C   UNL     1      -1.107  13.944  22.069  0.00  0.00    +0.000 A 
ATOM     14  C   UNL     1      -1.023  15.280  21.665  0.00  0.00    +0.000 A 
ATOM     15  C   UNL     1      -1.106  16.322  22.597  0.00  0.00    +0.000 A 
ATOM     16  C   UNL     1      -1.280  16.036  23.949  0.00  0.00    +0.000 A 
ATOM     17 BR   UNL     1      -1.357  17.443  25.209  0.00  0.00    +0.000 Br
ATOM     18  C   UNL     1      -1.390  14.716  24.371  0.00  0.00    +0.000 A 
ATOM     19  C   UNL     1      -1.313  13.676  23.434  0.00  0.00    +0.000 A 
ENDBRANCH   9  13
ENDBRANCH   1  10
BRANCH   4  20
ATOM     20  O   UNL     1       2.987   6.806  17.957  0.00  0.00    +0.000 OA
BRANCH  20  21
ATOM     21  C   UNL     1       4.084   5.950  18.094  0.00  0.00    +0.000 C 
ATOM     22  N   UNL     1       4.411   5.568  19.291  0.00  0.00    +0.000 NA
ATOM     23  S   UNL     1       5.807   4.719  19.236  0.00  0.00    +0.000 S 
ATOM     24  O   UNL     1       6.850   5.412  19.961  0.00  0.00    +0.000 OA
ATOM     25  O   UNL     1       5.545   3.309  19.389  0.00  0.00    +0.000 OA
ATOM     26  C   UNL     1       6.105   4.983  17.542  0.00  0.00    +0.000 A 
ATOM     27  C   UNL     1       7.213   4.563  16.826  0.00  0.00    +0.000 A 
ATOM     28  C   UNL     1       7.106   4.594  15.440  0.00  0.00    +0.000 A 
ATOM     29  C   UNL     1       5.896   4.996  14.841  0.00  0.00    +0.000 A 
ATOM     30  C   UNL     1       4.814   5.474  15.609  0.00  0.00    +0.000 A 
ATOM     31  C   UNL     1       4.959   5.531  16.981  0.00  0.00    +0.000 A 
ENDBRANCH  20  21
ENDBRANCH   4  20
TORSDOF 4
ENDMDL
MODEL 6
REMARK VINA RESULT:      -8.3      7.408      9.370
REMARK  Name = 
REMARK  4 active torsions:
REMARK  status: ('A' for Active; 'I' for Inactive)
REMARK    1  A    between atoms: N_3  and  C_4
REMARK    2  A    between atoms: N_11  and  C_12
REMARK    3  A    between atoms: C_15  and  O_16
REMARK    4  A    between atoms: O_16  and  C_17
REMARK                            x       y       z     vdW  Elec       q    Type
REMARK                         _______ _______ _______ _____ _____    ______ ____
ROOT
ATOM      1  C   UNL     1       8.256   7.910  18.470  0.00  0.00    +0.000 A 
ATOM      2  C   UNL     1       8.249   6.664  19.103  0.00  0.00    +0.000 A 
ATOM      3  C   UNL     1       7.319   5.680  18.730  0.00  0.00    +0.000 A 
ATOM      4  C   UNL     1       6.390   5.945  17.721  0.00  0.00    +0.000 A 
ATOM      5  C   UNL     1       6.442   7.129  17.010  0.00  0.00    +0.000 A 
ATOM      6  C   UNL     1       7.364   8.114  17.401  0.00  0.00    +0.000 A 
ENDROOT
BRANCH   1  10
ATOM      7  O   UNL     1       8.147  10.762  17.670  0.00  0.00    +0.000 OA
ATOM      8  C   UNL     1       9.029  10.314  18.395  0.00  0.00    +0.000 C 
ATOM      9  N   UNL     1      10.136  11.045  18.842  0.00  0.00    +0.000 N 
ATOM     10  N   UNL     1       9.077   9.004  18.859  0.00  0.00    +0.000 N 
ATOM     11  H   UNL     1      10.884  10.510  19.257  0.00  0.00    +0.000 HD
ATOM     12  H   UNL     1       9.744   8.814  19.591  0.00  0.00    +0.000 HD
BRANCH   9  13
ATOM     13  C   UNL     1      10.433  12.403  18.571  0.00  0.00    +0.000 A 
ATOM     14  C   UNL     1       9.914  13.477  19.300  0.00  0.00    +0.000 A 
ATOM     15  C   UNL     1      10.222  14.799  18.956  0.00  0.00    +0.000 A 
ATOM     16  C   UNL     1      11.061  15.061  17.875  0.00  0.00    +0.000 A 
ATOM     17 BR   UNL     1      11.447  16.847  17.390  0.00  0.00    +0.000 Br
ATOM     18  C   UNL     1      11.609  14.008  17.150  0.00  0.00    +0.000 A 
ATOM     19  C   UNL     1      11.303  12.687  17.502  0.00  0.00    +0.000 A 
ENDBRANCH   9  13
ENDBRANCH   1  10
BRANCH   4  20
ATOM     20  O   UNL     1       5.429   4.901  17.446  0.00  0.00    +0.000 OA
BRANCH  20  21
ATOM     21  C   UNL     1       4.415   4.068  17.930  0.00  0.00    +0.000 C 
ATOM     22  N   UNL     1       4.286   2.893  17.393  0.00  0.00    +0.000 NA
ATOM     23  S   UNL     1       2.950   2.161  17.985  0.00  0.00    +0.000 S 
ATOM     24  O   UNL     1       1.981   1.947  16.932  0.00  0.00    +0.000 OA
ATOM     25  O   UNL     1       3.315   1.143  18.939  0.00  0.00    +0.000 OA
ATOM     26  C   UNL     1       2.398   3.528  18.911  0.00  0.00    +0.000 A 
ATOM     27  C   UNL     1       1.227   3.606  19.644  0.00  0.00    +0.000 A 
ATOM     28  C   UNL     1       1.133   4.652  20.556  0.00  0.00    +0.000 A 
ATOM     29  C   UNL     1       2.218   5.533  20.723  0.00  0.00    +0.000 A 
ATOM     30  C   UNL     1       3.368   5.451  19.911  0.00  0.00    +0.000 A 
ATOM     31  C   UNL     1       3.418   4.470  18.941  0.00  0.00    +0.000 A 
ENDBRANCH  20  21
ENDBRANCH   4  20
TORSDOF 4
ENDMDL
MODEL 7
REMARK VINA RESULT:      -8.2      0.361      1.312
REMARK  Name = 
REMARK  4 active torsions:
REMARK  status: ('A' for Active; 'I' for Inactive)
REMARK    1  A    between atoms: N_3  and  C_4
REMARK    2  A    between atoms: N_11  and  C_12
REMARK    3  A    between atoms: C_15  and  O_16
REMARK    4  A    between atoms: O_16  and  C_17
REMARK                            x       y       z     vdW  Elec       q    Type
REMARK                         _______ _______ _______ _____ _____    ______ ____
ROOT
ATOM      1  C   UNL     1      -0.227  10.176  19.604  0.00  0.00    +0.000 A 
ATOM      2  C   UNL     1       0.374  10.005  18.355  0.00  0.00    +0.000 A 
ATOM      3  C   UNL     1       1.403   9.063  18.182  0.00  0.00    +0.000 A 
ATOM      4  C   UNL     1       1.833   8.293  19.264  0.00  0.00    +0.000 A 
ATOM      5  C   UNL     1       1.186   8.369  20.483  0.00  0.00    +0.000 A 
ATOM      6  C   UNL     1       0.170   9.325  20.652  0.00  0.00    +0.000 A 
ENDROOT
BRANCH   1  10
ATOM      7  O   UNL     1      -0.259  12.212  21.758  0.00  0.00    +0.000 OA
ATOM      8  C   UNL     1      -1.191  12.067  20.975  0.00  0.00    +0.000 C 
ATOM      9  N   UNL     1      -2.410  12.750  21.057  0.00  0.00    +0.000 N 
ATOM     10  N   UNL     1      -1.188  11.181  19.903  0.00  0.00    +0.000 N 
ATOM     11  H   UNL     1      -3.159  12.394  20.482  0.00  0.00    +0.000 HD
ATOM     12  H   UNL     1      -1.931  11.290  19.231  0.00  0.00    +0.000 HD
BRANCH   9  13
ATOM     13  C   UNL     1      -2.786  13.723  22.015  0.00  0.00    +0.000 A 
ATOM     14  C   UNL     1      -3.250  13.418  23.299  0.00  0.00    +0.000 A 
ATOM     15  C   UNL     1      -3.639  14.430  24.185  0.00  0.00    +0.000 A 
ATOM     16  C   UNL     1      -3.561  15.765  23.796  0.00  0.00    +0.000 A 
ATOM     17 BR   UNL     1      -4.119  17.128  24.981  0.00  0.00    +0.000 Br
ATOM     18  C   UNL     1      -3.079  16.094  22.533  0.00  0.00    +0.000 A 
ATOM     19  C   UNL     1      -2.686  15.078  21.652  0.00  0.00    +0.000 A 
ENDBRANCH   9  13
ENDBRANCH   1  10
BRANCH   4  20
ATOM     20  O   UNL     1       2.939   7.397  19.013  0.00  0.00    +0.000 OA
BRANCH  20  21
ATOM     21  C   UNL     1       3.408   6.080  18.968  0.00  0.00    +0.000 C 
ATOM     22  N   UNL     1       4.562   5.864  18.417  0.00  0.00    +0.000 NA
ATOM     23  S   UNL     1       4.836   4.256  18.322  0.00  0.00    +0.000 S 
ATOM     24  O   UNL     1       4.913   3.835  16.940  0.00  0.00    +0.000 OA
ATOM     25  O   UNL     1       5.790   3.848  19.324  0.00  0.00    +0.000 OA
ATOM     26  C   UNL     1       3.270   3.778  18.911  0.00  0.00    +0.000 A 
ATOM     27  C   UNL     1       2.795   2.483  19.028  0.00  0.00    +0.000 A 
ATOM     28  C   UNL     1       1.659   2.306  19.810  0.00  0.00    +0.000 A 
ATOM     29  C   UNL     1       1.083   3.410  20.467  0.00  0.00    +0.000 A 
ATOM     30  C   UNL     1       1.565   4.721  20.269  0.00  0.00    +0.000 A 
ATOM     31  C   UNL     1       2.635   4.905  19.416  0.00  0.00    +0.000 A 
ENDBRANCH  20  21
ENDBRANCH   4  20
TORSDOF 4
ENDMDL
MODEL 8
REMARK VINA RESULT:      -8.1      5.506     11.096
REMARK  Name = 
REMARK  4 active torsions:
REMARK  status: ('A' for Active; 'I' for Inactive)
REMARK    1  A    between atoms: N_3  and  C_4
REMARK    2  A    between atoms: N_11  and  C_12
REMARK    3  A    between atoms: C_15  and  O_16
REMARK    4  A    between atoms: O_16  and  C_17
REMARK                            x       y       z     vdW  Elec       q    Type
REMARK                         _______ _______ _______ _____ _____    ______ ____
ROOT
ATOM      1  C   UNL     1       0.672   9.680  19.799  0.00  0.00    +0.000 A 
ATOM      2  C   UNL     1      -0.304   9.998  18.852  0.00  0.00    +0.000 A 
ATOM      3  C   UNL     1      -1.289  10.959  19.137  0.00  0.00    +0.000 A 
ATOM      4  C   UNL     1      -1.299  11.600  20.378  0.00  0.00    +0.000 A 
ATOM      5  C   UNL     1      -0.285  11.379  21.292  0.00  0.00    +0.000 A 
ATOM      6  C   UNL     1       0.685  10.405  21.005  0.00  0.00    +0.000 A 
ENDROOT
BRANCH   1  10
ATOM      7  O   UNL     1       2.115   8.747  17.384  0.00  0.00    +0.000 OA
ATOM      8  C   UNL     1       2.227   8.194  18.472  0.00  0.00    +0.000 C 
ATOM      9  N   UNL     1       2.944   7.013  18.692  0.00  0.00    +0.000 N 
ATOM     10  N   UNL     1       1.632   8.642  19.647  0.00  0.00    +0.000 N 
ATOM     11  H   UNL     1       2.789   6.556  19.578  0.00  0.00    +0.000 HD
ATOM     12  H   UNL     1       1.950   8.210  20.501  0.00  0.00    +0.000 HD
BRANCH   9  13
ATOM     13  C   UNL     1       3.674   6.262  17.738  0.00  0.00    +0.000 A 
ATOM     14  C   UNL     1       3.537   4.882  17.558  0.00  0.00    +0.000 A 
ATOM     15  C   UNL     1       4.317   4.195  16.620  0.00  0.00    +0.000 A 
ATOM     16  C   UNL     1       5.245   4.887  15.845  0.00  0.00    +0.000 A 
ATOM     17 BR   UNL     1       6.322   3.953  14.604  0.00  0.00    +0.000 Br
ATOM     18  C   UNL     1       5.382   6.264  15.989  0.00  0.00    +0.000 A 
ATOM     19  C   UNL     1       4.594   6.948  16.925  0.00  0.00    +0.000 A 
ENDBRANCH   9  13
ENDBRANCH   1  10
BRANCH   4  20
ATOM     20  O   UNL     1      -2.384  12.525  20.611  0.00  0.00    +0.000 OA
BRANCH  20  21
ATOM     21  C   UNL     1      -3.764  12.729  20.714  0.00  0.00    +0.000 C 
ATOM     22  N   UNL     1      -4.223  13.232  21.818  0.00  0.00    +0.000 NA
ATOM     23  S   UNL     1      -5.857  13.228  21.788  0.00  0.00    +0.000 S 
ATOM     24  O   UNL     1      -6.381  12.359  22.819  0.00  0.00    +0.000 OA
ATOM     25  O   UNL     1      -6.360  14.559  21.548  0.00  0.00    +0.000 OA
ATOM     26  C   UNL     1      -6.001  12.370  20.280  0.00  0.00    +0.000 A 
ATOM     27  C   UNL     1      -7.177  11.961  19.674  0.00  0.00    +0.000 A 
ATOM     28  C   UNL     1      -7.090  11.583  18.340  0.00  0.00    +0.000 A 
ATOM     29  C   UNL     1      -5.855  11.671  17.667  0.00  0.00    +0.000 A 
ATOM     30  C   UNL     1      -4.671  12.035  18.341  0.00  0.00    +0.000 A 
ATOM     31  C   UNL     1      -4.745  12.318  19.691  0.00  0.00    +0.000 A 
ENDBRANCH  20  21
ENDBRANCH   4  20
TORSDOF 4
ENDMDL
MODEL 9
REMARK VINA RESULT:      -8.1      5.418     11.106
REMARK  Name = 
REMARK  4 active torsions:
REMARK  status: ('A' for Active; 'I' for Inactive)
REMARK    1  A    between atoms: N_3  and  C_4
REMARK    2  A    between atoms: N_11  and  C_12
REMARK    3  A    between atoms: C_15  and  O_16
REMARK    4  A    between atoms: O_16  and  C_17
REMARK                            x       y       z     vdW  Elec       q    Type
REMARK                         _______ _______ _______ _____ _____    ______ ____
ROOT
ATOM      1  C   UNL     1       0.577   9.713  19.801  0.00  0.00    +0.000 A 
ATOM      2  C   UNL     1      -0.498   9.940  18.938  0.00  0.00    +0.000 A 
ATOM      3  C   UNL     1      -1.452  10.929  19.233  0.00  0.00    +0.000 A 
ATOM      4  C   UNL     1      -1.330  11.691  20.397  0.00  0.00    +0.000 A 
ATOM      5  C   UNL     1      -0.222  11.557  21.212  0.00  0.00    +0.000 A 
ATOM      6  C   UNL     1       0.717  10.555  20.920  0.00  0.00    +0.000 A 
ENDROOT
BRANCH   1  10
ATOM      7  O   UNL     1       2.246   8.961  17.470  0.00  0.00    +0.000 OA
ATOM      8  C   UNL     1       2.227   8.304  18.505  0.00  0.00    +0.000 C 
ATOM      9  N   UNL     1       2.886   7.083  18.683  0.00  0.00    +0.000 N 
ATOM     10  N   UNL     1       1.521   8.660  19.649  0.00  0.00    +0.000 N 
ATOM     11  H   UNL     1       2.625   6.550  19.500  0.00  0.00    +0.000 HD
ATOM     12  H   UNL     1       1.735   8.139  20.486  0.00  0.00    +0.000 HD
BRANCH   9  13
ATOM     13  C   UNL     1       3.695   6.399  17.742  0.00  0.00    +0.000 A 
ATOM     14  C   UNL     1       4.655   7.022  16.939  0.00  0.00    +0.000 A 
ATOM     15  C   UNL     1       5.396   6.292  16.002  0.00  0.00    +0.000 A 
ATOM     16  C   UNL     1       5.187   4.922  15.862  0.00  0.00    +0.000 A 
ATOM     17 BR   UNL     1       6.164   3.943  14.573  0.00  0.00    +0.000 Br
ATOM     18  C   UNL     1       4.254   4.276  16.667  0.00  0.00    +0.000 A 
ATOM     19  C   UNL     1       3.519   5.010  17.607  0.00  0.00    +0.000 A 
ENDBRANCH   9  13
ENDBRANCH   1  10
BRANCH   4  20
ATOM     20  O   UNL     1      -2.389  12.640  20.654  0.00  0.00    +0.000 OA
BRANCH  20  21
ATOM     21  C   UNL     1      -3.704  12.860  21.078  0.00  0.00    +0.000 C 
ATOM     22  N   UNL     1      -3.884  13.390  22.249  0.00  0.00    +0.000 NA
ATOM     23  S   UNL     1      -5.477  13.402  22.609  0.00  0.00    +0.000 S 
ATOM     24  O   UNL     1      -5.745  12.559  23.755  0.00  0.00    +0.000 OA
ATOM     25  O   UNL     1      -6.016  14.733  22.468  0.00  0.00    +0.000 OA
ATOM     26  C   UNL     1      -5.982  12.516  21.199  0.00  0.00    +0.000 A 
ATOM     27  C   UNL     1      -7.270  12.108  20.900  0.00  0.00    +0.000 A 
ATOM     28  C   UNL     1      -7.506  11.701  19.592  0.00  0.00    +0.000 A 
ATOM     29  C   UNL     1      -6.468  11.764  18.642  0.00  0.00    +0.000 A 
ATOM     30  C   UNL     1      -5.155  12.128  19.006  0.00  0.00    +0.000 A 
ATOM     31  C   UNL     1      -4.903  12.439  20.328  0.00  0.00    +0.000 A 
ENDBRANCH  20  21
ENDBRANCH   4  20
TORSDOF 4
ENDMDL
