MODEL 1
REMARK VINA RESULT:      -6.6      0.000      0.000
REMARK  Name = 
REMARK  3 active torsions:
REMARK  status: ('A' for Active; 'I' for Inactive)
REMARK    1  A    between atoms: C_1  and  O_2
REMARK    2  A    between atoms: O_2  and  C_3
REMARK    3  A    between atoms: C_6  and  N_7
REMARK                            x       y       z     vdW  Elec       q    Type
REMARK                         _______ _______ _______ _____ _____    ______ ____
ROOT
ATOM      1  C   UNL     1       6.655   5.613  16.612  0.00  0.00    +0.000 A 
ATOM      2  C   UNL     1       5.323   5.976  16.428  0.00  0.00    +0.000 A 
ATOM      3  C   UNL     1       4.420   5.942  17.499  0.00  0.00    +0.000 A 
ATOM      4  C   UNL     1       4.825   5.515  18.772  0.00  0.00    +0.000 A 
ATOM      5  C   UNL     1       6.173   5.184  18.941  0.00  0.00    +0.000 A 
ATOM      6  C   UNL     1       7.079   5.218  17.876  0.00  0.00    +0.000 A 
ENDROOT
BRANCH   4   7
ATOM      7  N   UNL     1       3.865   5.415  19.798  0.00  0.00    +0.000 N 
ATOM      8  C   UNL     1       2.997   4.370  20.011  0.00  0.00    +0.000 C 
ATOM      9  N   UNL     1       3.082   3.160  19.550  0.00  0.00    +0.000 NA
ATOM     10  C   UNL     1       1.877   2.438  19.981  0.00  0.00    +0.000 C 
ATOM     11  C   UNL     1       1.347   3.218  21.167  0.00  0.00    +0.000 C 
ATOM     12  C   UNL     1       1.764   4.630  20.840  0.00  0.00    +0.000 C 
ATOM     13  H   UNL     1       3.609   6.304  20.204  0.00  0.00    +0.000 HD
ENDBRANCH   4   7
BRANCH   1  15
ATOM     14  C   UNL     1       6.989   4.840  14.407  0.00  0.00    +0.000 C 
ATOM     15  O   UNL     1       7.438   5.646  15.492  0.00  0.00    +0.000 OA
ENDBRANCH   1  15
TORSDOF 2
ENDMDL
MODEL 2
REMARK VINA RESULT:      -6.3      1.359      1.605
REMARK  Name = 
REMARK  3 active torsions:
REMARK  status: ('A' for Active; 'I' for Inactive)
REMARK    1  A    between atoms: C_1  and  O_2
REMARK    2  A    between atoms: O_2  and  C_3
REMARK    3  A    between atoms: C_6  and  N_7
REMARK                            x       y       z     vdW  Elec       q    Type
REMARK                         _______ _______ _______ _____ _____    ______ ____
ROOT
ATOM      1  C   UNL     1       5.973   5.516  16.121  0.00  0.00    +0.000 A 
ATOM      2  C   UNL     1       5.373   4.259  16.141  0.00  0.00    +0.000 A 
ATOM      3  C   UNL     1       4.176   4.051  16.839  0.00  0.00    +0.000 A 
ATOM      4  C   UNL     1       3.570   5.092  17.558  0.00  0.00    +0.000 A 
ATOM      5  C   UNL     1       4.173   6.351  17.500  0.00  0.00    +0.000 A 
ATOM      6  C   UNL     1       5.366   6.564  16.802  0.00  0.00    +0.000 A 
ENDROOT
BRANCH   4   7
ATOM      7  N   UNL     1       2.414   4.816  18.316  0.00  0.00    +0.000 N 
ATOM      8  C   UNL     1       2.333   4.007  19.424  0.00  0.00    +0.000 C 
ATOM      9  N   UNL     1       3.303   3.601  20.184  0.00  0.00    +0.000 NA
ATOM     10  C   UNL     1       2.728   2.690  21.184  0.00  0.00    +0.000 C 
ATOM     11  C   UNL     1       1.251   3.025  21.228  0.00  0.00    +0.000 C 
ATOM     12  C   UNL     1       0.977   3.472  19.813  0.00  0.00    +0.000 C 
ATOM     13  H   UNL     1       1.551   4.989  17.819  0.00  0.00    +0.000 HD
ENDBRANCH   4   7
BRANCH   1  15
ATOM     14  C   UNL     1       7.203   4.892  14.206  0.00  0.00    +0.000 C 
ATOM     15  O   UNL     1       7.157   5.597  15.442  0.00  0.00    +0.000 OA
ENDBRANCH   1  15
TORSDOF 2
ENDMDL
MODEL 3
REMARK VINA RESULT:      -6.3      0.473      1.363
REMARK  Name = 
REMARK  3 active torsions:
REMARK  status: ('A' for Active; 'I' for Inactive)
REMARK    1  A    between atoms: C_1  and  O_2
REMARK    2  A    between atoms: O_2  and  C_3
REMARK    3  A    between atoms: C_6  and  N_7
REMARK                            x       y       z     vdW  Elec       q    Type
REMARK                         _______ _______ _______ _____ _____    ______ ____
ROOT
ATOM      1  C   UNL     1       6.610   5.338  16.091  0.00  0.00    +0.000 A 
ATOM      2  C   UNL     1       7.096   4.851  17.302  0.00  0.00    +0.000 A 
ATOM      3  C   UNL     1       6.260   4.767  18.423  0.00  0.00    +0.000 A 
ATOM      4  C   UNL     1       4.926   5.196  18.364  0.00  0.00    +0.000 A 
ATOM      5  C   UNL     1       4.451   5.652  17.131  0.00  0.00    +0.000 A 
ATOM      6  C   UNL     1       5.281   5.736  16.008  0.00  0.00    +0.000 A 
ENDROOT
BRANCH   4   7
ATOM      7  N   UNL     1       4.146   5.173  19.537  0.00  0.00    +0.000 N 
ATOM      8  C   UNL     1       3.173   4.256  19.858  0.00  0.00    +0.000 C 
ATOM      9  N   UNL     1       2.991   3.079  19.344  0.00  0.00    +0.000 NA
ATOM     10  C   UNL     1       1.776   2.516  19.951  0.00  0.00    +0.000 C 
ATOM     11  C   UNL     1       1.580   3.287  21.240  0.00  0.00    +0.000 C 
ATOM     12  C   UNL     1       2.152   4.641  20.900  0.00  0.00    +0.000 C 
ATOM     13  H   UNL     1       4.103   6.062  20.015  0.00  0.00    +0.000 HD
ENDBRANCH   4   7
BRANCH   1  15
ATOM     14  C   UNL     1       7.132   4.788  13.856  0.00  0.00    +0.000 C 
ATOM     15  O   UNL     1       7.521   5.413  15.074  0.00  0.00    +0.000 OA
ENDBRANCH   1  15
TORSDOF 2
ENDMDL
MODEL 4
REMARK VINA RESULT:      -6.3      1.535      1.675
REMARK  Name = 
REMARK  3 active torsions:
REMARK  status: ('A' for Active; 'I' for Inactive)
REMARK    1  A    between atoms: C_1  and  O_2
REMARK    2  A    between atoms: O_2  and  C_3
REMARK    3  A    between atoms: C_6  and  N_7
REMARK                            x       y       z     vdW  Elec       q    Type
REMARK                         _______ _______ _______ _____ _____    ______ ____
ROOT
ATOM      1  C   UNL     1       5.462   5.484  15.846  0.00  0.00    +0.000 A 
ATOM      2  C   UNL     1       4.894   6.500  16.610  0.00  0.00    +0.000 A 
ATOM      3  C   UNL     1       3.868   6.218  17.521  0.00  0.00    +0.000 A 
ATOM      4  C   UNL     1       3.368   4.915  17.665  0.00  0.00    +0.000 A 
ATOM      5  C   UNL     1       3.973   3.907  16.911  0.00  0.00    +0.000 A 
ATOM      6  C   UNL     1       5.000   4.183  16.001  0.00  0.00    +0.000 A 
ENDROOT
BRANCH   4   7
ATOM      7  N   UNL     1       2.278   4.692  18.530  0.00  0.00    +0.000 N 
ATOM      8  C   UNL     1       2.264   3.881  19.641  0.00  0.00    +0.000 C 
ATOM      9  N   UNL     1       3.282   3.425  20.304  0.00  0.00    +0.000 NA
ATOM     10  C   UNL     1       2.762   2.537  21.353  0.00  0.00    +0.000 C 
ATOM     11  C   UNL     1       1.314   2.943  21.539  0.00  0.00    +0.000 C 
ATOM     12  C   UNL     1       0.927   3.411  20.158  0.00  0.00    +0.000 C 
ATOM     13  H   UNL     1       1.381   4.909  18.119  0.00  0.00    +0.000 HD
ENDBRANCH   4   7
BRANCH   1  15
ATOM     14  C   UNL     1       7.013   4.835  14.189  0.00  0.00    +0.000 C 
ATOM     15  O   UNL     1       6.428   5.878  14.962  0.00  0.00    +0.000 OA
ENDBRANCH   1  15
TORSDOF 2
ENDMDL
MODEL 5
REMARK VINA RESULT:      -6.1      1.341      2.305
REMARK  Name = 
REMARK  3 active torsions:
REMARK  status: ('A' for Active; 'I' for Inactive)
REMARK    1  A    between atoms: C_1  and  O_2
REMARK    2  A    between atoms: O_2  and  C_3
REMARK    3  A    between atoms: C_6  and  N_7
REMARK                            x       y       z     vdW  Elec       q    Type
REMARK                         _______ _______ _______ _____ _____    ______ ____
ROOT
ATOM      1  C   UNL     1       6.754   6.124  16.943  0.00  0.00    +0.000 A 
ATOM      2  C   UNL     1       6.799   5.609  18.237  0.00  0.00    +0.000 A 
ATOM      3  C   UNL     1       5.858   4.662  18.661  0.00  0.00    +0.000 A 
ATOM      4  C   UNL     1       4.832   4.231  17.806  0.00  0.00    +0.000 A 
ATOM      5  C   UNL     1       4.824   4.737  16.504  0.00  0.00    +0.000 A 
ATOM      6  C   UNL     1       5.763   5.682  16.075  0.00  0.00    +0.000 A 
ENDROOT
BRANCH   4   7
ATOM      7  N   UNL     1       3.857   3.343  18.302  0.00  0.00    +0.000 N 
ATOM      8  C   UNL     1       2.847   3.642  19.187  0.00  0.00    +0.000 C 
ATOM      9  N   UNL     1       2.380   4.813  19.492  0.00  0.00    +0.000 NA
ATOM     10  C   UNL     1       1.371   4.624  20.544  0.00  0.00    +0.000 C 
ATOM     11  C   UNL     1       0.949   3.173  20.437  0.00  0.00    +0.000 C 
ATOM     12  C   UNL     1       2.208   2.504  19.943  0.00  0.00    +0.000 C 
ATOM     13  H   UNL     1       4.118   2.369  18.228  0.00  0.00    +0.000 HD
ENDBRANCH   4   7
BRANCH   1  15
ATOM     14  C   UNL     1       7.828   8.120  17.602  0.00  0.00    +0.000 C 
ATOM     15  O   UNL     1       7.697   7.069  16.649  0.00  0.00    +0.000 OA
ENDBRANCH   1  15
TORSDOF 2
ENDMDL
MODEL 6
REMARK VINA RESULT:      -6.0      1.233      1.423
REMARK  Name = 
REMARK  3 active torsions:
REMARK  status: ('A' for Active; 'I' for Inactive)
REMARK    1  A    between atoms: C_1  and  O_2
REMARK    2  A    between atoms: O_2  and  C_3
REMARK    3  A    between atoms: C_6  and  N_7
REMARK                            x       y       z     vdW  Elec       q    Type
REMARK                         _______ _______ _______ _____ _____    ______ ____
ROOT
ATOM      1  C   UNL     1       6.531   5.205  16.576  0.00  0.00    +0.000 A 
ATOM      2  C   UNL     1       5.586   4.232  16.260  0.00  0.00    +0.000 A 
ATOM      3  C   UNL     1       4.854   3.594  17.270  0.00  0.00    +0.000 A 
ATOM      4  C   UNL     1       5.075   3.896  18.622  0.00  0.00    +0.000 A 
ATOM      5  C   UNL     1       6.006   4.896  18.914  0.00  0.00    +0.000 A 
ATOM      6  C   UNL     1       6.737   5.538  17.909  0.00  0.00    +0.000 A 
ENDROOT
BRANCH   4   7
ATOM      7  N   UNL     1       4.379   3.169  19.608  0.00  0.00    +0.000 N 
ATOM      8  C   UNL     1       3.092   3.393  20.037  0.00  0.00    +0.000 C 
ATOM      9  N   UNL     1       2.160   4.068  19.436  0.00  0.00    +0.000 NA
ATOM     10  C   UNL     1       0.992   4.095  20.327  0.00  0.00    +0.000 C 
ATOM     11  C   UNL     1       1.184   2.929  21.275  0.00  0.00    +0.000 C 
ATOM     12  C   UNL     1       2.686   2.840  21.381  0.00  0.00    +0.000 C 
ATOM     13  H   UNL     1       4.981   2.655  20.236  0.00  0.00    +0.000 HD
ENDBRANCH   4   7
BRANCH   1  15
ATOM     14  C   UNL     1       7.104   5.010  14.294  0.00  0.00    +0.000 C 
ATOM     15  O   UNL     1       7.213   5.734  15.515  0.00  0.00    +0.000 OA
ENDBRANCH   1  15
TORSDOF 2
ENDMDL
MODEL 7
REMARK VINA RESULT:      -6.0      1.514      2.078
REMARK  Name = 
REMARK  3 active torsions:
REMARK  status: ('A' for Active; 'I' for Inactive)
REMARK    1  A    between atoms: C_1  and  O_2
REMARK    2  A    between atoms: O_2  and  C_3
REMARK    3  A    between atoms: C_6  and  N_7
REMARK                            x       y       z     vdW  Elec       q    Type
REMARK                         _______ _______ _______ _____ _____    ______ ____
ROOT
ATOM      1  C   UNL     1       6.829   6.724  17.366  0.00  0.00    +0.000 A 
ATOM      2  C   UNL     1       5.663   6.576  16.617  0.00  0.00    +0.000 A 
ATOM      3  C   UNL     1       4.709   5.611  16.965  0.00  0.00    +0.000 A 
ATOM      4  C   UNL     1       4.916   4.752  18.055  0.00  0.00    +0.000 A 
ATOM      5  C   UNL     1       6.077   4.939  18.810  0.00  0.00    +0.000 A 
ATOM      6  C   UNL     1       7.032   5.903  18.468  0.00  0.00    +0.000 A 
ENDROOT
BRANCH   4   7
ATOM      7  N   UNL     1       3.971   3.740  18.318  0.00  0.00    +0.000 N 
ATOM      8  C   UNL     1       2.891   3.826  19.165  0.00  0.00    +0.000 C 
ATOM      9  N   UNL     1       2.331   4.899  19.631  0.00  0.00    +0.000 NA
ATOM     10  C   UNL     1       1.272   4.476  20.558  0.00  0.00    +0.000 C 
ATOM     11  C   UNL     1       0.952   3.046  20.174  0.00  0.00    +0.000 C 
ATOM     12  C   UNL     1       2.280   2.541  19.666  0.00  0.00    +0.000 C 
ATOM     13  H   UNL     1       4.299   2.810  18.097  0.00  0.00    +0.000 HD
ENDBRANCH   4   7
BRANCH   1  15
ATOM     14  C   UNL     1       8.009   8.715  17.832  0.00  0.00    +0.000 C 
ATOM     15  O   UNL     1       7.707   7.670  16.913  0.00  0.00    +0.000 OA
ENDBRANCH   1  15
TORSDOF 2
ENDMDL
MODEL 8
REMARK VINA RESULT:      -6.0      1.416      2.237
REMARK  Name = 
REMARK  3 active torsions:
REMARK  status: ('A' for Active; 'I' for Inactive)
REMARK    1  A    between atoms: C_1  and  O_2
REMARK    2  A    between atoms: O_2  and  C_3
REMARK    3  A    between atoms: C_6  and  N_7
REMARK                            x       y       z     vdW  Elec       q    Type
REMARK                         _______ _______ _______ _____ _____    ______ ____
ROOT
ATOM      1  C   UNL     1       6.454   6.294  17.032  0.00  0.00    +0.000 A 
ATOM      2  C   UNL     1       6.549   4.923  17.260  0.00  0.00    +0.000 A 
ATOM      3  C   UNL     1       5.405   4.166  17.543  0.00  0.00    +0.000 A 
ATOM      4  C   UNL     1       4.143   4.771  17.633  0.00  0.00    +0.000 A 
ATOM      5  C   UNL     1       4.066   6.141  17.370  0.00  0.00    +0.000 A 
ATOM      6  C   UNL     1       5.205   6.901  17.085  0.00  0.00    +0.000 A 
ENDROOT
BRANCH   4   7
ATOM      7  N   UNL     1       3.032   3.986  18.004  0.00  0.00    +0.000 N 
ATOM      8  C   UNL     1       2.574   3.765  19.281  0.00  0.00    +0.000 C 
ATOM      9  N   UNL     1       2.834   4.454  20.349  0.00  0.00    +0.000 NA
ATOM     10  C   UNL     1       2.184   3.777  21.480  0.00  0.00    +0.000 C 
ATOM     11  C   UNL     1       1.101   2.917  20.862  0.00  0.00    +0.000 C 
ATOM     12  C   UNL     1       1.692   2.564  19.519  0.00  0.00    +0.000 C 
ATOM     13  H   UNL     1       2.758   3.312  17.303  0.00  0.00    +0.000 HD
ENDBRANCH   4   7
BRANCH   1  15
ATOM     14  C   UNL     1       7.866   8.098  17.600  0.00  0.00    +0.000 C 
ATOM     15  O   UNL     1       7.637   6.940  16.803  0.00  0.00    +0.000 OA
ENDBRANCH   1  15
TORSDOF 2
ENDMDL
MODEL 9
REMARK VINA RESULT:      -6.0      1.567      2.056
REMARK  Name = 
REMARK  3 active torsions:
REMARK  status: ('A' for Active; 'I' for Inactive)
REMARK    1  A    between atoms: C_1  and  O_2
REMARK    2  A    between atoms: O_2  and  C_3
REMARK    3  A    between atoms: C_6  and  N_7
REMARK                            x       y       z     vdW  Elec       q    Type
REMARK                         _______ _______ _______ _____ _____    ______ ____
ROOT
ATOM      1  C   UNL     1       6.651   6.326  16.998  0.00  0.00    +0.000 A 
ATOM      2  C   UNL     1       5.442   7.006  17.130  0.00  0.00    +0.000 A 
ATOM      3  C   UNL     1       4.251   6.305  17.356  0.00  0.00    +0.000 A 
ATOM      4  C   UNL     1       4.239   4.904  17.425  0.00  0.00    +0.000 A 
ATOM      5  C   UNL     1       5.467   4.245  17.321  0.00  0.00    +0.000 A 
ATOM      6  C   UNL     1       6.660   4.940  17.098  0.00  0.00    +0.000 A 
ENDROOT
BRANCH   4   7
ATOM      7  N   UNL     1       3.007   4.236  17.569  0.00  0.00    +0.000 N 
ATOM      8  C   UNL     1       2.401   3.875  18.749  0.00  0.00    +0.000 C 
ATOM      9  N   UNL     1       2.643   4.334  19.939  0.00  0.00    +0.000 NA
ATOM     10  C   UNL     1       1.804   3.579  20.880  0.00  0.00    +0.000 C 
ATOM     11  C   UNL     1       0.685   2.998  20.042  0.00  0.00    +0.000 C 
ATOM     12  C   UNL     1       1.354   2.790  18.705  0.00  0.00    +0.000 C 
ATOM     13  H   UNL     1       2.718   3.734  16.741  0.00  0.00    +0.000 HD
ENDBRANCH   4   7
BRANCH   1  15
ATOM     14  C   UNL     1       7.938   8.201  17.631  0.00  0.00    +0.000 C 
ATOM     15  O   UNL     1       7.744   7.106  16.741  0.00  0.00    +0.000 OA
ENDBRANCH   1  15
TORSDOF 2
ENDMDL
