MODEL 1
REMARK VINA RESULT:      -7.3      0.000      0.000
REMARK  Name = 
REMARK  4 active torsions:
REMARK  status: ('A' for Active; 'I' for Inactive)
REMARK    1  A    between atoms: C_1  and  O_2
REMARK    2  A    between atoms: O_2  and  C_3
REMARK    3  A    between atoms: C_9  and  C_10
REMARK    4  A    between atoms: C_16  and  C_17
REMARK                            x       y       z     vdW  Elec       q    Type
REMARK                         _______ _______ _______ _____ _____    ______ ____
ROOT
ATOM      1  C   UNL     1       3.468   4.467  19.218  0.00  0.00    +0.000 A 
ATOM      2  C   UNL     1       3.704   5.022  17.959  0.00  0.00    +0.000 A 
ATOM      3  C   UNL     1       3.264   6.313  17.664  0.00  0.00    +0.000 A 
ATOM      4  C   UNL     1       2.594   7.052  18.642  0.00  0.00    +0.000 A 
ATOM      5  C   UNL     1       2.086   8.411  18.345  0.00  0.00    +0.000 A 
ATOM      6  O   UNL     1       2.332   8.935  17.262  0.00  0.00    +0.000 OA
ATOM      7  C   UNL     1       1.258   9.101  19.395  0.00  0.00    +0.000 A 
ATOM      8  C   UNL     1       1.155   8.513  20.613  0.00  0.00    +0.000 A 
ATOM      9  C   UNL     1       0.380   9.112  21.766  0.00  0.00    +0.000 C 
ATOM     10  N   UNL     1       1.748   7.296  20.900  0.00  0.00    +0.000 N 
ATOM     11  C   UNL     1       2.378   6.521  19.919  0.00  0.00    +0.000 A 
ATOM     12  C   UNL     1       2.829   5.226  20.204  0.00  0.00    +0.000 A 
ATOM     13  H   UNL     1       1.535   6.863  21.791  0.00  0.00    +0.000 HD
ENDROOT
BRANCH   7  14
ATOM     14  C   UNL     1       0.579  10.359  19.047  0.00  0.00    +0.000 A 
ATOM     15  C   UNL     1      -0.731  10.355  18.557  0.00  0.00    +0.000 A 
ATOM     16  C   UNL     1      -1.362  11.556  18.226  0.00  0.00    +0.000 A 
ATOM     17  C   UNL     1      -0.686  12.767  18.382  0.00  0.00    +0.000 A 
ATOM     18  C   UNL     1       0.619  12.779  18.870  0.00  0.00    +0.000 A 
ATOM     19  C   UNL     1       1.251  11.580  19.201  0.00  0.00    +0.000 A 
ENDBRANCH   7  14
BRANCH   1  21
ATOM     20  C   UNL     1       3.509   2.239  18.437  0.00  0.00    +0.000 C 
ATOM     21  O   UNL     1       3.943   3.197  19.398  0.00  0.00    +0.000 OA
ENDBRANCH   1  21
TORSDOF 2
ENDMDL
MODEL 2
REMARK VINA RESULT:      -7.3      0.149      1.091
REMARK  Name = 
REMARK  4 active torsions:
REMARK  status: ('A' for Active; 'I' for Inactive)
REMARK    1  A    between atoms: C_1  and  O_2
REMARK    2  A    between atoms: O_2  and  C_3
REMARK    3  A    between atoms: C_9  and  C_10
REMARK    4  A    between atoms: C_16  and  C_17
REMARK                            x       y       z     vdW  Elec       q    Type
REMARK                         _______ _______ _______ _____ _____    ______ ____
ROOT
ATOM      1  C   UNL     1       3.282   4.482  19.343  0.00  0.00    +0.000 A 
ATOM      2  C   UNL     1       3.527   4.998  18.069  0.00  0.00    +0.000 A 
ATOM      3  C   UNL     1       3.130   6.295  17.746  0.00  0.00    +0.000 A 
ATOM      4  C   UNL     1       2.492   7.081  18.711  0.00  0.00    +0.000 A 
ATOM      5  C   UNL     1       2.029   8.449  18.384  0.00  0.00    +0.000 A 
ATOM      6  O   UNL     1       2.285   8.939  17.287  0.00  0.00    +0.000 OA
ATOM      7  C   UNL     1       1.233   9.192  19.422  0.00  0.00    +0.000 A 
ATOM      8  C   UNL     1       1.118   8.636  20.655  0.00  0.00    +0.000 A 
ATOM      9  C   UNL     1       0.372   9.288  21.797  0.00  0.00    +0.000 C 
ATOM     10  N   UNL     1       1.671   7.406  20.967  0.00  0.00    +0.000 N 
ATOM     11  C   UNL     1       2.268   6.587  20.001  0.00  0.00    +0.000 A 
ATOM     12  C   UNL     1       2.676   5.285  20.314  0.00  0.00    +0.000 A 
ATOM     13  H   UNL     1       1.449   7.002  21.869  0.00  0.00    +0.000 HD
ENDROOT
BRANCH   7  14
ATOM     14  C   UNL     1       0.595  10.464  19.048  0.00  0.00    +0.000 A 
ATOM     15  C   UNL     1       1.274  11.678  19.200  0.00  0.00    +0.000 A 
ATOM     16  C   UNL     1       0.655  12.878  18.846  0.00  0.00    +0.000 A 
ATOM     17  C   UNL     1      -0.646  12.871  18.339  0.00  0.00    +0.000 A 
ATOM     18  C   UNL     1      -1.327  11.666  18.184  0.00  0.00    +0.000 A 
ATOM     19  C   UNL     1      -0.711  10.466  18.538  0.00  0.00    +0.000 A 
ENDBRANCH   7  14
BRANCH   1  21
ATOM     20  C   UNL     1       3.502   2.300  18.467  0.00  0.00    +0.000 C 
ATOM     21  O   UNL     1       3.715   3.200  19.550  0.00  0.00    +0.000 OA
ENDBRANCH   1  21
TORSDOF 2
ENDMDL
MODEL 3
REMARK VINA RESULT:      -7.2      2.150      6.397
REMARK  Name = 
REMARK  4 active torsions:
REMARK  status: ('A' for Active; 'I' for Inactive)
REMARK    1  A    between atoms: C_1  and  O_2
REMARK    2  A    between atoms: O_2  and  C_3
REMARK    3  A    between atoms: C_9  and  C_10
REMARK    4  A    between atoms: C_16  and  C_17
REMARK                            x       y       z     vdW  Elec       q    Type
REMARK                         _______ _______ _______ _____ _____    ______ ____
ROOT
ATOM      1  C   UNL     1       0.442   9.332  20.837  0.00  0.00    +0.000 A 
ATOM      2  C   UNL     1       0.652   9.985  19.621  0.00  0.00    +0.000 A 
ATOM      3  C   UNL     1       1.480   9.419  18.651  0.00  0.00    +0.000 A 
ATOM      4  C   UNL     1       2.091   8.187  18.901  0.00  0.00    +0.000 A 
ATOM      5  C   UNL     1       3.002   7.581  17.904  0.00  0.00    +0.000 A 
ATOM      6  O   UNL     1       3.155   8.114  16.808  0.00  0.00    +0.000 OA
ATOM      7  C   UNL     1       3.732   6.322  18.287  0.00  0.00    +0.000 A 
ATOM      8  C   UNL     1       3.397   5.723  19.457  0.00  0.00    +0.000 A 
ATOM      9  C   UNL     1       4.030   4.440  19.948  0.00  0.00    +0.000 C 
ATOM     10  N   UNL     1       2.447   6.252  20.314  0.00  0.00    +0.000 N 
ATOM     11  C   UNL     1       1.865   7.507  20.103  0.00  0.00    +0.000 A 
ATOM     12  C   UNL     1       1.027   8.083  21.066  0.00  0.00    +0.000 A 
ATOM     13  H   UNL     1       2.332   5.814  21.221  0.00  0.00    +0.000 HD
ENDROOT
BRANCH   7  14
ATOM     14  C   UNL     1       4.786   5.816  17.394  0.00  0.00    +0.000 A 
ATOM     15  C   UNL     1       4.517   4.801  16.469  0.00  0.00    +0.000 A 
ATOM     16  C   UNL     1       5.529   4.327  15.632  0.00  0.00    +0.000 A 
ATOM     17  C   UNL     1       6.815   4.863  15.715  0.00  0.00    +0.000 A 
ATOM     18  C   UNL     1       7.090   5.875  16.633  0.00  0.00    +0.000 A 
ATOM     19  C   UNL     1       6.080   6.350  17.472  0.00  0.00    +0.000 A 
ENDBRANCH   7  14
BRANCH   1  21
ATOM     20  C   UNL     1      -0.220   9.629  23.084  0.00  0.00    +0.000 C 
ATOM     21  O   UNL     1      -0.388   9.977  21.713  0.00  0.00    +0.000 OA
ENDBRANCH   1  21
TORSDOF 2
ENDMDL
MODEL 4
REMARK VINA RESULT:      -7.1      2.211      6.443
REMARK  Name = 
REMARK  4 active torsions:
REMARK  status: ('A' for Active; 'I' for Inactive)
REMARK    1  A    between atoms: C_1  and  O_2
REMARK    2  A    between atoms: O_2  and  C_3
REMARK    3  A    between atoms: C_9  and  C_10
REMARK    4  A    between atoms: C_16  and  C_17
REMARK                            x       y       z     vdW  Elec       q    Type
REMARK                         _______ _______ _______ _____ _____    ______ ____
ROOT
ATOM      1  C   UNL     1       0.370   9.008  21.061  0.00  0.00    +0.000 A 
ATOM      2  C   UNL     1       0.547   9.734  19.882  0.00  0.00    +0.000 A 
ATOM      3  C   UNL     1       1.394   9.256  18.881  0.00  0.00    +0.000 A 
ATOM      4  C   UNL     1       2.057   8.040  19.063  0.00  0.00    +0.000 A 
ATOM      5  C   UNL     1       2.988   7.526  18.031  0.00  0.00    +0.000 A 
ATOM      6  O   UNL     1       3.114   8.123  16.965  0.00  0.00    +0.000 OA
ATOM      7  C   UNL     1       3.771   6.280  18.344  0.00  0.00    +0.000 A 
ATOM      8  C   UNL     1       3.468   5.606  19.482  0.00  0.00    +0.000 A 
ATOM      9  C   UNL     1       4.156   4.326  19.901  0.00  0.00    +0.000 C 
ATOM     10  N   UNL     1       2.501   6.048  20.368  0.00  0.00    +0.000 N 
ATOM     11  C   UNL     1       1.865   7.287  20.226  0.00  0.00    +0.000 A 
ATOM     12  C   UNL     1       1.009   7.775  21.221  0.00  0.00    +0.000 A 
ATOM     13  H   UNL     1       2.408   5.557  21.251  0.00  0.00    +0.000 HD
ENDROOT
BRANCH   7  14
ATOM     14  C   UNL     1       4.842   5.868  17.423  0.00  0.00    +0.000 A 
ATOM     15  C   UNL     1       6.128   6.409  17.532  0.00  0.00    +0.000 A 
ATOM     16  C   UNL     1       7.134   6.012  16.649  0.00  0.00    +0.000 A 
ATOM     17  C   UNL     1       6.860   5.074  15.652  0.00  0.00    +0.000 A 
ATOM     18  C   UNL     1       5.582   4.531  15.538  0.00  0.00    +0.000 A 
ATOM     19  C   UNL     1       4.575   4.926  16.420  0.00  0.00    +0.000 A 
ENDBRANCH   7  14
BRANCH   1  21
ATOM     20  C   UNL     1      -0.023   9.567  23.321  0.00  0.00    +0.000 C 
ATOM     21  O   UNL     1      -0.482   9.569  21.973  0.00  0.00    +0.000 OA
ENDBRANCH   1  21
TORSDOF 2
ENDMDL
MODEL 5
REMARK VINA RESULT:      -7.1      4.013      6.758
REMARK  Name = 
REMARK  4 active torsions:
REMARK  status: ('A' for Active; 'I' for Inactive)
REMARK    1  A    between atoms: C_1  and  O_2
REMARK    2  A    between atoms: O_2  and  C_3
REMARK    3  A    between atoms: C_9  and  C_10
REMARK    4  A    between atoms: C_16  and  C_17
REMARK                            x       y       z     vdW  Elec       q    Type
REMARK                         _______ _______ _______ _____ _____    ______ ____
ROOT
ATOM      1  C   UNL     1       6.844   5.211  14.562  0.00  0.00    +0.000 A 
ATOM      2  C   UNL     1       6.672   3.826  14.611  0.00  0.00    +0.000 A 
ATOM      3  C   UNL     1       5.763   3.261  15.505  0.00  0.00    +0.000 A 
ATOM      4  C   UNL     1       5.017   4.091  16.347  0.00  0.00    +0.000 A 
ATOM      5  C   UNL     1       4.071   3.515  17.329  0.00  0.00    +0.000 A 
ATOM      6  O   UNL     1       3.867   2.304  17.349  0.00  0.00    +0.000 OA
ATOM      7  C   UNL     1       3.398   4.452  18.296  0.00  0.00    +0.000 A 
ATOM      8  C   UNL     1       3.570   5.785  18.113  0.00  0.00    +0.000 A 
ATOM      9  C   UNL     1       2.928   6.837  18.992  0.00  0.00    +0.000 C 
ATOM     10  N   UNL     1       4.365   6.298  17.103  0.00  0.00    +0.000 N 
ATOM     11  C   UNL     1       5.157   5.482  16.287  0.00  0.00    +0.000 A 
ATOM     12  C   UNL     1       6.068   6.037  15.381  0.00  0.00    +0.000 A 
ATOM     13  H   UNL     1       4.538   7.297  17.098  0.00  0.00    +0.000 HD
ENDROOT
BRANCH   7  14
ATOM     14  C   UNL     1       2.614   3.884  19.404  0.00  0.00    +0.000 A 
ATOM     15  C   UNL     1       3.237   3.491  20.594  0.00  0.00    +0.000 A 
ATOM     16  C   UNL     1       2.481   2.948  21.635  0.00  0.00    +0.000 A 
ATOM     17  C   UNL     1       1.101   2.795  21.493  0.00  0.00    +0.000 A 
ATOM     18  C   UNL     1       0.475   3.185  20.311  0.00  0.00    +0.000 A 
ATOM     19  C   UNL     1       1.228   3.727  19.268  0.00  0.00    +0.000 A 
ENDBRANCH   7  14
BRANCH   1  21
ATOM     20  C   UNL     1       7.629   5.115  12.337  0.00  0.00    +0.000 C 
ATOM     21  O   UNL     1       7.759   5.657  13.648  0.00  0.00    +0.000 OA
ENDBRANCH   1  21
TORSDOF 2
ENDMDL
MODEL 6
REMARK VINA RESULT:      -7.1      3.994      6.679
REMARK  Name = 
REMARK  4 active torsions:
REMARK  status: ('A' for Active; 'I' for Inactive)
REMARK    1  A    between atoms: C_1  and  O_2
REMARK    2  A    between atoms: O_2  and  C_3
REMARK    3  A    between atoms: C_9  and  C_10
REMARK    4  A    between atoms: C_16  and  C_17
REMARK                            x       y       z     vdW  Elec       q    Type
REMARK                         _______ _______ _______ _____ _____    ______ ____
ROOT
ATOM      1  C   UNL     1       6.828   5.257  14.619  0.00  0.00    +0.000 A 
ATOM      2  C   UNL     1       6.673   3.870  14.664  0.00  0.00    +0.000 A 
ATOM      3  C   UNL     1       5.765   3.290  15.550  0.00  0.00    +0.000 A 
ATOM      4  C   UNL     1       5.004   4.109  16.390  0.00  0.00    +0.000 A 
ATOM      5  C   UNL     1       4.059   3.518  17.364  0.00  0.00    +0.000 A 
ATOM      6  O   UNL     1       3.869   2.305  17.380  0.00  0.00    +0.000 OA
ATOM      7  C   UNL     1       3.368   4.445  18.329  0.00  0.00    +0.000 A 
ATOM      8  C   UNL     1       3.524   5.780  18.151  0.00  0.00    +0.000 A 
ATOM      9  C   UNL     1       2.864   6.821  19.028  0.00  0.00    +0.000 C 
ATOM     10  N   UNL     1       4.320   6.306  17.148  0.00  0.00    +0.000 N 
ATOM     11  C   UNL     1       5.127   5.502  16.334  0.00  0.00    +0.000 A 
ATOM     12  C   UNL     1       6.037   6.071  15.435  0.00  0.00    +0.000 A 
ATOM     13  H   UNL     1       4.481   7.307  17.146  0.00  0.00    +0.000 HD
ENDROOT
BRANCH   7  14
ATOM     14  C   UNL     1       2.585   3.863  19.430  0.00  0.00    +0.000 A 
ATOM     15  C   UNL     1       1.207   3.656  19.297  0.00  0.00    +0.000 A 
ATOM     16  C   UNL     1       0.475   3.109  20.352  0.00  0.00    +0.000 A 
ATOM     17  C   UNL     1       1.114   2.766  21.545  0.00  0.00    +0.000 A 
ATOM     18  C   UNL     1       2.485   2.968  21.683  0.00  0.00    +0.000 A 
ATOM     19  C   UNL     1       3.219   3.515  20.630  0.00  0.00    +0.000 A 
ENDBRANCH   7  14
BRANCH   1  21
ATOM     20  C   UNL     1       7.758   5.039  12.460  0.00  0.00    +0.000 C 
ATOM     21  O   UNL     1       7.744   5.716  13.712  0.00  0.00    +0.000 OA
ENDBRANCH   1  21
TORSDOF 2
ENDMDL
MODEL 7
REMARK VINA RESULT:      -6.9      1.857      6.431
REMARK  Name = 
REMARK  4 active torsions:
REMARK  status: ('A' for Active; 'I' for Inactive)
REMARK    1  A    between atoms: C_1  and  O_2
REMARK    2  A    between atoms: O_2  and  C_3
REMARK    3  A    between atoms: C_9  and  C_10
REMARK    4  A    between atoms: C_16  and  C_17
REMARK                            x       y       z     vdW  Elec       q    Type
REMARK                         _______ _______ _______ _____ _____    ______ ____
ROOT
ATOM      1  C   UNL     1       0.263  10.691  21.209  0.00  0.00    +0.000 A 
ATOM      2  C   UNL     1       0.534  11.173  19.927  0.00  0.00    +0.000 A 
ATOM      3  C   UNL     1       1.154  10.354  18.983  0.00  0.00    +0.000 A 
ATOM      4  C   UNL     1       1.495   9.043  19.327  0.00  0.00    +0.000 A 
ATOM      5  C   UNL     1       2.185   8.163  18.355  0.00  0.00    +0.000 A 
ATOM      6  O   UNL     1       2.381   8.551  17.207  0.00  0.00    +0.000 OA
ATOM      7  C   UNL     1       2.643   6.811  18.829  0.00  0.00    +0.000 A 
ATOM      8  C   UNL     1       2.262   6.406  20.066  0.00  0.00    +0.000 A 
ATOM      9  C   UNL     1       2.627   5.061  20.654  0.00  0.00    +0.000 C 
ATOM     10  N   UNL     1       1.507   7.206  20.907  0.00  0.00    +0.000 N 
ATOM     11  C   UNL     1       1.202   8.537  20.598  0.00  0.00    +0.000 A 
ATOM     12  C   UNL     1       0.574   9.367  21.534  0.00  0.00    +0.000 A 
ATOM     13  H   UNL     1       1.357   6.886  21.857  0.00  0.00    +0.000 HD
ENDROOT
BRANCH   7  14
ATOM     14  C   UNL     1       3.503   6.006  17.946  0.00  0.00    +0.000 A 
ATOM     15  C   UNL     1       4.737   6.497  17.505  0.00  0.00    +0.000 A 
ATOM     16  C   UNL     1       5.539   5.724  16.664  0.00  0.00    +0.000 A 
ATOM     17  C   UNL     1       5.114   4.458  16.258  0.00  0.00    +0.000 A 
ATOM     18  C   UNL     1       3.887   3.962  16.695  0.00  0.00    +0.000 A 
ATOM     19  C   UNL     1       3.083   4.733  17.535  0.00  0.00    +0.000 A 
ENDBRANCH   7  14
BRANCH   1  21
ATOM     20  C   UNL     1      -1.197  11.001  23.038  0.00  0.00    +0.000 C 
ATOM     21  O   UNL     1      -0.347  11.579  22.052  0.00  0.00    +0.000 OA
ENDBRANCH   1  21
TORSDOF 2
ENDMDL
MODEL 8
REMARK VINA RESULT:      -6.9      1.853      6.390
REMARK  Name = 
REMARK  4 active torsions:
REMARK  status: ('A' for Active; 'I' for Inactive)
REMARK    1  A    between atoms: C_1  and  O_2
REMARK    2  A    between atoms: O_2  and  C_3
REMARK    3  A    between atoms: C_9  and  C_10
REMARK    4  A    between atoms: C_16  and  C_17
REMARK                            x       y       z     vdW  Elec       q    Type
REMARK                         _______ _______ _______ _____ _____    ______ ____
ROOT
ATOM      1  C   UNL     1       0.163  10.365  21.035  0.00  0.00    +0.000 A 
ATOM      2  C   UNL     1       0.524  10.854  19.778  0.00  0.00    +0.000 A 
ATOM      3  C   UNL     1       1.240  10.052  18.889  0.00  0.00    +0.000 A 
ATOM      4  C   UNL     1       1.586   8.750  19.261  0.00  0.00    +0.000 A 
ATOM      5  C   UNL     1       2.375   7.890  18.350  0.00  0.00    +0.000 A 
ATOM      6  O   UNL     1       2.654   8.283  17.221  0.00  0.00    +0.000 OA
ATOM      7  C   UNL     1       2.829   6.549  18.862  0.00  0.00    +0.000 A 
ATOM      8  C   UNL     1       2.359   6.134  20.065  0.00  0.00    +0.000 A 
ATOM      9  C   UNL     1       2.711   4.799  20.682  0.00  0.00    +0.000 C 
ATOM     10  N   UNL     1       1.518   6.914  20.840  0.00  0.00    +0.000 N 
ATOM     11  C   UNL     1       1.204   8.236  20.506  0.00  0.00    +0.000 A 
ATOM     12  C   UNL     1       0.481   9.049  21.386  0.00  0.00    +0.000 A 
ATOM     13  H   UNL     1       1.299   6.589  21.775  0.00  0.00    +0.000 HD
ENDROOT
BRANCH   7  14
ATOM     14  C   UNL     1       3.778   5.768  18.053  0.00  0.00    +0.000 A 
ATOM     15  C   UNL     1       3.371   4.598  17.402  0.00  0.00    +0.000 A 
ATOM     16  C   UNL     1       4.283   3.863  16.643  0.00  0.00    +0.000 A 
ATOM     17  C   UNL     1       5.607   4.293  16.530  0.00  0.00    +0.000 A 
ATOM     18  C   UNL     1       6.018   5.457  17.174  0.00  0.00    +0.000 A 
ATOM     19  C   UNL     1       5.109   6.193  17.935  0.00  0.00    +0.000 A 
ENDBRANCH   7  14
BRANCH   1  21
ATOM     20  C   UNL     1      -0.984  10.709  23.070  0.00  0.00    +0.000 C 
ATOM     21  O   UNL     1      -0.538  11.236  21.824  0.00  0.00    +0.000 OA
ENDBRANCH   1  21
TORSDOF 2
ENDMDL
MODEL 9
REMARK VINA RESULT:      -6.6      1.906      7.149
REMARK  Name = 
REMARK  4 active torsions:
REMARK  status: ('A' for Active; 'I' for Inactive)
REMARK    1  A    between atoms: C_1  and  O_2
REMARK    2  A    between atoms: O_2  and  C_3
REMARK    3  A    between atoms: C_9  and  C_10
REMARK    4  A    between atoms: C_16  and  C_17
REMARK                            x       y       z     vdW  Elec       q    Type
REMARK                         _______ _______ _______ _____ _____    ______ ____
ROOT
ATOM      1  C   UNL     1       1.168  10.546  19.037  0.00  0.00    +0.000 A 
ATOM      2  C   UNL     1       0.614   9.849  20.112  0.00  0.00    +0.000 A 
ATOM      3  C   UNL     1       0.948   8.513  20.333  0.00  0.00    +0.000 A 
ATOM      4  C   UNL     1       1.850   7.878  19.473  0.00  0.00    +0.000 A 
ATOM      5  C   UNL     1       2.195   6.450  19.664  0.00  0.00    +0.000 A 
ATOM      6  O   UNL     1       1.761   5.837  20.635  0.00  0.00    +0.000 OA
ATOM      7  C   UNL     1       3.066   5.790  18.629  0.00  0.00    +0.000 A 
ATOM      8  C   UNL     1       3.617   6.573  17.668  0.00  0.00    +0.000 A 
ATOM      9  C   UNL     1       4.533   6.045  16.586  0.00  0.00    +0.000 C 
ATOM     10  N   UNL     1       3.373   7.933  17.590  0.00  0.00    +0.000 N 
ATOM     11  C   UNL     1       2.436   8.573  18.410  0.00  0.00    +0.000 A 
ATOM     12  C   UNL     1       2.096   9.915  18.203  0.00  0.00    +0.000 A 
ATOM     13  H   UNL     1       3.725   8.432  16.781  0.00  0.00    +0.000 HD
ENDROOT
BRANCH   7  14
ATOM     14  C   UNL     1       3.255   4.332  18.690  0.00  0.00    +0.000 A 
ATOM     15  C   UNL     1       4.248   3.772  19.502  0.00  0.00    +0.000 A 
ATOM     16  C   UNL     1       4.420   2.387  19.545  0.00  0.00    +0.000 A 
ATOM     17  C   UNL     1       3.603   1.556  18.778  0.00  0.00    +0.000 A 
ATOM     18  C   UNL     1       2.612   2.107  17.969  0.00  0.00    +0.000 A 
ATOM     19  C   UNL     1       2.438   3.490  17.923  0.00  0.00    +0.000 A 
ENDBRANCH   7  14
BRANCH   1  21
ATOM     20  C   UNL     1       1.811  12.783  18.638  0.00  0.00    +0.000 C 
ATOM     21  O   UNL     1       0.771  11.850  18.916  0.00  0.00    +0.000 OA
ENDBRANCH   1  21
TORSDOF 2
ENDMDL
