MODEL 1
REMARK VINA RESULT:      -7.7      0.000      0.000
REMARK  Name = 
REMARK  9 active torsions:
REMARK  status: ('A' for Active; 'I' for Inactive)
REMARK    1  A    between atoms: C_1  and  O_2
REMARK    2  A    between atoms: O_2  and  C_3
REMARK    3  A    between atoms: C_6  and  C_7
REMARK    4  A    between atoms: C_9  and  C_10
REMARK    5  A    between atoms: C_12  and  O_13
REMARK    6  A    between atoms: O_13  and  C_14
REMARK    7  A    between atoms: C_17  and  O_18
REMARK    8  A    between atoms: O_18  and  C_19
REMARK    9  A    between atoms: C_26  and  O_27
REMARK                            x       y       z     vdW  Elec       q    Type
REMARK                         _______ _______ _______ _____ _____    ______ ____
ROOT
ATOM      1  C   UNL     1       3.407   5.917  17.896  0.00  0.00    +0.000 A 
ATOM      2  N   UNL     1       4.214   6.102  16.885  0.00  0.00    +0.000 NA
ATOM      3  C   UNL     1       4.659   4.833  16.605  0.00  0.00    +0.000 A 
ATOM      4  N   UNL     1       4.140   3.882  17.401  0.00  0.00    +0.000 NA
ATOM      5  O   UNL     1       3.309   4.602  18.267  0.00  0.00    +0.000 OA
ENDROOT
BRANCH   3   6
ATOM      6  C   UNL     1       5.565   4.631  15.495  0.00  0.00    +0.000 A 
ATOM      7  C   UNL     1       5.074   3.813  14.436  0.00  0.00    +0.000 A 
ATOM      8  C   UNL     1       5.775   3.641  13.248  0.00  0.00    +0.000 A 
ATOM      9  C   UNL     1       6.909   4.405  13.099  0.00  0.00    +0.000 A 
ATOM     10  C   UNL     1       7.437   5.144  14.150  0.00  0.00    +0.000 A 
ATOM     11  C   UNL     1       6.818   5.246  15.383  0.00  0.00    +0.000 A 
ATOM     12  O   UNL     1       8.557   5.824  13.753  0.00  0.00    +0.000 OA
ATOM     13  C   UNL     1       8.349   5.793  12.338  0.00  0.00    +0.000 C 
ATOM     14  O   UNL     1       7.609   4.625  11.945  0.00  0.00    +0.000 OA
BRANCH   8  15
ATOM     15  O   UNL     1       5.354   2.830  12.233  0.00  0.00    +0.000 OA
ATOM     16  C   UNL     1       4.282   3.369  11.459  0.00  0.00    +0.000 C 
ENDBRANCH   8  15
BRANCH  11  17
ATOM     17  O   UNL     1       7.281   6.022  16.407  0.00  0.00    +0.000 OA
ATOM     18  C   UNL     1       7.632   5.314  17.596  0.00  0.00    +0.000 C 
ENDBRANCH  11  17
ENDBRANCH   3   6
BRANCH   1  22
ATOM     19  C   UNL     1       1.258   8.935  20.002  0.00  0.00    +0.000 A 
ATOM     20  C   UNL     1       1.628   7.754  20.649  0.00  0.00    +0.000 A 
ATOM     21  C   UNL     1       2.319   6.740  19.976  0.00  0.00    +0.000 A 
ATOM     22  C   UNL     1       2.653   6.905  18.635  0.00  0.00    +0.000 A 
ATOM     23  C   UNL     1       2.252   8.072  17.969  0.00  0.00    +0.000 A 
ATOM     24  C   UNL     1       1.572   9.089  18.642  0.00  0.00    +0.000 A 
BRANCH  19  26
ATOM     25  C   UNL     1      -0.217   9.293  21.849  0.00  0.00    +0.000 C 
ATOM     26  O   UNL     1       0.624   9.819  20.831  0.00  0.00    +0.000 OA
ENDBRANCH  19  26
BRANCH  24  27
ATOM     27  O   UNL     1       1.235  10.207  17.941  0.00  0.00    +0.000 OA
ATOM     28  H   UNL     1       0.705  10.793  18.498  0.00  0.00    +0.000 HD
ENDBRANCH  24  27
ENDBRANCH   1  22
TORSDOF 6
ENDMDL
MODEL 2
REMARK VINA RESULT:      -7.5      3.624      5.669
REMARK  Name = 
REMARK  9 active torsions:
REMARK  status: ('A' for Active; 'I' for Inactive)
REMARK    1  A    between atoms: C_1  and  O_2
REMARK    2  A    between atoms: O_2  and  C_3
REMARK    3  A    between atoms: C_6  and  C_7
REMARK    4  A    between atoms: C_9  and  C_10
REMARK    5  A    between atoms: C_12  and  O_13
REMARK    6  A    between atoms: O_13  and  C_14
REMARK    7  A    between atoms: C_17  and  O_18
REMARK    8  A    between atoms: O_18  and  C_19
REMARK    9  A    between atoms: C_26  and  O_27
REMARK                            x       y       z     vdW  Elec       q    Type
REMARK                         _______ _______ _______ _____ _____    ______ ____
ROOT
ATOM      1  C   UNL     1       1.542   8.712  19.858  0.00  0.00    +0.000 A 
ATOM      2  N   UNL     1       2.050   7.549  20.171  0.00  0.00    +0.000 NA
ATOM      3  C   UNL     1       2.601   7.122  18.988  0.00  0.00    +0.000 A 
ATOM      4  N   UNL     1       2.459   7.990  17.971  0.00  0.00    +0.000 NA
ATOM      5  O   UNL     1       1.748   9.049  18.546  0.00  0.00    +0.000 OA
ENDROOT
BRANCH   3   6
ATOM      6  C   UNL     1       3.303   5.856  18.952  0.00  0.00    +0.000 A 
ATOM      7  C   UNL     1       4.724   5.937  18.889  0.00  0.00    +0.000 A 
ATOM      8  C   UNL     1       5.534   4.812  18.985  0.00  0.00    +0.000 A 
ATOM      9  C   UNL     1       4.894   3.628  19.271  0.00  0.00    +0.000 A 
ATOM     10  C   UNL     1       3.508   3.524  19.257  0.00  0.00    +0.000 A 
ATOM     11  C   UNL     1       2.675   4.608  19.055  0.00  0.00    +0.000 A 
ATOM     12  O   UNL     1       3.113   2.254  19.583  0.00  0.00    +0.000 OA
ATOM     13  C   UNL     1       4.310   1.801  20.221  0.00  0.00    +0.000 C 
ATOM     14  O   UNL     1       5.470   2.457  19.680  0.00  0.00    +0.000 OA
BRANCH   8  15
ATOM     15  O   UNL     1       6.895   4.850  18.884  0.00  0.00    +0.000 OA
ATOM     16  C   UNL     1       7.389   4.664  17.558  0.00  0.00    +0.000 C 
ENDBRANCH   8  15
BRANCH  11  17
ATOM     17  O   UNL     1       1.311   4.543  19.108  0.00  0.00    +0.000 OA
ATOM     18  C   UNL     1       0.770   4.135  20.364  0.00  0.00    +0.000 C 
ENDBRANCH  11  17
ENDBRANCH   3   6
BRANCH   1  22
ATOM     19  C   UNL     1      -0.501  11.512  22.338  0.00  0.00    +0.000 A 
ATOM     20  C   UNL     1      -0.567  10.145  22.617  0.00  0.00    +0.000 A 
ATOM     21  C   UNL     1       0.080   9.205  21.809  0.00  0.00    +0.000 A 
ATOM     22  C   UNL     1       0.812   9.629  20.705  0.00  0.00    +0.000 A 
ATOM     23  C   UNL     1       0.853  10.997  20.396  0.00  0.00    +0.000 A 
ATOM     24  C   UNL     1       0.216  11.938  21.208  0.00  0.00    +0.000 A 
BRANCH  19  26
ATOM     25  C   UNL     1      -2.572  12.115  23.367  0.00  0.00    +0.000 C 
ATOM     26  O   UNL     1      -1.164  12.276  23.259  0.00  0.00    +0.000 OA
ENDBRANCH  19  26
BRANCH  24  27
ATOM     27  O   UNL     1       0.317  13.252  20.866  0.00  0.00    +0.000 OA
ATOM     28  H   UNL     1       1.215  13.441  20.559  0.00  0.00    +0.000 HD
ENDBRANCH  24  27
ENDBRANCH   1  22
TORSDOF 6
ENDMDL
MODEL 3
REMARK VINA RESULT:      -7.4      2.540      9.313
REMARK  Name = 
REMARK  9 active torsions:
REMARK  status: ('A' for Active; 'I' for Inactive)
REMARK    1  A    between atoms: C_1  and  O_2
REMARK    2  A    between atoms: O_2  and  C_3
REMARK    3  A    between atoms: C_6  and  C_7
REMARK    4  A    between atoms: C_9  and  C_10
REMARK    5  A    between atoms: C_12  and  O_13
REMARK    6  A    between atoms: O_13  and  C_14
REMARK    7  A    between atoms: C_17  and  O_18
REMARK    8  A    between atoms: O_18  and  C_19
REMARK    9  A    between atoms: C_26  and  O_27
REMARK                            x       y       z     vdW  Elec       q    Type
REMARK                         _______ _______ _______ _____ _____    ______ ____
ROOT
ATOM      1  C   UNL     1       2.661   7.112  18.812  0.00  0.00    +0.000 A 
ATOM      2  N   UNL     1       2.065   8.246  18.551  0.00  0.00    +0.000 NA
ATOM      3  C   UNL     1       1.347   8.490  19.696  0.00  0.00    +0.000 A 
ATOM      4  N   UNL     1       1.496   7.553  20.649  0.00  0.00    +0.000 NA
ATOM      5  O   UNL     1       2.367   6.629  20.060  0.00  0.00    +0.000 OA
ENDROOT
BRANCH   3   6
ATOM      6  C   UNL     1       0.570   9.707  19.797  0.00  0.00    +0.000 A 
ATOM      7  C   UNL     1      -0.156  10.077  18.627  0.00  0.00    +0.000 A 
ATOM      8  C   UNL     1      -1.049  11.142  18.617  0.00  0.00    +0.000 A 
ATOM      9  C   UNL     1      -1.290  11.741  19.832  0.00  0.00    +0.000 A 
ATOM     10  C   UNL     1      -0.534  11.442  20.958  0.00  0.00    +0.000 A 
ATOM     11  C   UNL     1       0.440  10.460  20.971  0.00  0.00    +0.000 A 
ATOM     12  O   UNL     1      -0.971  12.156  22.041  0.00  0.00    +0.000 OA
ATOM     13  C   UNL     1      -2.277  12.503  21.572  0.00  0.00    +0.000 C 
ATOM     14  O   UNL     1      -2.305  12.605  20.138  0.00  0.00    +0.000 OA
BRANCH   8  15
ATOM     15  O   UNL     1      -1.726  11.549  17.503  0.00  0.00    +0.000 OA
ATOM     16  C   UNL     1      -2.242  10.481  16.709  0.00  0.00    +0.000 C 
ENDBRANCH   8  15
BRANCH  11  17
ATOM     17  O   UNL     1       1.146  10.100  22.083  0.00  0.00    +0.000 OA
ATOM     18  C   UNL     1       0.376   9.498  23.123  0.00  0.00    +0.000 C 
ENDBRANCH  11  17
ENDBRANCH   3   6
BRANCH   1  22
ATOM     19  C   UNL     1       5.285   4.763  16.412  0.00  0.00    +0.000 A 
ATOM     20  C   UNL     1       5.253   6.151  16.267  0.00  0.00    +0.000 A 
ATOM     21  C   UNL     1       4.388   6.943  17.031  0.00  0.00    +0.000 A 
ATOM     22  C   UNL     1       3.543   6.346  17.960  0.00  0.00    +0.000 A 
ATOM     23  C   UNL     1       3.542   4.949  18.085  0.00  0.00    +0.000 A 
ATOM     24  C   UNL     1       4.412   4.158  17.331  0.00  0.00    +0.000 A 
BRANCH  19  26
ATOM     25  C   UNL     1       5.969   4.133  14.210  0.00  0.00    +0.000 C 
ATOM     26  O   UNL     1       6.217   4.166  15.609  0.00  0.00    +0.000 OA
ENDBRANCH  19  26
BRANCH  24  27
ATOM     27  O   UNL     1       4.378   2.810  17.521  0.00  0.00    +0.000 OA
ATOM     28  H   UNL     1       5.261   2.440  17.390  0.00  0.00    +0.000 HD
ENDBRANCH  24  27
ENDBRANCH   1  22
TORSDOF 6
ENDMDL
MODEL 4
REMARK VINA RESULT:      -7.4      3.927      5.818
REMARK  Name = 
REMARK  9 active torsions:
REMARK  status: ('A' for Active; 'I' for Inactive)
REMARK    1  A    between atoms: C_1  and  O_2
REMARK    2  A    between atoms: O_2  and  C_3
REMARK    3  A    between atoms: C_6  and  C_7
REMARK    4  A    between atoms: C_9  and  C_10
REMARK    5  A    between atoms: C_12  and  O_13
REMARK    6  A    between atoms: O_13  and  C_14
REMARK    7  A    between atoms: C_17  and  O_18
REMARK    8  A    between atoms: O_18  and  C_19
REMARK    9  A    between atoms: C_26  and  O_27
REMARK                            x       y       z     vdW  Elec       q    Type
REMARK                         _______ _______ _______ _____ _____    ______ ____
ROOT
ATOM      1  C   UNL     1       1.536   8.664  19.642  0.00  0.00    +0.000 A 
ATOM      2  N   UNL     1       2.033   7.507  19.992  0.00  0.00    +0.000 NA
ATOM      3  C   UNL     1       2.600   7.047  18.829  0.00  0.00    +0.000 A 
ATOM      4  N   UNL     1       2.477   7.890  17.788  0.00  0.00    +0.000 NA
ATOM      5  O   UNL     1       1.763   8.966  18.326  0.00  0.00    +0.000 OA
ENDROOT
BRANCH   3   6
ATOM      6  C   UNL     1       3.296   5.778  18.835  0.00  0.00    +0.000 A 
ATOM      7  C   UNL     1       4.718   5.851  18.781  0.00  0.00    +0.000 A 
ATOM      8  C   UNL     1       5.522   4.725  18.916  0.00  0.00    +0.000 A 
ATOM      9  C   UNL     1       4.874   3.553  19.231  0.00  0.00    +0.000 A 
ATOM     10  C   UNL     1       3.489   3.454  19.210  0.00  0.00    +0.000 A 
ATOM     11  C   UNL     1       2.662   4.536  18.970  0.00  0.00    +0.000 A 
ATOM     12  O   UNL     1       3.085   2.196  19.569  0.00  0.00    +0.000 OA
ATOM     13  C   UNL     1       4.275   1.757  20.230  0.00  0.00    +0.000 C 
ATOM     14  O   UNL     1       5.442   2.392  19.679  0.00  0.00    +0.000 OA
BRANCH   8  15
ATOM     15  O   UNL     1       6.885   4.755  18.825  0.00  0.00    +0.000 OA
ATOM     16  C   UNL     1       7.420   6.031  18.472  0.00  0.00    +0.000 C 
ENDBRANCH   8  15
BRANCH  11  17
ATOM     17  O   UNL     1       1.297   4.478  19.013  0.00  0.00    +0.000 OA
ATOM     18  C   UNL     1       0.744   4.139  20.284  0.00  0.00    +0.000 C 
ENDBRANCH  11  17
ENDBRANCH   3   6
BRANCH   1  22
ATOM     19  C   UNL     1      -0.702  11.326  22.105  0.00  0.00    +0.000 A 
ATOM     20  C   UNL     1      -0.450  11.647  20.770  0.00  0.00    +0.000 A 
ATOM     21  C   UNL     1       0.297  10.799  19.945  0.00  0.00    +0.000 A 
ATOM     22  C   UNL     1       0.798   9.605  20.454  0.00  0.00    +0.000 A 
ATOM     23  C   UNL     1       0.581   9.293  21.804  0.00  0.00    +0.000 A 
ATOM     24  C   UNL     1      -0.173  10.133  22.626  0.00  0.00    +0.000 A 
BRANCH  19  26
ATOM     25  C   UNL     1      -1.717  13.490  22.073  0.00  0.00    +0.000 C 
ATOM     26  O   UNL     1      -1.478  12.257  22.739  0.00  0.00    +0.000 OA
ENDBRANCH  19  26
BRANCH  24  27
ATOM     27  O   UNL     1      -0.368   9.757  23.920  0.00  0.00    +0.000 OA
ATOM     28  H   UNL     1      -0.651  10.520  24.442  0.00  0.00    +0.000 HD
ENDBRANCH  24  27
ENDBRANCH   1  22
TORSDOF 6
ENDMDL
MODEL 5
REMARK VINA RESULT:      -7.4      3.352      5.382
REMARK  Name = 
REMARK  9 active torsions:
REMARK  status: ('A' for Active; 'I' for Inactive)
REMARK    1  A    between atoms: C_1  and  O_2
REMARK    2  A    between atoms: O_2  and  C_3
REMARK    3  A    between atoms: C_6  and  C_7
REMARK    4  A    between atoms: C_9  and  C_10
REMARK    5  A    between atoms: C_12  and  O_13
REMARK    6  A    between atoms: O_13  and  C_14
REMARK    7  A    between atoms: C_17  and  O_18
REMARK    8  A    between atoms: O_18  and  C_19
REMARK    9  A    between atoms: C_26  and  O_27
REMARK                            x       y       z     vdW  Elec       q    Type
REMARK                         _______ _______ _______ _____ _____    ______ ____
ROOT
ATOM      1  C   UNL     1       1.080   9.369  19.427  0.00  0.00    +0.000 A 
ATOM      2  N   UNL     1       1.847   8.313  19.500  0.00  0.00    +0.000 NA
ATOM      3  C   UNL     1       2.273   8.148  18.205  0.00  0.00    +0.000 A 
ATOM      4  N   UNL     1       1.803   9.073  17.350  0.00  0.00    +0.000 NA
ATOM      5  O   UNL     1       1.002   9.885  18.161  0.00  0.00    +0.000 OA
ENDROOT
BRANCH   3   6
ATOM      6  C   UNL     1       3.192   7.073  17.895  0.00  0.00    +0.000 A 
ATOM      7  C   UNL     1       4.457   7.471  17.373  0.00  0.00    +0.000 A 
ATOM      8  C   UNL     1       5.487   6.562  17.158  0.00  0.00    +0.000 A 
ATOM      9  C   UNL     1       5.261   5.277  17.593  0.00  0.00    +0.000 A 
ATOM     10  C   UNL     1       4.009   4.862  18.030  0.00  0.00    +0.000 A 
ATOM     11  C   UNL     1       2.932   5.721  18.152  0.00  0.00    +0.000 A 
ATOM     12  O   UNL     1       4.040   3.550  18.420  0.00  0.00    +0.000 OA
ATOM     13  C   UNL     1       5.450   3.405  18.614  0.00  0.00    +0.000 C 
ATOM     14  O   UNL     1       6.188   4.284  17.749  0.00  0.00    +0.000 OA
BRANCH   8  15
ATOM     15  O   UNL     1       6.694   6.903  16.618  0.00  0.00    +0.000 OA
ATOM     16  C   UNL     1       7.533   7.657  17.493  0.00  0.00    +0.000 C 
ENDBRANCH   8  15
BRANCH  11  17
ATOM     17  O   UNL     1       1.713   5.351  18.645  0.00  0.00    +0.000 OA
ATOM     18  C   UNL     1       1.714   4.913  20.004  0.00  0.00    +0.000 C 
ENDBRANCH  11  17
ENDBRANCH   3   6
BRANCH   1  22
ATOM     19  C   UNL     1      -1.144  11.125  22.611  0.00  0.00    +0.000 A 
ATOM     20  C   UNL     1      -1.248  11.635  21.315  0.00  0.00    +0.000 A 
ATOM     21  C   UNL     1      -0.516  11.087  20.256  0.00  0.00    +0.000 A 
ATOM     22  C   UNL     1       0.333  10.009  20.486  0.00  0.00    +0.000 A 
ATOM     23  C   UNL     1       0.472   9.516  21.792  0.00  0.00    +0.000 A 
ATOM     24  C   UNL     1      -0.266  10.054  22.848  0.00  0.00    +0.000 A 
BRANCH  19  26
ATOM     25  C   UNL     1      -3.058  12.506  22.985  0.00  0.00    +0.000 C 
ATOM     26  O   UNL     1      -1.961  11.765  23.501  0.00  0.00    +0.000 OA
ENDBRANCH  19  26
BRANCH  24  27
ATOM     27  O   UNL     1      -0.103   9.510  24.086  0.00  0.00    +0.000 OA
ATOM     28  H   UNL     1       0.511   8.765  24.036  0.00  0.00    +0.000 HD
ENDBRANCH  24  27
ENDBRANCH   1  22
TORSDOF 6
ENDMDL
MODEL 6
REMARK VINA RESULT:      -7.4      2.567      4.492
REMARK  Name = 
REMARK  9 active torsions:
REMARK  status: ('A' for Active; 'I' for Inactive)
REMARK    1  A    between atoms: C_1  and  O_2
REMARK    2  A    between atoms: O_2  and  C_3
REMARK    3  A    between atoms: C_6  and  C_7
REMARK    4  A    between atoms: C_9  and  C_10
REMARK    5  A    between atoms: C_12  and  O_13
REMARK    6  A    between atoms: O_13  and  C_14
REMARK    7  A    between atoms: C_17  and  O_18
REMARK    8  A    between atoms: O_18  and  C_19
REMARK    9  A    between atoms: C_26  and  O_27
REMARK                            x       y       z     vdW  Elec       q    Type
REMARK                         _______ _______ _______ _____ _____    ______ ____
ROOT
ATOM      1  C   UNL     1       1.490   8.966  19.334  0.00  0.00    +0.000 A 
ATOM      2  N   UNL     1       2.023   7.774  19.390  0.00  0.00    +0.000 NA
ATOM      3  C   UNL     1       2.619   7.642  18.160  0.00  0.00    +0.000 A 
ATOM      4  N   UNL     1       2.479   8.716  17.364  0.00  0.00    +0.000 NA
ATOM      5  O   UNL     1       1.721   9.598  18.141  0.00  0.00    +0.000 OA
ENDROOT
BRANCH   3   6
ATOM      6  C   UNL     1       3.360   6.434  17.859  0.00  0.00    +0.000 A 
ATOM      7  C   UNL     1       2.630   5.216  17.972  0.00  0.00    +0.000 A 
ATOM      8  C   UNL     1       3.167   3.993  17.586  0.00  0.00    +0.000 A 
ATOM      9  C   UNL     1       4.397   4.041  16.970  0.00  0.00    +0.000 A 
ATOM     10  C   UNL     1       5.148   5.208  16.925  0.00  0.00    +0.000 A 
ATOM     11  C   UNL     1       4.683   6.420  17.402  0.00  0.00    +0.000 A 
ATOM     12  O   UNL     1       6.323   5.005  16.253  0.00  0.00    +0.000 OA
ATOM     13  C   UNL     1       5.973   3.815  15.540  0.00  0.00    +0.000 C 
ATOM     14  O   UNL     1       5.004   3.039  16.265  0.00  0.00    +0.000 OA
BRANCH   8  15
ATOM     15  O   UNL     1       2.511   2.803  17.722  0.00  0.00    +0.000 OA
ATOM     16  C   UNL     1       2.765   2.133  18.957  0.00  0.00    +0.000 C 
ENDBRANCH   8  15
BRANCH  11  17
ATOM     17  O   UNL     1       5.375   7.594  17.305  0.00  0.00    +0.000 OA
ATOM     18  C   UNL     1       6.772   7.501  17.583  0.00  0.00    +0.000 C 
ENDBRANCH  11  17
ENDBRANCH   3   6
BRANCH   1  22
ATOM     19  C   UNL     1      -0.830  10.847  22.375  0.00  0.00    +0.000 A 
ATOM     20  C   UNL     1      -0.908  11.293  21.053  0.00  0.00    +0.000 A 
ATOM     21  C   UNL     1      -0.144  10.704  20.040  0.00  0.00    +0.000 A 
ATOM     22  C   UNL     1       0.710   9.647  20.343  0.00  0.00    +0.000 A 
ATOM     23  C   UNL     1       0.821   9.218  21.673  0.00  0.00    +0.000 A 
ATOM     24  C   UNL     1       0.052   9.798  22.685  0.00  0.00    +0.000 A 
BRANCH  19  26
ATOM     25  C   UNL     1      -2.565  12.470  22.642  0.00  0.00    +0.000 C 
ATOM     26  O   UNL     1      -1.676  11.519  23.213  0.00  0.00    +0.000 OA
ENDBRANCH  19  26
BRANCH  24  27
ATOM     27  O   UNL     1       0.190   9.316  23.950  0.00  0.00    +0.000 OA
ATOM     28  H   UNL     1      -0.661   9.354  24.408  0.00  0.00    +0.000 HD
ENDBRANCH  24  27
ENDBRANCH   1  22
TORSDOF 6
ENDMDL
MODEL 7
REMARK VINA RESULT:      -7.3      3.717      6.022
REMARK  Name = 
REMARK  9 active torsions:
REMARK  status: ('A' for Active; 'I' for Inactive)
REMARK    1  A    between atoms: C_1  and  O_2
REMARK    2  A    between atoms: O_2  and  C_3
REMARK    3  A    between atoms: C_6  and  C_7
REMARK    4  A    between atoms: C_9  and  C_10
REMARK    5  A    between atoms: C_12  and  O_13
REMARK    6  A    between atoms: O_13  and  C_14
REMARK    7  A    between atoms: C_17  and  O_18
REMARK    8  A    between atoms: O_18  and  C_19
REMARK    9  A    between atoms: C_26  and  O_27
REMARK                            x       y       z     vdW  Elec       q    Type
REMARK                         _______ _______ _______ _____ _____    ______ ____
ROOT
ATOM      1  C   UNL     1       1.050   8.890  20.295  0.00  0.00    +0.000 A 
ATOM      2  N   UNL     1       1.376   7.664  20.608  0.00  0.00    +0.000 NA
ATOM      3  C   UNL     1       2.137   7.261  19.538  0.00  0.00    +0.000 A 
ATOM      4  N   UNL     1       2.296   8.203  18.592  0.00  0.00    +0.000 NA
ATOM      5  O   UNL     1       1.568   9.289  19.091  0.00  0.00    +0.000 OA
ENDROOT
BRANCH   3   6
ATOM      6  C   UNL     1       2.720   5.936  19.545  0.00  0.00    +0.000 A 
ATOM      7  C   UNL     1       2.418   5.131  20.682  0.00  0.00    +0.000 A 
ATOM      8  C   UNL     1       2.794   3.796  20.763  0.00  0.00    +0.000 A 
ATOM      9  C   UNL     1       3.364   3.257  19.633  0.00  0.00    +0.000 A 
ATOM     10  C   UNL     1       3.732   4.048  18.552  0.00  0.00    +0.000 A 
ATOM     11  C   UNL     1       3.469   5.404  18.487  0.00  0.00    +0.000 A 
ATOM     12  O   UNL     1       4.265   3.283  17.549  0.00  0.00    +0.000 OA
ATOM     13  C   UNL     1       3.748   2.007  17.938  0.00  0.00    +0.000 C 
ATOM     14  O   UNL     1       3.564   1.932  19.362  0.00  0.00    +0.000 OA
BRANCH   8  15
ATOM     15  O   UNL     1       2.559   3.011  21.856  0.00  0.00    +0.000 OA
ATOM     16  C   UNL     1       1.241   2.465  21.911  0.00  0.00    +0.000 C 
ENDBRANCH   8  15
BRANCH  11  17
ATOM     17  O   UNL     1       3.759   6.187  17.406  0.00  0.00    +0.000 OA
ATOM     18  C   UNL     1       5.114   6.627  17.320  0.00  0.00    +0.000 C 
ENDBRANCH  11  17
ENDBRANCH   3   6
BRANCH   1  22
ATOM     19  C   UNL     1      -1.311  11.737  22.413  0.00  0.00    +0.000 A 
ATOM     20  C   UNL     1      -0.749  10.649  23.085  0.00  0.00    +0.000 A 
ATOM     21  C   UNL     1       0.015   9.691  22.410  0.00  0.00    +0.000 A 
ATOM     22  C   UNL     1       0.231   9.819  21.041  0.00  0.00    +0.000 A 
ATOM     23  C   UNL     1      -0.360  10.888  20.353  0.00  0.00    +0.000 A 
ATOM     24  C   UNL     1      -1.115  11.851  21.027  0.00  0.00    +0.000 A 
BRANCH  19  26
ATOM     25  C   UNL     1      -1.365  13.804  23.612  0.00  0.00    +0.000 C 
ATOM     26  O   UNL     1      -1.991  12.582  23.245  0.00  0.00    +0.000 OA
ENDBRANCH  19  26
BRANCH  24  27
ATOM     27  O   UNL     1      -1.639  12.877  20.301  0.00  0.00    +0.000 OA
ATOM     28  H   UNL     1      -1.023  13.128  19.600  0.00  0.00    +0.000 HD
ENDBRANCH  24  27
ENDBRANCH   1  22
TORSDOF 6
ENDMDL
MODEL 8
REMARK VINA RESULT:      -7.3      2.439      4.085
REMARK  Name = 
REMARK  9 active torsions:
REMARK  status: ('A' for Active; 'I' for Inactive)
REMARK    1  A    between atoms: C_1  and  O_2
REMARK    2  A    between atoms: O_2  and  C_3
REMARK    3  A    between atoms: C_6  and  C_7
REMARK    4  A    between atoms: C_9  and  C_10
REMARK    5  A    between atoms: C_12  and  O_13
REMARK    6  A    between atoms: O_13  and  C_14
REMARK    7  A    between atoms: C_17  and  O_18
REMARK    8  A    between atoms: O_18  and  C_19
REMARK    9  A    between atoms: C_26  and  O_27
REMARK                            x       y       z     vdW  Elec       q    Type
REMARK                         _______ _______ _______ _____ _____    ______ ____
ROOT
ATOM      1  C   UNL     1       1.684   8.760  19.312  0.00  0.00    +0.000 A 
ATOM      2  N   UNL     1       2.259   7.586  19.333  0.00  0.00    +0.000 NA
ATOM      3  C   UNL     1       2.806   7.485  18.078  0.00  0.00    +0.000 A 
ATOM      4  N   UNL     1       2.597   8.562  17.300  0.00  0.00    +0.000 NA
ATOM      5  O   UNL     1       1.844   9.411  18.118  0.00  0.00    +0.000 OA
ENDROOT
BRANCH   3   6
ATOM      6  C   UNL     1       3.572   6.306  17.733  0.00  0.00    +0.000 A 
ATOM      7  C   UNL     1       2.884   5.064  17.849  0.00  0.00    +0.000 A 
ATOM      8  C   UNL     1       3.445   3.865  17.425  0.00  0.00    +0.000 A 
ATOM      9  C   UNL     1       4.652   3.959  16.771  0.00  0.00    +0.000 A 
ATOM     10  C   UNL     1       5.366   5.150  16.722  0.00  0.00    +0.000 A 
ATOM     11  C   UNL     1       4.880   6.340  17.233  0.00  0.00    +0.000 A 
ATOM     12  O   UNL     1       6.524   4.993  16.009  0.00  0.00    +0.000 OA
ATOM     13  C   UNL     1       6.186   3.805  15.288  0.00  0.00    +0.000 C 
ATOM     14  O   UNL     1       5.266   2.988  16.031  0.00  0.00    +0.000 OA
BRANCH   8  15
ATOM     15  O   UNL     1       2.830   2.653  17.562  0.00  0.00    +0.000 OA
ATOM     16  C   UNL     1       1.638   2.688  18.347  0.00  0.00    +0.000 C 
ENDBRANCH   8  15
BRANCH  11  17
ATOM     17  O   UNL     1       5.533   7.536  17.134  0.00  0.00    +0.000 OA
ATOM     18  C   UNL     1       6.890   7.526  17.575  0.00  0.00    +0.000 C 
ENDBRANCH  11  17
ENDBRANCH   3   6
BRANCH   1  22
ATOM     19  C   UNL     1      -0.452  10.770  22.404  0.00  0.00    +0.000 A 
ATOM     20  C   UNL     1      -0.396   9.375  22.380  0.00  0.00    +0.000 A 
ATOM     21  C   UNL     1       0.284   8.691  21.367  0.00  0.00    +0.000 A 
ATOM     22  C   UNL     1       0.926   9.406  20.360  0.00  0.00    +0.000 A 
ATOM     23  C   UNL     1       0.842  10.805  20.356  0.00  0.00    +0.000 A 
ATOM     24  C   UNL     1       0.173  11.491  21.373  0.00  0.00    +0.000 A 
BRANCH  19  26
ATOM     25  C   UNL     1      -2.419  11.813  23.274  0.00  0.00    +0.000 C 
ATOM     26  O   UNL     1      -1.129  11.257  23.488  0.00  0.00    +0.000 OA
ENDBRANCH  19  26
BRANCH  24  27
ATOM     27  O   UNL     1       0.152  12.851  21.322  0.00  0.00    +0.000 OA
ATOM     28  H   UNL     1       1.035  13.183  21.110  0.00  0.00    +0.000 HD
ENDBRANCH  24  27
ENDBRANCH   1  22
TORSDOF 6
ENDMDL
MODEL 9
REMARK VINA RESULT:      -7.3      3.466      5.622
REMARK  Name = 
REMARK  9 active torsions:
REMARK  status: ('A' for Active; 'I' for Inactive)
REMARK    1  A    between atoms: C_1  and  O_2
REMARK    2  A    between atoms: O_2  and  C_3
REMARK    3  A    between atoms: C_6  and  C_7
REMARK    4  A    between atoms: C_9  and  C_10
REMARK    5  A    between atoms: C_12  and  O_13
REMARK    6  A    between atoms: O_13  and  C_14
REMARK    7  A    between atoms: C_17  and  O_18
REMARK    8  A    between atoms: O_18  and  C_19
REMARK    9  A    between atoms: C_26  and  O_27
REMARK                            x       y       z     vdW  Elec       q    Type
REMARK                         _______ _______ _______ _____ _____    ______ ____
ROOT
ATOM      1  C   UNL     1       1.607   8.839  18.787  0.00  0.00    +0.000 A 
ATOM      2  N   UNL     1       1.965   7.676  19.265  0.00  0.00    +0.000 NA
ATOM      3  C   UNL     1       2.800   7.184  18.291  0.00  0.00    +0.000 A 
ATOM      4  N   UNL     1       2.972   8.012  17.246  0.00  0.00    +0.000 NA
ATOM      5  O   UNL     1       2.173   9.114  17.571  0.00  0.00    +0.000 OA
ENDROOT
BRANCH   3   6
ATOM      6  C   UNL     1       3.435   5.899  18.489  0.00  0.00    +0.000 A 
ATOM      7  C   UNL     1       4.858   5.892  18.409  0.00  0.00    +0.000 A 
ATOM      8  C   UNL     1       5.611   4.763  18.710  0.00  0.00    +0.000 A 
ATOM      9  C   UNL     1       4.915   3.688  19.212  0.00  0.00    +0.000 A 
ATOM     10  C   UNL     1       3.526   3.655  19.222  0.00  0.00    +0.000 A 
ATOM     11  C   UNL     1       2.746   4.726  18.824  0.00  0.00    +0.000 A 
ATOM     12  O   UNL     1       3.071   2.491  19.778  0.00  0.00    +0.000 OA
ATOM     13  C   UNL     1       4.251   2.102  20.487  0.00  0.00    +0.000 C 
ATOM     14  O   UNL     1       5.435   2.585  19.831  0.00  0.00    +0.000 OA
BRANCH   8  15
ATOM     15  O   UNL     1       6.971   4.712  18.601  0.00  0.00    +0.000 OA
ATOM     16  C   UNL     1       7.445   4.557  17.263  0.00  0.00    +0.000 C 
ENDBRANCH   8  15
BRANCH  11  17
ATOM     17  O   UNL     1       1.382   4.742  18.891  0.00  0.00    +0.000 OA
ATOM     18  C   UNL     1       0.832   4.423  20.169  0.00  0.00    +0.000 C 
ENDBRANCH  11  17
ENDBRANCH   3   6
BRANCH   1  22
ATOM     19  C   UNL     1      -1.050  11.616  20.629  0.00  0.00    +0.000 A 
ATOM     20  C   UNL     1      -1.074  11.432  19.245  0.00  0.00    +0.000 A 
ATOM     21  C   UNL     1      -0.200  10.539  18.614  0.00  0.00    +0.000 A 
ATOM     22  C   UNL     1       0.711   9.811  19.373  0.00  0.00    +0.000 A 
ATOM     23  C   UNL     1       0.766  10.018  20.758  0.00  0.00    +0.000 A 
ATOM     24  C   UNL     1      -0.112  10.900  21.391  0.00  0.00    +0.000 A 
BRANCH  19  26
ATOM     25  C   UNL     1      -1.662  13.879  21.096  0.00  0.00    +0.000 C 
ATOM     26  O   UNL     1      -2.000  12.499  21.064  0.00  0.00    +0.000 OA
ENDBRANCH  19  26
BRANCH  24  27
ATOM     27  O   UNL     1      -0.022  11.034  22.743  0.00  0.00    +0.000 OA
ATOM     28  H   UNL     1      -0.388  11.888  23.012  0.00  0.00    +0.000 HD
ENDBRANCH  24  27
ENDBRANCH   1  22
TORSDOF 6
ENDMDL
