MODEL 1
REMARK VINA RESULT:      -6.3      0.000      0.000
REMARK  Name = 
REMARK  15 active torsions:
REMARK  status: ('A' for Active; 'I' for Inactive)
REMARK    1  A    between atoms: C_1  and  C_2
REMARK    2  A    between atoms: C_2  and  C_3
REMARK    3  A    between atoms: C_4  and  C_5
REMARK    4  A    between atoms: C_5  and  C_6
REMARK    5  A    between atoms: C_6  and  C_7
REMARK    6  A    between atoms: C_7  and  C_8
REMARK    7  A    between atoms: C_7  and  C_9
REMARK    8  A    between atoms: C_9  and  C_10
REMARK    9  A    between atoms: C_11  and  C_12
REMARK   10  A    between atoms: N_14  and  C_15
REMARK   11  A    between atoms: C_15  and  C_16
REMARK   12  A    between atoms: C_16  and  N_17
REMARK   13  A    between atoms: C_16  and  C_18
REMARK   14  A    between atoms: C_18  and  C_19
REMARK   15  A    between atoms: C_19  and  O_20
REMARK                            x       y       z     vdW  Elec       q    Type
REMARK                         _______ _______ _______ _____ _____    ______ ____
ROOT
ATOM      1  C   UNL     1       2.462   6.358  19.238  0.00  0.00    +0.000 C 
ATOM      2  O   UNL     1       2.222   7.144  20.150  0.00  0.00    +0.000 OA
ATOM      3  N   UNL     1       2.126   5.032  19.264  0.00  0.00    +0.000 N 
ATOM      4  H   UNL     1       2.317   4.438  18.467  0.00  0.00    +0.000 HD
ENDROOT
BRANCH   1   6
ATOM      5  C   UNL     1       4.100   5.922  17.491  0.00  0.00    +0.000 C 
ATOM      6  C   UNL     1       3.189   6.759  18.012  0.00  0.00    +0.000 C 
BRANCH   5   7
ATOM      7  C   UNL     1       4.914   6.209  16.267  0.00  0.00    +0.000 C 
BRANCH   7   8
ATOM      8  C   UNL     1       6.276   5.476  16.240  0.00  0.00    +0.000 C 
ATOM      9  C   UNL     1       7.341   6.255  17.018  0.00  0.00    +0.000 C 
BRANCH   8  10
ATOM     10  C   UNL     1       6.715   5.155  14.794  0.00  0.00    +0.000 C 
BRANCH  10  11
ATOM     11  C   UNL     1       5.653   4.352  14.038  0.00  0.00    +0.000 C 
BRANCH  11  15
ATOM     12  C   UNL     1       6.282   1.773  11.181  0.00  0.00    +0.000 C 
ATOM     13  C   UNL     1       5.630   2.861  11.991  0.00  0.00    +0.000 C 
ATOM     14  C   UNL     1       4.279   3.340  11.541  0.00  0.00    +0.000 C 
ATOM     15  C   UNL     1       6.242   3.350  13.086  0.00  0.00    +0.000 C 
ENDBRANCH  11  15
ENDBRANCH  10  11
ENDBRANCH   8  10
ENDBRANCH   7   8
ENDBRANCH   5   7
ENDBRANCH   1   6
BRANCH   3  16
ATOM     16  C   UNL     1       1.457   4.447  20.409  0.00  0.00    +0.000 C 
BRANCH  16  17
ATOM     17  C   UNL     1       1.730   2.931  20.599  0.00  0.00    +0.000 C 
BRANCH  17  18
ATOM     18  N   UNL     1       2.205   2.725  21.979  0.00  0.00    +0.000 NA
ATOM     19  H   UNL     1       1.814   1.850  22.332  0.00  0.00    +0.000 HD
ATOM     20  H   UNL     1       1.764   3.444  22.568  0.00  0.00    +0.000 HD
ENDBRANCH  17  18
BRANCH  17  21
ATOM     21  C   UNL     1       2.732   2.345  19.580  0.00  0.00    +0.000 C 
BRANCH  21  22
ATOM     22  C   UNL     1       4.179   2.305  20.075  0.00  0.00    +0.000 C 
BRANCH  22  23
ATOM     23  O   UNL     1       5.025   3.149  19.302  0.00  0.00    +0.000 OA
ATOM     24  H   UNL     1       5.929   3.040  19.648  0.00  0.00    +0.000 HD
ENDBRANCH  22  23
ENDBRANCH  21  22
ENDBRANCH  17  21
ENDBRANCH  16  17
ENDBRANCH   3  16
TORSDOF 12
ENDMDL
MODEL 2
REMARK VINA RESULT:      -6.3      1.535      2.129
REMARK  Name = 
REMARK  15 active torsions:
REMARK  status: ('A' for Active; 'I' for Inactive)
REMARK    1  A    between atoms: C_1  and  C_2
REMARK    2  A    between atoms: C_2  and  C_3
REMARK    3  A    between atoms: C_4  and  C_5
REMARK    4  A    between atoms: C_5  and  C_6
REMARK    5  A    between atoms: C_6  and  C_7
REMARK    6  A    between atoms: C_7  and  C_8
REMARK    7  A    between atoms: C_7  and  C_9
REMARK    8  A    between atoms: C_9  and  C_10
REMARK    9  A    between atoms: C_11  and  C_12
REMARK   10  A    between atoms: N_14  and  C_15
REMARK   11  A    between atoms: C_15  and  C_16
REMARK   12  A    between atoms: C_16  and  N_17
REMARK   13  A    between atoms: C_16  and  C_18
REMARK   14  A    between atoms: C_18  and  C_19
REMARK   15  A    between atoms: C_19  and  O_20
REMARK                            x       y       z     vdW  Elec       q    Type
REMARK                         _______ _______ _______ _____ _____    ______ ____
ROOT
ATOM      1  C   UNL     1       3.186   5.447  19.165  0.00  0.00    +0.000 C 
ATOM      2  O   UNL     1       2.528   5.285  18.142  0.00  0.00    +0.000 OA
ATOM      3  N   UNL     1       2.712   5.202  20.426  0.00  0.00    +0.000 N 
ATOM      4  H   UNL     1       3.312   5.320  21.232  0.00  0.00    +0.000 HD
ENDROOT
BRANCH   1   6
ATOM      5  C   UNL     1       5.595   5.114  19.266  0.00  0.00    +0.000 C 
ATOM      6  C   UNL     1       4.571   5.973  19.147  0.00  0.00    +0.000 C 
BRANCH   5   7
ATOM      7  C   UNL     1       7.039   5.513  19.279  0.00  0.00    +0.000 C 
BRANCH   7   8
ATOM      8  C   UNL     1       7.650   5.681  17.868  0.00  0.00    +0.000 C 
ATOM      9  C   UNL     1       7.487   7.117  17.360  0.00  0.00    +0.000 C 
BRANCH   8  10
ATOM     10  C   UNL     1       7.084   4.636  16.881  0.00  0.00    +0.000 C 
BRANCH  10  11
ATOM     11  C   UNL     1       6.592   5.280  15.583  0.00  0.00    +0.000 C 
BRANCH  11  15
ATOM     12  C   UNL     1       5.977   3.214  12.334  0.00  0.00    +0.000 C 
ATOM     13  C   UNL     1       6.593   4.193  13.295  0.00  0.00    +0.000 C 
ATOM     14  C   UNL     1       7.690   5.076  12.772  0.00  0.00    +0.000 C 
ATOM     15  C   UNL     1       6.142   4.275  14.562  0.00  0.00    +0.000 C 
ENDBRANCH  11  15
ENDBRANCH  10  11
ENDBRANCH   8  10
ENDBRANCH   7   8
ENDBRANCH   5   7
ENDBRANCH   1   6
BRANCH   3  16
ATOM     16  C   UNL     1       1.358   4.735  20.643  0.00  0.00    +0.000 C 
BRANCH  16  17
ATOM     17  C   UNL     1       1.242   3.207  20.888  0.00  0.00    +0.000 C 
BRANCH  17  18
ATOM     18  N   UNL     1       2.379   2.795  21.730  0.00  0.00    +0.000 NA
ATOM     19  H   UNL     1       3.234   3.199  21.345  0.00  0.00    +0.000 HD
ATOM     20  H   UNL     1       2.507   1.782  21.601  0.00  0.00    +0.000 HD
ENDBRANCH  17  18
BRANCH  17  21
ATOM     21  C   UNL     1       1.188   2.371  19.590  0.00  0.00    +0.000 C 
BRANCH  21  22
ATOM     22  C   UNL     1       2.550   1.861  19.114  0.00  0.00    +0.000 C 
BRANCH  22  23
ATOM     23  O   UNL     1       2.843   2.296  17.791  0.00  0.00    +0.000 OA
ATOM     24  H   UNL     1       3.707   1.914  17.551  0.00  0.00    +0.000 HD
ENDBRANCH  22  23
ENDBRANCH  21  22
ENDBRANCH  17  21
ENDBRANCH  16  17
ENDBRANCH   3  16
TORSDOF 12
ENDMDL
MODEL 3
REMARK VINA RESULT:      -6.1      1.900      2.628
REMARK  Name = 
REMARK  15 active torsions:
REMARK  status: ('A' for Active; 'I' for Inactive)
REMARK    1  A    between atoms: C_1  and  C_2
REMARK    2  A    between atoms: C_2  and  C_3
REMARK    3  A    between atoms: C_4  and  C_5
REMARK    4  A    between atoms: C_5  and  C_6
REMARK    5  A    between atoms: C_6  and  C_7
REMARK    6  A    between atoms: C_7  and  C_8
REMARK    7  A    between atoms: C_7  and  C_9
REMARK    8  A    between atoms: C_9  and  C_10
REMARK    9  A    between atoms: C_11  and  C_12
REMARK   10  A    between atoms: N_14  and  C_15
REMARK   11  A    between atoms: C_15  and  C_16
REMARK   12  A    between atoms: C_16  and  N_17
REMARK   13  A    between atoms: C_16  and  C_18
REMARK   14  A    between atoms: C_18  and  C_19
REMARK   15  A    between atoms: C_19  and  O_20
REMARK                            x       y       z     vdW  Elec       q    Type
REMARK                         _______ _______ _______ _____ _____    ______ ____
ROOT
ATOM      1  C   UNL     1       4.941   4.271  19.481  0.00  0.00    +0.000 C 
ATOM      2  O   UNL     1       4.905   3.140  19.955  0.00  0.00    +0.000 OA
ATOM      3  N   UNL     1       3.951   5.202  19.646  0.00  0.00    +0.000 N 
ATOM      4  H   UNL     1       4.051   6.132  19.261  0.00  0.00    +0.000 HD
ENDROOT
BRANCH   1   6
ATOM      5  C   UNL     1       6.169   4.270  17.379  0.00  0.00    +0.000 C 
ATOM      6  C   UNL     1       6.058   4.743  18.630  0.00  0.00    +0.000 C 
BRANCH   5   7
ATOM      7  C   UNL     1       7.257   4.652  16.422  0.00  0.00    +0.000 C 
BRANCH   7   8
ATOM      8  C   UNL     1       6.789   5.609  15.300  0.00  0.00    +0.000 C 
ATOM      9  C   UNL     1       5.350   6.078  15.535  0.00  0.00    +0.000 C 
BRANCH   8  10
ATOM     10  C   UNL     1       6.987   4.979  13.903  0.00  0.00    +0.000 C 
BRANCH  10  11
ATOM     11  C   UNL     1       6.211   3.669  13.750  0.00  0.00    +0.000 C 
BRANCH  11  15
ATOM     12  C   UNL     1       3.728   3.296  10.767  0.00  0.00    +0.000 C 
ATOM     13  C   UNL     1       4.866   3.010  11.708  0.00  0.00    +0.000 C 
ATOM     14  C   UNL     1       5.778   1.867  11.360  0.00  0.00    +0.000 C 
ATOM     15  C   UNL     1       5.055   3.779  12.797  0.00  0.00    +0.000 C 
ENDBRANCH  11  15
ENDBRANCH  10  11
ENDBRANCH   8  10
ENDBRANCH   7   8
ENDBRANCH   5   7
ENDBRANCH   1   6
BRANCH   3  16
ATOM     16  C   UNL     1       2.753   4.900  20.404  0.00  0.00    +0.000 C 
BRANCH  16  17
ATOM     17  C   UNL     1       1.508   4.596  19.530  0.00  0.00    +0.000 C 
BRANCH  17  18
ATOM     18  N   UNL     1       0.600   3.740  20.315  0.00  0.00    +0.000 NA
ATOM     19  H   UNL     1       1.085   2.871  20.540  0.00  0.00    +0.000 HD
ATOM     20  H   UNL     1      -0.160   3.441  19.689  0.00  0.00    +0.000 HD
ENDBRANCH  17  18
BRANCH  17  21
ATOM     21  C   UNL     1       1.843   3.941  18.172  0.00  0.00    +0.000 C 
BRANCH  21  22
ATOM     22  C   UNL     1       1.926   2.414  18.215  0.00  0.00    +0.000 C 
BRANCH  22  23
ATOM     23  O   UNL     1       0.636   1.816  18.253  0.00  0.00    +0.000 OA
ATOM     24  H   UNL     1       0.008   2.510  18.523  0.00  0.00    +0.000 HD
ENDBRANCH  22  23
ENDBRANCH  21  22
ENDBRANCH  17  21
ENDBRANCH  16  17
ENDBRANCH   3  16
TORSDOF 12
ENDMDL
MODEL 4
REMARK VINA RESULT:      -6.0      1.532      1.973
REMARK  Name = 
REMARK  15 active torsions:
REMARK  status: ('A' for Active; 'I' for Inactive)
REMARK    1  A    between atoms: C_1  and  C_2
REMARK    2  A    between atoms: C_2  and  C_3
REMARK    3  A    between atoms: C_4  and  C_5
REMARK    4  A    between atoms: C_5  and  C_6
REMARK    5  A    between atoms: C_6  and  C_7
REMARK    6  A    between atoms: C_7  and  C_8
REMARK    7  A    between atoms: C_7  and  C_9
REMARK    8  A    between atoms: C_9  and  C_10
REMARK    9  A    between atoms: C_11  and  C_12
REMARK   10  A    between atoms: N_14  and  C_15
REMARK   11  A    between atoms: C_15  and  C_16
REMARK   12  A    between atoms: C_16  and  N_17
REMARK   13  A    between atoms: C_16  and  C_18
REMARK   14  A    between atoms: C_18  and  C_19
REMARK   15  A    between atoms: C_19  and  O_20
REMARK                            x       y       z     vdW  Elec       q    Type
REMARK                         _______ _______ _______ _____ _____    ______ ____
ROOT
ATOM      1  C   UNL     1       3.392   5.513  18.973  0.00  0.00    +0.000 C 
ATOM      2  O   UNL     1       2.436   5.804  18.261  0.00  0.00    +0.000 OA
ATOM      3  N   UNL     1       3.275   4.993  20.234  0.00  0.00    +0.000 N 
ATOM      4  H   UNL     1       4.100   4.739  20.763  0.00  0.00    +0.000 HD
ENDROOT
BRANCH   1   6
ATOM      5  C   UNL     1       5.597   4.674  18.376  0.00  0.00    +0.000 C 
ATOM      6  C   UNL     1       4.795   5.735  18.554  0.00  0.00    +0.000 C 
BRANCH   5   7
ATOM      7  C   UNL     1       7.037   4.758  17.969  0.00  0.00    +0.000 C 
BRANCH   7   8
ATOM      8  C   UNL     1       7.301   5.765  16.825  0.00  0.00    +0.000 C 
ATOM      9  C   UNL     1       7.348   7.203  17.352  0.00  0.00    +0.000 C 
BRANCH   8  10
ATOM     10  C   UNL     1       6.287   5.589  15.673  0.00  0.00    +0.000 C 
BRANCH  10  11
ATOM     11  C   UNL     1       6.694   4.465  14.717  0.00  0.00    +0.000 C 
BRANCH  11  15
ATOM     12  C   UNL     1       4.492   3.285  11.724  0.00  0.00    +0.000 C 
ATOM     13  C   UNL     1       5.708   3.595  12.553  0.00  0.00    +0.000 C 
ATOM     14  C   UNL     1       7.049   3.441  11.894  0.00  0.00    +0.000 C 
ATOM     15  C   UNL     1       5.572   4.018  13.824  0.00  0.00    +0.000 C 
ENDBRANCH  11  15
ENDBRANCH  10  11
ENDBRANCH   8  10
ENDBRANCH   7   8
ENDBRANCH   5   7
ENDBRANCH   1   6
BRANCH   3  16
ATOM     16  C   UNL     1       1.978   4.759  20.835  0.00  0.00    +0.000 C 
BRANCH  16  17
ATOM     17  C   UNL     1       1.494   3.287  20.753  0.00  0.00    +0.000 C 
BRANCH  17  18
ATOM     18  N   UNL     1       1.489   2.733  22.118  0.00  0.00    +0.000 NA
ATOM     19  H   UNL     1       0.522   2.653  22.435  0.00  0.00    +0.000 HD
ATOM     20  H   UNL     1       1.893   3.445  22.741  0.00  0.00    +0.000 HD
ENDBRANCH  17  18
BRANCH  17  21
ATOM     21  C   UNL     1       2.338   2.406  19.805  0.00  0.00    +0.000 C 
BRANCH  21  22
ATOM     22  C   UNL     1       1.733   2.223  18.412  0.00  0.00    +0.000 C 
BRANCH  22  23
ATOM     23  O   UNL     1       0.815   3.263  18.095  0.00  0.00    +0.000 OA
ATOM     24  H   UNL     1       0.609   3.725  18.927  0.00  0.00    +0.000 HD
ENDBRANCH  22  23
ENDBRANCH  21  22
ENDBRANCH  17  21
ENDBRANCH  16  17
ENDBRANCH   3  16
TORSDOF 12
ENDMDL
MODEL 5
REMARK VINA RESULT:      -6.0      1.377      2.411
REMARK  Name = 
REMARK  15 active torsions:
REMARK  status: ('A' for Active; 'I' for Inactive)
REMARK    1  A    between atoms: C_1  and  C_2
REMARK    2  A    between atoms: C_2  and  C_3
REMARK    3  A    between atoms: C_4  and  C_5
REMARK    4  A    between atoms: C_5  and  C_6
REMARK    5  A    between atoms: C_6  and  C_7
REMARK    6  A    between atoms: C_7  and  C_8
REMARK    7  A    between atoms: C_7  and  C_9
REMARK    8  A    between atoms: C_9  and  C_10
REMARK    9  A    between atoms: C_11  and  C_12
REMARK   10  A    between atoms: N_14  and  C_15
REMARK   11  A    between atoms: C_15  and  C_16
REMARK   12  A    between atoms: C_16  and  N_17
REMARK   13  A    between atoms: C_16  and  C_18
REMARK   14  A    between atoms: C_18  and  C_19
REMARK   15  A    between atoms: C_19  and  O_20
REMARK                            x       y       z     vdW  Elec       q    Type
REMARK                         _______ _______ _______ _____ _____    ______ ____
ROOT
ATOM      1  C   UNL     1       3.851   2.912  18.562  0.00  0.00    +0.000 C 
ATOM      2  O   UNL     1       3.011   2.156  18.083  0.00  0.00    +0.000 OA
ATOM      3  N   UNL     1       4.029   3.105  19.905  0.00  0.00    +0.000 N 
ATOM      4  H   UNL     1       4.762   3.714  20.244  0.00  0.00    +0.000 HD
ENDROOT
BRANCH   1   6
ATOM      5  C   UNL     1       4.216   4.503  16.756  0.00  0.00    +0.000 C 
ATOM      6  C   UNL     1       4.749   3.740  17.724  0.00  0.00    +0.000 C 
BRANCH   5   7
ATOM      7  C   UNL     1       5.010   5.373  15.830  0.00  0.00    +0.000 C 
BRANCH   7   8
ATOM      8  C   UNL     1       6.540   5.192  15.965  0.00  0.00    +0.000 C 
ATOM      9  C   UNL     1       7.172   6.367  16.718  0.00  0.00    +0.000 C 
BRANCH   8  10
ATOM     10  C   UNL     1       7.201   4.943  14.592  0.00  0.00    +0.000 C 
BRANCH  10  11
ATOM     11  C   UNL     1       6.169   4.627  13.507  0.00  0.00    +0.000 C 
BRANCH  11  15
ATOM     12  C   UNL     1       6.038   1.453  11.245  0.00  0.00    +0.000 C 
ATOM     13  C   UNL     1       5.673   2.785  11.841  0.00  0.00    +0.000 C 
ATOM     14  C   UNL     1       4.382   3.411  11.392  0.00  0.00    +0.000 C 
ATOM     15  C   UNL     1       6.473   3.361  12.758  0.00  0.00    +0.000 C 
ENDBRANCH  11  15
ENDBRANCH  10  11
ENDBRANCH   8  10
ENDBRANCH   7   8
ENDBRANCH   5   7
ENDBRANCH   1   6
BRANCH   3  16
ATOM     16  C   UNL     1       3.203   2.420  20.880  0.00  0.00    +0.000 C 
BRANCH  16  17
ATOM     17  C   UNL     1       2.162   3.330  21.583  0.00  0.00    +0.000 C 
BRANCH  17  18
ATOM     18  N   UNL     1       1.257   2.466  22.363  0.00  0.00    +0.000 NA
ATOM     19  H   UNL     1       1.414   1.496  22.087  0.00  0.00    +0.000 HD
ATOM     20  H   UNL     1       0.297   2.658  22.046  0.00  0.00    +0.000 HD
ENDBRANCH  17  18
BRANCH  17  21
ATOM     21  C   UNL     1       1.362   4.227  20.613  0.00  0.00    +0.000 C 
BRANCH  21  22
ATOM     22  C   UNL     1       1.745   5.707  20.666  0.00  0.00    +0.000 C 
BRANCH  22  23
ATOM     23  O   UNL     1       2.764   6.023  19.724  0.00  0.00    +0.000 OA
ATOM     24  H   UNL     1       3.311   5.224  19.617  0.00  0.00    +0.000 HD
ENDBRANCH  22  23
ENDBRANCH  21  22
ENDBRANCH  17  21
ENDBRANCH  16  17
ENDBRANCH   3  16
TORSDOF 12
ENDMDL
MODEL 6
REMARK VINA RESULT:      -5.9      3.761      7.363
REMARK  Name = 
REMARK  15 active torsions:
REMARK  status: ('A' for Active; 'I' for Inactive)
REMARK    1  A    between atoms: C_1  and  C_2
REMARK    2  A    between atoms: C_2  and  C_3
REMARK    3  A    between atoms: C_4  and  C_5
REMARK    4  A    between atoms: C_5  and  C_6
REMARK    5  A    between atoms: C_6  and  C_7
REMARK    6  A    between atoms: C_7  and  C_8
REMARK    7  A    between atoms: C_7  and  C_9
REMARK    8  A    between atoms: C_9  and  C_10
REMARK    9  A    between atoms: C_11  and  C_12
REMARK   10  A    between atoms: N_14  and  C_15
REMARK   11  A    between atoms: C_15  and  C_16
REMARK   12  A    between atoms: C_16  and  N_17
REMARK   13  A    between atoms: C_16  and  C_18
REMARK   14  A    between atoms: C_18  and  C_19
REMARK   15  A    between atoms: C_19  and  O_20
REMARK                            x       y       z     vdW  Elec       q    Type
REMARK                         _______ _______ _______ _____ _____    ______ ____
ROOT
ATOM      1  C   UNL     1       6.800   4.755  15.064  0.00  0.00    +0.000 C 
ATOM      2  O   UNL     1       7.708   5.431  14.590  0.00  0.00    +0.000 OA
ATOM      3  N   UNL     1       6.047   3.870  14.341  0.00  0.00    +0.000 N 
ATOM      4  H   UNL     1       5.333   3.314  14.793  0.00  0.00    +0.000 HD
ENDROOT
BRANCH   1   6
ATOM      5  C   UNL     1       5.340   5.630  16.804  0.00  0.00    +0.000 C 
ATOM      6  C   UNL     1       6.389   4.857  16.484  0.00  0.00    +0.000 C 
BRANCH   5   7
ATOM      7  C   UNL     1       4.830   5.833  18.198  0.00  0.00    +0.000 C 
BRANCH   7   8
ATOM      8  C   UNL     1       3.354   6.290  18.260  0.00  0.00    +0.000 C 
ATOM      9  C   UNL     1       3.178   7.681  17.642  0.00  0.00    +0.000 C 
BRANCH   8  10
ATOM     10  C   UNL     1       2.798   6.206  19.699  0.00  0.00    +0.000 C 
BRANCH  10  11
ATOM     11  C   UNL     1       1.795   5.061  19.860  0.00  0.00    +0.000 C 
BRANCH  11  15
ATOM     12  C   UNL     1       2.782   2.016  17.633  0.00  0.00    +0.000 C 
ATOM     13  C   UNL     1       2.667   2.917  18.833  0.00  0.00    +0.000 C 
ATOM     14  C   UNL     1       3.451   2.538  20.057  0.00  0.00    +0.000 C 
ATOM     15  C   UNL     1       1.906   4.027  18.777  0.00  0.00    +0.000 C 
ENDBRANCH  11  15
ENDBRANCH  10  11
ENDBRANCH   8  10
ENDBRANCH   7   8
ENDBRANCH   5   7
ENDBRANCH   1   6
BRANCH   3  16
ATOM     16  C   UNL     1       6.268   3.678  12.922  0.00  0.00    +0.000 C 
BRANCH  16  17
ATOM     17  C   UNL     1       5.131   2.910  12.198  0.00  0.00    +0.000 C 
BRANCH  17  18
ATOM     18  N   UNL     1       5.736   1.775  11.478  0.00  0.00    +0.000 NA
ATOM     19  H   UNL     1       6.297   2.139  10.707  0.00  0.00    +0.000 HD
ATOM     20  H   UNL     1       4.974   1.267  11.009  0.00  0.00    +0.000 HD
ENDBRANCH  17  18
BRANCH  17  21
ATOM     21  C   UNL     1       4.299   3.788  11.238  0.00  0.00    +0.000 C 
BRANCH  21  22
ATOM     22  C   UNL     1       3.251   3.018  10.432  0.00  0.00    +0.000 C 
BRANCH  22  23
ATOM     23  O   UNL     1       2.943   3.671   9.206  0.00  0.00    +0.000 OA
ATOM     24  H   UNL     1       3.420   3.195   8.503  0.00  0.00    +0.000 HD
ENDBRANCH  22  23
ENDBRANCH  21  22
ENDBRANCH  17  21
ENDBRANCH  16  17
ENDBRANCH   3  16
TORSDOF 12
ENDMDL
MODEL 7
REMARK VINA RESULT:      -5.9      3.171      6.202
REMARK  Name = 
REMARK  15 active torsions:
REMARK  status: ('A' for Active; 'I' for Inactive)
REMARK    1  A    between atoms: C_1  and  C_2
REMARK    2  A    between atoms: C_2  and  C_3
REMARK    3  A    between atoms: C_4  and  C_5
REMARK    4  A    between atoms: C_5  and  C_6
REMARK    5  A    between atoms: C_6  and  C_7
REMARK    6  A    between atoms: C_7  and  C_8
REMARK    7  A    between atoms: C_7  and  C_9
REMARK    8  A    between atoms: C_9  and  C_10
REMARK    9  A    between atoms: C_11  and  C_12
REMARK   10  A    between atoms: N_14  and  C_15
REMARK   11  A    between atoms: C_15  and  C_16
REMARK   12  A    between atoms: C_16  and  N_17
REMARK   13  A    between atoms: C_16  and  C_18
REMARK   14  A    between atoms: C_18  and  C_19
REMARK   15  A    between atoms: C_19  and  O_20
REMARK                            x       y       z     vdW  Elec       q    Type
REMARK                         _______ _______ _______ _____ _____    ______ ____
ROOT
ATOM      1  C   UNL     1       3.683   6.672  18.202  0.00  0.00    +0.000 C 
ATOM      2  O   UNL     1       3.002   7.193  17.324  0.00  0.00    +0.000 OA
ATOM      3  N   UNL     1       5.012   6.376  18.063  0.00  0.00    +0.000 N 
ATOM      4  H   UNL     1       5.533   5.978  18.834  0.00  0.00    +0.000 HD
ENDROOT
BRANCH   1   6
ATOM      5  C   UNL     1       2.037   5.476  19.537  0.00  0.00    +0.000 C 
ATOM      6  C   UNL     1       3.122   6.265  19.511  0.00  0.00    +0.000 C 
BRANCH   5   7
ATOM      7  C   UNL     1       1.361   5.005  20.789  0.00  0.00    +0.000 C 
BRANCH   7   8
ATOM      8  C   UNL     1       1.034   3.493  20.787  0.00  0.00    +0.000 C 
ATOM      9  C   UNL     1       2.120   2.690  21.510  0.00  0.00    +0.000 C 
BRANCH   8  10
ATOM     10  C   UNL     1       0.767   2.976  19.356  0.00  0.00    +0.000 C 
BRANCH  10  11
ATOM     11  C   UNL     1       1.788   1.918  18.930  0.00  0.00    +0.000 C 
BRANCH  11  15
ATOM     12  C   UNL     1       4.505   3.313  16.506  0.00  0.00    +0.000 C 
ATOM     13  C   UNL     1       3.845   2.829  17.768  0.00  0.00    +0.000 C 
ATOM     14  C   UNL     1       4.625   2.957  19.046  0.00  0.00    +0.000 C 
ATOM     15  C   UNL     1       2.595   2.330  17.732  0.00  0.00    +0.000 C 
ENDBRANCH  11  15
ENDBRANCH  10  11
ENDBRANCH   8  10
ENDBRANCH   7   8
ENDBRANCH   5   7
ENDBRANCH   1   6
BRANCH   3  16
ATOM     16  C   UNL     1       5.720   6.652  16.829  0.00  0.00    +0.000 C 
BRANCH  16  17
ATOM     17  C   UNL     1       7.259   6.484  16.926  0.00  0.00    +0.000 C 
BRANCH  17  18
ATOM     18  N   UNL     1       7.552   5.045  17.054  0.00  0.00    +0.000 NA
ATOM     19  H   UNL     1       8.089   4.747  16.239  0.00  0.00    +0.000 HD
ATOM     20  H   UNL     1       6.661   4.539  16.959  0.00  0.00    +0.000 HD
ENDBRANCH  17  18
BRANCH  17  21
ATOM     21  C   UNL     1       7.901   7.280  18.084  0.00  0.00    +0.000 C 
BRANCH  21  22
ATOM     22  C   UNL     1       8.045   8.778  17.811  0.00  0.00    +0.000 C 
BRANCH  22  23
ATOM     23  O   UNL     1       8.801   9.429  18.827  0.00  0.00    +0.000 OA
ATOM     24  H   UNL     1       8.196  10.039  19.285  0.00  0.00    +0.000 HD
ENDBRANCH  22  23
ENDBRANCH  21  22
ENDBRANCH  17  21
ENDBRANCH  16  17
ENDBRANCH   3  16
TORSDOF 12
ENDMDL
MODEL 8
REMARK VINA RESULT:      -5.8      3.374      6.969
REMARK  Name = 
REMARK  15 active torsions:
REMARK  status: ('A' for Active; 'I' for Inactive)
REMARK    1  A    between atoms: C_1  and  C_2
REMARK    2  A    between atoms: C_2  and  C_3
REMARK    3  A    between atoms: C_4  and  C_5
REMARK    4  A    between atoms: C_5  and  C_6
REMARK    5  A    between atoms: C_6  and  C_7
REMARK    6  A    between atoms: C_7  and  C_8
REMARK    7  A    between atoms: C_7  and  C_9
REMARK    8  A    between atoms: C_9  and  C_10
REMARK    9  A    between atoms: C_11  and  C_12
REMARK   10  A    between atoms: N_14  and  C_15
REMARK   11  A    between atoms: C_15  and  C_16
REMARK   12  A    between atoms: C_16  and  N_17
REMARK   13  A    between atoms: C_16  and  C_18
REMARK   14  A    between atoms: C_18  and  C_19
REMARK   15  A    between atoms: C_19  and  O_20
REMARK                            x       y       z     vdW  Elec       q    Type
REMARK                         _______ _______ _______ _____ _____    ______ ____
ROOT
ATOM      1  C   UNL     1       5.479   5.658  15.978  0.00  0.00    +0.000 C 
ATOM      2  O   UNL     1       5.158   6.703  15.420  0.00  0.00    +0.000 OA
ATOM      3  N   UNL     1       6.394   4.773  15.475  0.00  0.00    +0.000 N 
ATOM      4  H   UNL     1       6.646   3.943  15.996  0.00  0.00    +0.000 HD
ENDROOT
BRANCH   1   6
ATOM      5  C   UNL     1       4.532   6.139  18.168  0.00  0.00    +0.000 C 
ATOM      6  C   UNL     1       4.871   5.216  17.254  0.00  0.00    +0.000 C 
BRANCH   5   7
ATOM      7  C   UNL     1       3.925   5.828  19.502  0.00  0.00    +0.000 C 
BRANCH   7   8
ATOM      8  C   UNL     1       2.403   6.097  19.570  0.00  0.00    +0.000 C 
ATOM      9  C   UNL     1       2.111   7.594  19.714  0.00  0.00    +0.000 C 
BRANCH   8  10
ATOM     10  C   UNL     1       1.730   5.253  20.674  0.00  0.00    +0.000 C 
BRANCH  10  11
ATOM     11  C   UNL     1       1.118   3.965  20.119  0.00  0.00    +0.000 C 
BRANCH  11  15
ATOM     12  C   UNL     1       3.506   1.324  18.529  0.00  0.00    +0.000 C 
ATOM     13  C   UNL     1       2.566   2.492  18.654  0.00  0.00    +0.000 C 
ATOM     14  C   UNL     1       2.116   3.154  17.382  0.00  0.00    +0.000 C 
ATOM     15  C   UNL     1       2.137   2.891  19.867  0.00  0.00    +0.000 C 
ENDBRANCH  11  15
ENDBRANCH  10  11
ENDBRANCH   8  10
ENDBRANCH   7   8
ENDBRANCH   5   7
ENDBRANCH   1   6
BRANCH   3  16
ATOM     16  C   UNL     1       7.054   5.011  14.207  0.00  0.00    +0.000 C 
BRANCH  16  17
ATOM     17  C   UNL     1       6.758   3.940  13.124  0.00  0.00    +0.000 C 
BRANCH  17  18
ATOM     18  N   UNL     1       7.358   4.396  11.858  0.00  0.00    +0.000 NA
ATOM     19  H   UNL     1       7.174   5.394  11.750  0.00  0.00    +0.000 HD
ATOM     20  H   UNL     1       6.825   3.965  11.091  0.00  0.00    +0.000 HD
ENDBRANCH  17  18
BRANCH  17  21
ATOM     21  C   UNL     1       5.254   3.637  12.942  0.00  0.00    +0.000 C 
BRANCH  21  22
ATOM     22  C   UNL     1       4.915   2.899  11.646  0.00  0.00    +0.000 C 
BRANCH  22  23
ATOM     23  O   UNL     1       5.685   1.711  11.498  0.00  0.00    +0.000 OA
ATOM     24  H   UNL     1       5.839   1.589  10.544  0.00  0.00    +0.000 HD
ENDBRANCH  22  23
ENDBRANCH  21  22
ENDBRANCH  17  21
ENDBRANCH  16  17
ENDBRANCH   3  16
TORSDOF 12
ENDMDL
MODEL 9
REMARK VINA RESULT:      -5.8      3.856      7.345
REMARK  Name = 
REMARK  15 active torsions:
REMARK  status: ('A' for Active; 'I' for Inactive)
REMARK    1  A    between atoms: C_1  and  C_2
REMARK    2  A    between atoms: C_2  and  C_3
REMARK    3  A    between atoms: C_4  and  C_5
REMARK    4  A    between atoms: C_5  and  C_6
REMARK    5  A    between atoms: C_6  and  C_7
REMARK    6  A    between atoms: C_7  and  C_8
REMARK    7  A    between atoms: C_7  and  C_9
REMARK    8  A    between atoms: C_9  and  C_10
REMARK    9  A    between atoms: C_11  and  C_12
REMARK   10  A    between atoms: N_14  and  C_15
REMARK   11  A    between atoms: C_15  and  C_16
REMARK   12  A    between atoms: C_16  and  N_17
REMARK   13  A    between atoms: C_16  and  C_18
REMARK   14  A    between atoms: C_18  and  C_19
REMARK   15  A    between atoms: C_19  and  O_20
REMARK                            x       y       z     vdW  Elec       q    Type
REMARK                         _______ _______ _______ _____ _____    ______ ____
ROOT
ATOM      1  C   UNL     1       6.615   4.948  14.730  0.00  0.00    +0.000 C 
ATOM      2  O   UNL     1       7.690   5.405  14.356  0.00  0.00    +0.000 OA
ATOM      3  N   UNL     1       5.867   4.061  14.003  0.00  0.00    +0.000 N 
ATOM      4  H   UNL     1       5.003   3.690  14.377  0.00  0.00    +0.000 HD
ENDROOT
BRANCH   1   6
ATOM      5  C   UNL     1       5.312   6.505  16.073  0.00  0.00    +0.000 C 
ATOM      6  C   UNL     1       5.982   5.343  16.009  0.00  0.00    +0.000 C 
BRANCH   5   7
ATOM      7  C   UNL     1       4.641   7.030  17.305  0.00  0.00    +0.000 C 
BRANCH   7   8
ATOM      8  C   UNL     1       3.776   5.977  18.038  0.00  0.00    +0.000 C 
ATOM      9  C   UNL     1       2.384   6.531  18.362  0.00  0.00    +0.000 C 
BRANCH   8  10
ATOM     10  C   UNL     1       4.499   5.423  19.285  0.00  0.00    +0.000 C 
BRANCH  10  11
ATOM     11  C   UNL     1       4.521   3.893  19.304  0.00  0.00    +0.000 C 
BRANCH  11  15
ATOM     12  C   UNL     1       0.969   2.287  19.210  0.00  0.00    +0.000 C 
ATOM     13  C   UNL     1       2.326   2.754  18.758  0.00  0.00    +0.000 C 
ATOM     14  C   UNL     1       2.649   2.623  17.297  0.00  0.00    +0.000 C 
ATOM     15  C   UNL     1       3.188   3.290  19.643  0.00  0.00    +0.000 C 
ENDBRANCH  11  15
ENDBRANCH  10  11
ENDBRANCH   8  10
ENDBRANCH   7   8
ENDBRANCH   5   7
ENDBRANCH   1   6
BRANCH   3  16
ATOM     16  C   UNL     1       6.300   3.602  12.699  0.00  0.00    +0.000 C 
BRANCH  16  17
ATOM     17  C   UNL     1       5.232   2.789  11.922  0.00  0.00    +0.000 C 
BRANCH  17  18
ATOM     18  N   UNL     1       5.817   1.482  11.576  0.00  0.00    +0.000 NA
ATOM     19  H   UNL     1       6.823   1.518  11.751  0.00  0.00    +0.000 HD
ATOM     20  H   UNL     1       5.750   1.373  10.556  0.00  0.00    +0.000 HD
ENDBRANCH  17  18
BRANCH  17  21
ATOM     21  C   UNL     1       4.701   3.504  10.659  0.00  0.00    +0.000 C 
BRANCH  21  22
ATOM     22  C   UNL     1       3.190   3.381  10.456  0.00  0.00    +0.000 C 
BRANCH  22  23
ATOM     23  O   UNL     1       2.800   3.772   9.145  0.00  0.00    +0.000 OA
ATOM     24  H   UNL     1       2.540   2.961   8.671  0.00  0.00    +0.000 HD
ENDBRANCH  22  23
ENDBRANCH  21  22
ENDBRANCH  17  21
ENDBRANCH  16  17
ENDBRANCH   3  16
TORSDOF 12
ENDMDL
