MODEL 1
REMARK VINA RESULT:      -7.1      0.000      0.000
REMARK  Name = 
REMARK  4 active torsions:
REMARK  status: ('A' for Active; 'I' for Inactive)
REMARK    1  A    between atoms: C_1  and  N_2
REMARK    2  A    between atoms: C_6  and  N_7
REMARK    3  A    between atoms: N_7  and  C_8
REMARK    4  A    between atoms: N_17  and  C_18
REMARK                            x       y       z     vdW  Elec       q    Type
REMARK                         _______ _______ _______ _____ _____    ______ ____
ROOT
ATOM      1  C   UNL     1       4.703   4.088  16.505  0.00  0.00    +0.000 C 
ATOM      2  N   UNL     1       3.766   4.363  17.583  0.00  0.00    +0.000 N 
ATOM      3  C   UNL     1       3.510   5.683  17.905  0.00  0.00    +0.000 C 
ATOM      4  O   UNL     1       3.970   6.640  17.287  0.00  0.00    +0.000 OA
ATOM      5  C   UNL     1       2.642   5.877  19.083  0.00  0.00    +0.000 C 
ATOM      6  C   UNL     1       2.499   7.115  19.592  0.00  0.00    +0.000 C 
ATOM      7  C   UNL     1       1.974   4.733  19.731  0.00  0.00    +0.000 C 
ATOM      8  O   UNL     1       1.202   4.897  20.678  0.00  0.00    +0.000 OA
ATOM      9  N   UNL     1       2.286   3.495  19.214  0.00  0.00    +0.000 N 
ATOM     10  C   UNL     1       1.677   2.328  19.832  0.00  0.00    +0.000 C 
ATOM     11  C   UNL     1       3.190   3.255  18.190  0.00  0.00    +0.000 C 
ATOM     12  O   UNL     1       3.471   2.108  17.838  0.00  0.00    +0.000 OA
ENDROOT
BRANCH   6  13
ATOM     13  N   UNL     1       1.785   7.475  20.711  0.00  0.00    +0.000 N 
ATOM     14  H   UNL     1       1.845   6.808  21.486  0.00  0.00    +0.000 HD
BRANCH  13  15
ATOM     15  C   UNL     1       1.010   8.616  20.959  0.00  0.00    +0.000 A 
ATOM     16  C   UNL     1       0.632   9.524  19.963  0.00  0.00    +0.000 A 
ATOM     17  C   UNL     1      -0.122  10.659  20.276  0.00  0.00    +0.000 A 
ATOM     18  C   UNL     1      -0.499  10.903  21.593  0.00  0.00    +0.000 A 
ATOM     19 CL   UNL     1      -1.416  12.305  21.977  0.00  0.00    +0.000 Cl
ATOM     20  C   UNL     1      -0.133  10.015  22.600  0.00  0.00    +0.000 A 
ATOM     21  C   UNL     1       0.617   8.881  22.282  0.00  0.00    +0.000 A 
ENDBRANCH  13  15
ENDBRANCH   6  13
TORSDOF 2
ENDMDL
MODEL 2
REMARK VINA RESULT:      -7.1      0.161      1.087
REMARK  Name = 
REMARK  4 active torsions:
REMARK  status: ('A' for Active; 'I' for Inactive)
REMARK    1  A    between atoms: C_1  and  N_2
REMARK    2  A    between atoms: C_6  and  N_7
REMARK    3  A    between atoms: N_7  and  C_8
REMARK    4  A    between atoms: N_17  and  C_18
REMARK                            x       y       z     vdW  Elec       q    Type
REMARK                         _______ _______ _______ _____ _____    ______ ____
ROOT
ATOM      1  C   UNL     1       4.837   4.040  16.565  0.00  0.00    +0.000 C 
ATOM      2  N   UNL     1       3.866   4.312  17.613  0.00  0.00    +0.000 N 
ATOM      3  C   UNL     1       3.613   5.631  17.943  0.00  0.00    +0.000 C 
ATOM      4  O   UNL     1       4.105   6.591  17.354  0.00  0.00    +0.000 OA
ATOM      5  C   UNL     1       2.707   5.820  19.093  0.00  0.00    +0.000 C 
ATOM      6  C   UNL     1       2.560   7.054  19.612  0.00  0.00    +0.000 C 
ATOM      7  C   UNL     1       2.004   4.677  19.703  0.00  0.00    +0.000 C 
ATOM      8  O   UNL     1       1.202   4.838  20.624  0.00  0.00    +0.000 OA
ATOM      9  N   UNL     1       2.320   3.441  19.181  0.00  0.00    +0.000 N 
ATOM     10  C   UNL     1       1.677   2.274  19.762  0.00  0.00    +0.000 C 
ATOM     11  C   UNL     1       3.257   3.203  18.186  0.00  0.00    +0.000 C 
ATOM     12  O   UNL     1       3.537   2.058  17.829  0.00  0.00    +0.000 OA
ENDROOT
BRANCH   6  13
ATOM     13  N   UNL     1       1.811   7.408  20.710  0.00  0.00    +0.000 N 
ATOM     14  H   UNL     1       1.796   6.708  21.458  0.00  0.00    +0.000 HD
BRANCH  13  15
ATOM     15  C   UNL     1       1.088   8.580  20.969  0.00  0.00    +0.000 A 
ATOM     16  C   UNL     1       0.636   8.943  22.243  0.00  0.00    +0.000 A 
ATOM     17  C   UNL     1      -0.104  10.113  22.436  0.00  0.00    +0.000 A 
ATOM     18  C   UNL     1      -0.409  10.930  21.352  0.00  0.00    +0.000 A 
ATOM     19 CL   UNL     1      -1.329  12.362  21.589  0.00  0.00    +0.000 Cl
ATOM     20  C   UNL     1       0.027  10.588  20.075  0.00  0.00    +0.000 A 
ATOM     21  C   UNL     1       0.770   9.420  19.889  0.00  0.00    +0.000 A 
ENDBRANCH  13  15
ENDBRANCH   6  13
TORSDOF 2
ENDMDL
MODEL 3
REMARK VINA RESULT:      -6.9      3.922      7.692
REMARK  Name = 
REMARK  4 active torsions:
REMARK  status: ('A' for Active; 'I' for Inactive)
REMARK    1  A    between atoms: C_1  and  N_2
REMARK    2  A    between atoms: C_6  and  N_7
REMARK    3  A    between atoms: N_7  and  C_8
REMARK    4  A    between atoms: N_17  and  C_18
REMARK                            x       y       z     vdW  Elec       q    Type
REMARK                         _______ _______ _______ _____ _____    ______ ____
ROOT
ATOM      1  C   UNL     1      -1.513  11.676  23.164  0.00  0.00    +0.000 C 
ATOM      2  N   UNL     1      -0.845  11.044  22.037  0.00  0.00    +0.000 N 
ATOM      3  C   UNL     1      -0.257   9.808  22.235  0.00  0.00    +0.000 C 
ATOM      4  O   UNL     1      -0.329   9.176  23.287  0.00  0.00    +0.000 OA
ATOM      5  C   UNL     1       0.500   9.289  21.079  0.00  0.00    +0.000 C 
ATOM      6  C   UNL     1       1.268   8.195  21.241  0.00  0.00    +0.000 C 
ATOM      7  C   UNL     1       0.462   9.976  19.775  0.00  0.00    +0.000 C 
ATOM      8  O   UNL     1       1.045   9.514  18.793  0.00  0.00    +0.000 OA
ATOM      9  N   UNL     1      -0.249  11.156  19.748  0.00  0.00    +0.000 N 
ATOM     10  C   UNL     1      -0.298  11.890  18.495  0.00  0.00    +0.000 C 
ATOM     11  C   UNL     1      -0.872  11.745  20.839  0.00  0.00    +0.000 C 
ATOM     12  O   UNL     1      -1.423  12.843  20.747  0.00  0.00    +0.000 OA
ENDROOT
BRANCH   6  13
ATOM     13  N   UNL     1       2.082   7.607  20.301  0.00  0.00    +0.000 N 
ATOM     14  H   UNL     1       2.805   8.226  19.919  0.00  0.00    +0.000 HD
BRANCH  13  15
ATOM     15  C   UNL     1       2.090   6.297  19.806  0.00  0.00    +0.000 A 
ATOM     16  C   UNL     1       1.765   5.177  20.579  0.00  0.00    +0.000 A 
ATOM     17  C   UNL     1       1.814   3.889  20.034  0.00  0.00    +0.000 A 
ATOM     18  C   UNL     1       2.200   3.709  18.710  0.00  0.00    +0.000 A 
ATOM     19 CL   UNL     1       2.272   2.125  18.046  0.00  0.00    +0.000 Cl
ATOM     20  C   UNL     1       2.530   4.807  17.922  0.00  0.00    +0.000 A 
ATOM     21  C   UNL     1       2.475   6.091  18.470  0.00  0.00    +0.000 A 
ENDBRANCH  13  15
ENDBRANCH   6  13
TORSDOF 2
ENDMDL
MODEL 4
REMARK VINA RESULT:      -6.9      1.275      2.615
REMARK  Name = 
REMARK  4 active torsions:
REMARK  status: ('A' for Active; 'I' for Inactive)
REMARK    1  A    between atoms: C_1  and  N_2
REMARK    2  A    between atoms: C_6  and  N_7
REMARK    3  A    between atoms: N_7  and  C_8
REMARK    4  A    between atoms: N_17  and  C_18
REMARK                            x       y       z     vdW  Elec       q    Type
REMARK                         _______ _______ _______ _____ _____    ______ ____
ROOT
ATOM      1  C   UNL     1       3.617   2.282  18.094  0.00  0.00    +0.000 C 
ATOM      2  N   UNL     1       3.648   3.735  18.073  0.00  0.00    +0.000 N 
ATOM      3  C   UNL     1       3.000   4.418  19.086  0.00  0.00    +0.000 C 
ATOM      4  O   UNL     1       2.461   3.870  20.045  0.00  0.00    +0.000 OA
ATOM      5  C   UNL     1       2.977   5.885  18.930  0.00  0.00    +0.000 C 
ATOM      6  C   UNL     1       2.203   6.617  19.754  0.00  0.00    +0.000 C 
ATOM      7  C   UNL     1       3.748   6.548  17.862  0.00  0.00    +0.000 C 
ATOM      8  O   UNL     1       3.778   7.776  17.764  0.00  0.00    +0.000 OA
ATOM      9  N   UNL     1       4.404   5.703  16.994  0.00  0.00    +0.000 N 
ATOM     10  C   UNL     1       5.158   6.300  15.905  0.00  0.00    +0.000 C 
ATOM     11  C   UNL     1       4.353   4.317  17.027  0.00  0.00    +0.000 C 
ATOM     12  O   UNL     1       4.907   3.634  16.166  0.00  0.00    +0.000 OA
ENDROOT
BRANCH   6  13
ATOM     13  N   UNL     1       2.011   7.978  19.720  0.00  0.00    +0.000 N 
ATOM     14  H   UNL     1       2.573   8.470  19.018  0.00  0.00    +0.000 HD
BRANCH  13  15
ATOM     15  C   UNL     1       1.156   8.789  20.478  0.00  0.00    +0.000 A 
ATOM     16  C   UNL     1       0.332   9.775  19.923  0.00  0.00    +0.000 A 
ATOM     17  C   UNL     1      -0.482  10.571  20.735  0.00  0.00    +0.000 A 
ATOM     18  C   UNL     1      -0.474  10.394  22.114  0.00  0.00    +0.000 A 
ATOM     19 CL   UNL     1      -1.468  11.381  23.111  0.00  0.00    +0.000 Cl
ATOM     20  C   UNL     1       0.338   9.421  22.689  0.00  0.00    +0.000 A 
ATOM     21  C   UNL     1       1.146   8.626  21.874  0.00  0.00    +0.000 A 
ENDBRANCH  13  15
ENDBRANCH   6  13
TORSDOF 2
ENDMDL
MODEL 5
REMARK VINA RESULT:      -6.8      1.306      2.819
REMARK  Name = 
REMARK  4 active torsions:
REMARK  status: ('A' for Active; 'I' for Inactive)
REMARK    1  A    between atoms: C_1  and  N_2
REMARK    2  A    between atoms: C_6  and  N_7
REMARK    3  A    between atoms: N_7  and  C_8
REMARK    4  A    between atoms: N_17  and  C_18
REMARK                            x       y       z     vdW  Elec       q    Type
REMARK                         _______ _______ _______ _____ _____    ______ ____
ROOT
ATOM      1  C   UNL     1       3.923   2.267  18.271  0.00  0.00    +0.000 C 
ATOM      2  N   UNL     1       3.855   3.717  18.172  0.00  0.00    +0.000 N 
ATOM      3  C   UNL     1       3.168   4.407  19.153  0.00  0.00    +0.000 C 
ATOM      4  O   UNL     1       2.674   3.876  20.146  0.00  0.00    +0.000 OA
ATOM      5  C   UNL     1       3.044   5.859  18.919  0.00  0.00    +0.000 C 
ATOM      6  C   UNL     1       2.227   6.580  19.710  0.00  0.00    +0.000 C 
ATOM      7  C   UNL     1       3.761   6.514  17.810  0.00  0.00    +0.000 C 
ATOM      8  O   UNL     1       3.707   7.734  17.647  0.00  0.00    +0.000 OA
ATOM      9  N   UNL     1       4.468   5.670  16.982  0.00  0.00    +0.000 N 
ATOM     10  C   UNL     1       5.173   6.257  15.855  0.00  0.00    +0.000 C 
ATOM     11  C   UNL     1       4.512   4.287  17.089  0.00  0.00    +0.000 C 
ATOM     12  O   UNL     1       5.106   3.598  16.260  0.00  0.00    +0.000 OA
ENDROOT
BRANCH   6  13
ATOM     13  N   UNL     1       1.942   7.921  19.606  0.00  0.00    +0.000 N 
ATOM     14  H   UNL     1       2.306   8.368  18.758  0.00  0.00    +0.000 HD
BRANCH  13  15
ATOM     15  C   UNL     1       1.219   8.760  20.464  0.00  0.00    +0.000 A 
ATOM     16  C   UNL     1       1.120   8.554  21.844  0.00  0.00    +0.000 A 
ATOM     17  C   UNL     1       0.361   9.412  22.646  0.00  0.00    +0.000 A 
ATOM     18  C   UNL     1      -0.315  10.483  22.072  0.00  0.00    +0.000 A 
ATOM     19 CL   UNL     1      -1.256  11.531  23.058  0.00  0.00    +0.000 Cl
ATOM     20  C   UNL     1      -0.234  10.708  20.702  0.00  0.00    +0.000 A 
ATOM     21  C   UNL     1       0.529   9.850  19.905  0.00  0.00    +0.000 A 
ENDBRANCH  13  15
ENDBRANCH   6  13
TORSDOF 2
ENDMDL
MODEL 6
REMARK VINA RESULT:      -6.7      0.841      2.458
REMARK  Name = 
REMARK  4 active torsions:
REMARK  status: ('A' for Active; 'I' for Inactive)
REMARK    1  A    between atoms: C_1  and  N_2
REMARK    2  A    between atoms: C_6  and  N_7
REMARK    3  A    between atoms: N_7  and  C_8
REMARK    4  A    between atoms: N_17  and  C_18
REMARK                            x       y       z     vdW  Elec       q    Type
REMARK                         _______ _______ _______ _____ _____    ______ ____
ROOT
ATOM      1  C   UNL     1       1.891   1.821  19.270  0.00  0.00    +0.000 C 
ATOM      2  N   UNL     1       2.275   3.221  19.190  0.00  0.00    +0.000 N 
ATOM      3  C   UNL     1       1.824   4.080  20.175  0.00  0.00    +0.000 C 
ATOM      4  O   UNL     1       1.179   3.717  21.157  0.00  0.00    +0.000 OA
ATOM      5  C   UNL     1       2.157   5.501  19.960  0.00  0.00    +0.000 C 
ATOM      6  C   UNL     1       1.594   6.431  20.754  0.00  0.00    +0.000 C 
ATOM      7  C   UNL     1       3.054   5.914  18.864  0.00  0.00    +0.000 C 
ATOM      8  O   UNL     1       3.381   7.093  18.717  0.00  0.00    +0.000 OA
ATOM      9  N   UNL     1       3.474   4.901  18.030  0.00  0.00    +0.000 N 
ATOM     10  C   UNL     1       4.339   5.254  16.917  0.00  0.00    +0.000 C 
ATOM     11  C   UNL     1       3.088   3.572  18.120  0.00  0.00    +0.000 C 
ATOM     12  O   UNL     1       3.450   2.741  17.286  0.00  0.00    +0.000 OA
ENDROOT
BRANCH   6  13
ATOM     13  N   UNL     1       1.739   7.796  20.665  0.00  0.00    +0.000 N 
ATOM     14  H   UNL     1       2.601   8.103  20.202  0.00  0.00    +0.000 HD
BRANCH  13  15
ATOM     15  C   UNL     1       0.887   8.824  21.089  0.00  0.00    +0.000 A 
ATOM     16  C   UNL     1       0.301   9.750  20.219  0.00  0.00    +0.000 A 
ATOM     17  C   UNL     1      -0.523  10.771  20.704  0.00  0.00    +0.000 A 
ATOM     18  C   UNL     1      -0.762  10.881  22.070  0.00  0.00    +0.000 A 
ATOM     19 CL   UNL     1      -1.765  12.143  22.665  0.00  0.00    +0.000 Cl
ATOM     20  C   UNL     1      -0.188   9.974  22.955  0.00  0.00    +0.000 A 
ATOM     21  C   UNL     1       0.630   8.953  22.465  0.00  0.00    +0.000 A 
ENDBRANCH  13  15
ENDBRANCH   6  13
TORSDOF 2
ENDMDL
MODEL 7
REMARK VINA RESULT:      -6.7      0.860      2.674
REMARK  Name = 
REMARK  4 active torsions:
REMARK  status: ('A' for Active; 'I' for Inactive)
REMARK    1  A    between atoms: C_1  and  N_2
REMARK    2  A    between atoms: C_6  and  N_7
REMARK    3  A    between atoms: N_7  and  C_8
REMARK    4  A    between atoms: N_17  and  C_18
REMARK                            x       y       z     vdW  Elec       q    Type
REMARK                         _______ _______ _______ _____ _____    ______ ____
ROOT
ATOM      1  C   UNL     1       1.806   1.920  19.027  0.00  0.00    +0.000 C 
ATOM      2  N   UNL     1       2.225   3.312  19.025  0.00  0.00    +0.000 N 
ATOM      3  C   UNL     1       1.762   4.136  20.034  0.00  0.00    +0.000 C 
ATOM      4  O   UNL     1       1.075   3.745  20.976  0.00  0.00    +0.000 OA
ATOM      5  C   UNL     1       2.136   5.557  19.896  0.00  0.00    +0.000 C 
ATOM      6  C   UNL     1       1.569   6.463  20.715  0.00  0.00    +0.000 C 
ATOM      7  C   UNL     1       3.079   5.997  18.852  0.00  0.00    +0.000 C 
ATOM      8  O   UNL     1       3.439   7.172  18.770  0.00  0.00    +0.000 OA
ATOM      9  N   UNL     1       3.503   5.013  17.985  0.00  0.00    +0.000 N 
ATOM     10  C   UNL     1       4.413   5.394  16.918  0.00  0.00    +0.000 C 
ATOM     11  C   UNL     1       3.082   3.691  18.000  0.00  0.00    +0.000 C 
ATOM     12  O   UNL     1       3.452   2.891  17.140  0.00  0.00    +0.000 OA
ENDROOT
BRANCH   6  13
ATOM     13  N   UNL     1       1.749   7.827  20.694  0.00  0.00    +0.000 N 
ATOM     14  H   UNL     1       2.619   8.134  20.248  0.00  0.00    +0.000 HD
BRANCH  13  15
ATOM     15  C   UNL     1       0.922   8.854  21.169  0.00  0.00    +0.000 A 
ATOM     16  C   UNL     1       0.615   9.035  22.522  0.00  0.00    +0.000 A 
ATOM     17  C   UNL     1      -0.238  10.065  22.933  0.00  0.00    +0.000 A 
ATOM     18  C   UNL     1      -0.800  10.920  21.990  0.00  0.00    +0.000 A 
ATOM     19 CL   UNL     1      -1.857  12.177  22.496  0.00  0.00    +0.000 Cl
ATOM     20  C   UNL     1      -0.512  10.757  20.639  0.00  0.00    +0.000 A 
ATOM     21  C   UNL     1       0.344   9.730  20.234  0.00  0.00    +0.000 A 
ENDBRANCH  13  15
ENDBRANCH   6  13
TORSDOF 2
ENDMDL
MODEL 8
REMARK VINA RESULT:      -6.7      1.210      2.560
REMARK  Name = 
REMARK  4 active torsions:
REMARK  status: ('A' for Active; 'I' for Inactive)
REMARK    1  A    between atoms: C_1  and  N_2
REMARK    2  A    between atoms: C_6  and  N_7
REMARK    3  A    between atoms: N_7  and  C_8
REMARK    4  A    between atoms: N_17  and  C_18
REMARK                            x       y       z     vdW  Elec       q    Type
REMARK                         _______ _______ _______ _____ _____    ______ ____
ROOT
ATOM      1  C   UNL     1       3.554   2.561  19.780  0.00  0.00    +0.000 C 
ATOM      2  N   UNL     1       3.455   3.961  19.400  0.00  0.00    +0.000 N 
ATOM      3  C   UNL     1       2.775   4.821  20.244  0.00  0.00    +0.000 C 
ATOM      4  O   UNL     1       2.313   4.488  21.333  0.00  0.00    +0.000 OA
ATOM      5  C   UNL     1       2.617   6.196  19.732  0.00  0.00    +0.000 C 
ATOM      6  C   UNL     1       1.803   7.046  20.386  0.00  0.00    +0.000 C 
ATOM      7  C   UNL     1       3.297   6.631  18.498  0.00  0.00    +0.000 C 
ATOM      8  O   UNL     1       3.215   7.794  18.100  0.00  0.00    +0.000 OA
ATOM      9  N   UNL     1       4.003   5.651  17.835  0.00  0.00    +0.000 N 
ATOM     10  C   UNL     1       4.672   6.016  16.597  0.00  0.00    +0.000 C 
ATOM     11  C   UNL     1       4.077   4.318  18.211  0.00  0.00    +0.000 C 
ATOM     12  O   UNL     1       4.668   3.488  17.519  0.00  0.00    +0.000 OA
ENDROOT
BRANCH   6  13
ATOM     13  N   UNL     1       1.489   8.336  20.027  0.00  0.00    +0.000 N 
ATOM     14  H   UNL     1       1.809   8.607  19.091  0.00  0.00    +0.000 HD
BRANCH  13  15
ATOM     15  C   UNL     1       0.787   9.324  20.730  0.00  0.00    +0.000 A 
ATOM     16  C   UNL     1       0.638  10.638  20.274  0.00  0.00    +0.000 A 
ATOM     17  C   UNL     1      -0.054  11.588  21.033  0.00  0.00    +0.000 A 
ATOM     18  C   UNL     1      -0.595  11.233  22.264  0.00  0.00    +0.000 A 
ATOM     19 CL   UNL     1      -1.435  12.405  23.201  0.00  0.00    +0.000 Cl
ATOM     20  C   UNL     1      -0.458   9.933  22.740  0.00  0.00    +0.000 A 
ATOM     21  C   UNL     1       0.230   8.987  21.976  0.00  0.00    +0.000 A 
ENDBRANCH  13  15
ENDBRANCH   6  13
TORSDOF 2
ENDMDL
MODEL 9
REMARK VINA RESULT:      -6.6      3.909      7.659
REMARK  Name = 
REMARK  4 active torsions:
REMARK  status: ('A' for Active; 'I' for Inactive)
REMARK    1  A    between atoms: C_1  and  N_2
REMARK    2  A    between atoms: C_6  and  N_7
REMARK    3  A    between atoms: N_7  and  C_8
REMARK    4  A    between atoms: N_17  and  C_18
REMARK                            x       y       z     vdW  Elec       q    Type
REMARK                         _______ _______ _______ _____ _____    ______ ____
ROOT
ATOM      1  C   UNL     1      -1.396  11.525  23.115  0.00  0.00    +0.000 C 
ATOM      2  N   UNL     1      -0.622  10.987  22.008  0.00  0.00    +0.000 N 
ATOM      3  C   UNL     1      -0.216   9.667  22.074  0.00  0.00    +0.000 C 
ATOM      4  O   UNL     1      -0.533   8.898  22.978  0.00  0.00    +0.000 OA
ATOM      5  C   UNL     1       0.662   9.232  20.970  0.00  0.00    +0.000 C 
ATOM      6  C   UNL     1       1.266   8.032  21.052  0.00  0.00    +0.000 C 
ATOM      7  C   UNL     1       0.919  10.108  19.813  0.00  0.00    +0.000 C 
ATOM      8  O   UNL     1       1.604   9.727  18.862  0.00  0.00    +0.000 OA
ATOM      9  N   UNL     1       0.358  11.364  19.885  0.00  0.00    +0.000 N 
ATOM     10  C   UNL     1       0.601  12.281  18.784  0.00  0.00    +0.000 C 
ATOM     11  C   UNL     1      -0.370  11.860  20.957  0.00  0.00    +0.000 C 
ATOM     12  O   UNL     1      -0.774  13.024  20.975  0.00  0.00    +0.000 OA
ENDROOT
BRANCH   6  13
ATOM     13  N   UNL     1       2.157   7.489  20.156  0.00  0.00    +0.000 N 
ATOM     14  H   UNL     1       2.827   8.158  19.764  0.00  0.00    +0.000 HD
BRANCH  13  15
ATOM     15  C   UNL     1       2.302   6.167  19.715  0.00  0.00    +0.000 A 
ATOM     16  C   UNL     1       3.007   5.810  18.560  0.00  0.00    +0.000 A 
ATOM     17  C   UNL     1       3.096   4.474  18.157  0.00  0.00    +0.000 A 
ATOM     18  C   UNL     1       2.470   3.480  18.901  0.00  0.00    +0.000 A 
ATOM     19 CL   UNL     1       2.571   1.839  18.397  0.00  0.00    +0.000 Cl
ATOM     20  C   UNL     1       1.761   3.810  20.052  0.00  0.00    +0.000 A 
ATOM     21  C   UNL     1       1.679   5.146  20.453  0.00  0.00    +0.000 A 
ENDBRANCH  13  15
ENDBRANCH   6  13
TORSDOF 2
ENDMDL
