MODEL 1
REMARK VINA RESULT:      -7.2      0.000      0.000
REMARK  Name = 
REMARK  7 active torsions:
REMARK  status: ('A' for Active; 'I' for Inactive)
REMARK    1  A    between atoms: C_1  and  C_2
REMARK    2  A    between atoms: C_2  and  N_3
REMARK    3  A    between atoms: C_6  and  C_7
REMARK    4  A    between atoms: C_7  and  C_8
REMARK    5  A    between atoms: N_10  and  C_11
REMARK    6  A    between atoms: N_22  and  C_23
REMARK    7  A    between atoms: C_23  and  C_24
REMARK                            x       y       z     vdW  Elec       q    Type
REMARK                         _______ _______ _______ _____ _____    ______ ____
ROOT
ATOM      1  C   UNL     1       2.688   5.069  19.021  0.00  0.00    +0.000 C 
ATOM      2  O   UNL     1       1.990   4.965  18.016  0.00  0.00    +0.000 OA
ATOM      3  N   UNL     1       2.880   6.226  19.762  0.00  0.00    +0.000 N 
ATOM      4  H   UNL     1       3.756   6.291  20.265  0.00  0.00    +0.000 HD
ENDROOT
BRANCH   3   5
ATOM      5  C   UNL     1       2.277   7.451  19.412  0.00  0.00    +0.000 A 
ATOM      6  C   UNL     1       2.459   8.031  18.143  0.00  0.00    +0.000 A 
ATOM      7  C   UNL     1       1.902   9.279  17.846  0.00  0.00    +0.000 A 
ATOM      8  C   UNL     1       1.212   9.923  18.848  0.00  0.00    +0.000 A 
ATOM      9  C   UNL     1       1.014   9.345  20.079  0.00  0.00    +0.000 A 
ATOM     10  C   UNL     1       1.498   8.090  20.381  0.00  0.00    +0.000 A 
ATOM     11  O   UNL     1       0.345  10.162  20.936  0.00  0.00    +0.000 OA
ATOM     12  C   UNL     1       0.224  11.353  20.129  0.00  0.00    +0.000 C 
ATOM     13  O   UNL     1       0.673  11.170  18.771  0.00  0.00    +0.000 OA
ENDBRANCH   3   5
BRANCH   1  14
ATOM     14  C   UNL     1       3.506   3.904  19.522  0.00  0.00    +0.000 C 
BRANCH  14  18
ATOM     15  N   UNL     1       5.447   5.265  15.270  0.00  0.00    +0.000 NA
ATOM     16  C   UNL     1       5.289   4.881  16.483  0.00  0.00    +0.000 C 
ATOM     17  S   UNL     1       4.629   3.368  17.025  0.00  0.00    +0.000 S 
ATOM     18  C   UNL     1       4.835   3.770  18.786  0.00  0.00    +0.000 C 
ATOM     19  C   UNL     1       5.528   5.117  18.803  0.00  0.00    +0.000 C 
ATOM     20  O   UNL     1       5.903   5.653  19.842  0.00  0.00    +0.000 OA
ATOM     21  N   UNL     1       5.635   5.672  17.546  0.00  0.00    +0.000 N 
BRANCH  15  23
ATOM     22  C   UNL     1       6.386   3.949  13.475  0.00  0.00    +0.000 C 
ATOM     23  C   UNL     1       5.105   4.351  14.183  0.00  0.00    +0.000 C 
ENDBRANCH  15  23
BRANCH  21  24
ATOM     24  C   UNL     1       6.152   7.026  17.374  0.00  0.00    +0.000 C 
ATOM     25  C   UNL     1       7.668   7.097  17.471  0.00  0.00    +0.000 C 
ENDBRANCH  21  24
ENDBRANCH  14  18
ENDBRANCH   1  14
TORSDOF 5
ENDMDL
MODEL 2
REMARK VINA RESULT:      -7.0      2.217      3.485
REMARK  Name = 
REMARK  7 active torsions:
REMARK  status: ('A' for Active; 'I' for Inactive)
REMARK    1  A    between atoms: C_1  and  C_2
REMARK    2  A    between atoms: C_2  and  N_3
REMARK    3  A    between atoms: C_6  and  C_7
REMARK    4  A    between atoms: C_7  and  C_8
REMARK    5  A    between atoms: N_10  and  C_11
REMARK    6  A    between atoms: N_22  and  C_23
REMARK    7  A    between atoms: C_23  and  C_24
REMARK                            x       y       z     vdW  Elec       q    Type
REMARK                         _______ _______ _______ _____ _____    ______ ____
ROOT
ATOM      1  C   UNL     1       1.976   7.573  19.906  0.00  0.00    +0.000 C 
ATOM      2  O   UNL     1       1.283   7.375  20.901  0.00  0.00    +0.000 OA
ATOM      3  N   UNL     1       1.847   8.635  19.024  0.00  0.00    +0.000 N 
ATOM      4  H   UNL     1       2.156   8.464  18.075  0.00  0.00    +0.000 HD
ENDROOT
BRANCH   3   5
ATOM      5  C   UNL     1       0.860   9.628  19.182  0.00  0.00    +0.000 A 
ATOM      6  C   UNL     1       0.837  10.480  20.302  0.00  0.00    +0.000 A 
ATOM      7  C   UNL     1      -0.194  11.412  20.464  0.00  0.00    +0.000 A 
ATOM      8  C   UNL     1      -1.190  11.433  19.514  0.00  0.00    +0.000 A 
ATOM      9  C   UNL     1      -1.153  10.617  18.408  0.00  0.00    +0.000 A 
ATOM     10  C   UNL     1      -0.120   9.731  18.190  0.00  0.00    +0.000 A 
ATOM     11  O   UNL     1      -2.250  10.763  17.617  0.00  0.00    +0.000 OA
ATOM     12  C   UNL     1      -3.020  11.700  18.401  0.00  0.00    +0.000 C 
ATOM     13  O   UNL     1      -2.306  12.209  19.546  0.00  0.00    +0.000 OA
ENDBRANCH   3   5
BRANCH   1  14
ATOM     14  C   UNL     1       3.034   6.582  19.489  0.00  0.00    +0.000 C 
BRANCH  14  18
ATOM     15  N   UNL     1       5.319   3.688  16.311  0.00  0.00    +0.000 NA
ATOM     16  C   UNL     1       4.439   4.398  16.914  0.00  0.00    +0.000 C 
ATOM     17  S   UNL     1       4.456   6.122  17.134  0.00  0.00    +0.000 S 
ATOM     18  C   UNL     1       2.878   6.145  18.036  0.00  0.00    +0.000 C 
ATOM     19  C   UNL     1       2.394   4.709  18.019  0.00  0.00    +0.000 C 
ATOM     20  O   UNL     1       1.302   4.375  18.468  0.00  0.00    +0.000 OA
ATOM     21  N   UNL     1       3.331   3.844  17.495  0.00  0.00    +0.000 N 
BRANCH  15  23
ATOM     22  C   UNL     1       6.344   4.134  14.169  0.00  0.00    +0.000 C 
ATOM     23  C   UNL     1       6.452   4.350  15.668  0.00  0.00    +0.000 C 
ENDBRANCH  15  23
BRANCH  21  24
ATOM     24  C   UNL     1       3.101   2.401  17.518  0.00  0.00    +0.000 C 
ATOM     25  C   UNL     1       3.595   1.744  18.797  0.00  0.00    +0.000 C 
ENDBRANCH  21  24
ENDBRANCH  14  18
ENDBRANCH   1  14
TORSDOF 5
ENDMDL
MODEL 3
REMARK VINA RESULT:      -7.0      4.530      6.786
REMARK  Name = 
REMARK  7 active torsions:
REMARK  status: ('A' for Active; 'I' for Inactive)
REMARK    1  A    between atoms: C_1  and  C_2
REMARK    2  A    between atoms: C_2  and  N_3
REMARK    3  A    between atoms: C_6  and  C_7
REMARK    4  A    between atoms: C_7  and  C_8
REMARK    5  A    between atoms: N_10  and  C_11
REMARK    6  A    between atoms: N_22  and  C_23
REMARK    7  A    between atoms: C_23  and  C_24
REMARK                            x       y       z     vdW  Elec       q    Type
REMARK                         _______ _______ _______ _____ _____    ______ ____
ROOT
ATOM      1  C   UNL     1       8.077   8.201  18.073  0.00  0.00    +0.000 C 
ATOM      2  O   UNL     1       8.723   7.689  18.984  0.00  0.00    +0.000 OA
ATOM      3  N   UNL     1       8.071   9.545  17.734  0.00  0.00    +0.000 N 
ATOM      4  H   UNL     1       7.228   9.887  17.290  0.00  0.00    +0.000 HD
ENDROOT
BRANCH   3   5
ATOM      5  C   UNL     1       8.828  10.501  18.441  0.00  0.00    +0.000 A 
ATOM      6  C   UNL     1       9.345  10.237  19.723  0.00  0.00    +0.000 A 
ATOM      7  C   UNL     1      10.037  11.228  20.427  0.00  0.00    +0.000 A 
ATOM      8  C   UNL     1      10.152  12.466  19.837  0.00  0.00    +0.000 A 
ATOM      9  C   UNL     1       9.667  12.716  18.575  0.00  0.00    +0.000 A 
ATOM     10  C   UNL     1       9.036  11.742  17.832  0.00  0.00    +0.000 A 
ATOM     11  O   UNL     1       9.847  14.009  18.195  0.00  0.00    +0.000 OA
ATOM     12  C   UNL     1      10.420  14.563  19.399  0.00  0.00    +0.000 C 
ATOM     13  O   UNL     1      10.716  13.569  20.401  0.00  0.00    +0.000 OA
ENDBRANCH   3   5
BRANCH   1  14
ATOM     14  C   UNL     1       7.120   7.378  17.245  0.00  0.00    +0.000 C 
BRANCH  14  18
ATOM     15  N   UNL     1       3.426   4.208  17.165  0.00  0.00    +0.000 NA
ATOM     16  C   UNL     1       4.575   4.754  17.329  0.00  0.00    +0.000 C 
ATOM     17  S   UNL     1       4.973   6.043  18.424  0.00  0.00    +0.000 S 
ATOM     18  C   UNL     1       6.724   6.078  17.938  0.00  0.00    +0.000 C 
ATOM     19  C   UNL     1       6.880   4.942  16.947  0.00  0.00    +0.000 C 
ATOM     20  O   UNL     1       7.967   4.620  16.477  0.00  0.00    +0.000 OA
ATOM     21  N   UNL     1       5.673   4.367  16.611  0.00  0.00    +0.000 N 
BRANCH  15  23
ATOM     22  C   UNL     1       1.370   3.455  18.185  0.00  0.00    +0.000 C 
ATOM     23  C   UNL     1       2.307   4.635  18.001  0.00  0.00    +0.000 C 
ENDBRANCH  15  23
BRANCH  21  24
ATOM     24  C   UNL     1       5.603   3.346  15.569  0.00  0.00    +0.000 C 
ATOM     25  C   UNL     1       5.681   3.926  14.166  0.00  0.00    +0.000 C 
ENDBRANCH  21  24
ENDBRANCH  14  18
ENDBRANCH   1  14
TORSDOF 5
ENDMDL
MODEL 4
REMARK VINA RESULT:      -7.0      2.461      3.992
REMARK  Name = 
REMARK  7 active torsions:
REMARK  status: ('A' for Active; 'I' for Inactive)
REMARK    1  A    between atoms: C_1  and  C_2
REMARK    2  A    between atoms: C_2  and  N_3
REMARK    3  A    between atoms: C_6  and  C_7
REMARK    4  A    between atoms: C_7  and  C_8
REMARK    5  A    between atoms: N_10  and  C_11
REMARK    6  A    between atoms: N_22  and  C_23
REMARK    7  A    between atoms: C_23  and  C_24
REMARK                            x       y       z     vdW  Elec       q    Type
REMARK                         _______ _______ _______ _____ _____    ______ ____
ROOT
ATOM      1  C   UNL     1       1.864   8.547  18.606  0.00  0.00    +0.000 C 
ATOM      2  O   UNL     1       2.146   8.935  17.475  0.00  0.00    +0.000 OA
ATOM      3  N   UNL     1       1.121   9.246  19.544  0.00  0.00    +0.000 N 
ATOM      4  H   UNL     1       1.318   9.034  20.514  0.00  0.00    +0.000 HD
ENDROOT
BRANCH   3   5
ATOM      5  C   UNL     1       0.603  10.532  19.287  0.00  0.00    +0.000 A 
ATOM      6  C   UNL     1      -0.595  10.719  18.574  0.00  0.00    +0.000 A 
ATOM      7  C   UNL     1      -1.050  12.008  18.277  0.00  0.00    +0.000 A 
ATOM      8  C   UNL     1      -0.267  13.068  18.673  0.00  0.00    +0.000 A 
ATOM      9  C   UNL     1       0.891  12.884  19.391  0.00  0.00    +0.000 A 
ATOM     10  C   UNL     1       1.334  11.629  19.751  0.00  0.00    +0.000 A 
ATOM     11  O   UNL     1       1.536  14.054  19.646  0.00  0.00    +0.000 OA
ATOM     12  C   UNL     1       0.696  14.983  18.929  0.00  0.00    +0.000 C 
ATOM     13  O   UNL     1      -0.505  14.380  18.404  0.00  0.00    +0.000 OA
ENDBRANCH   3   5
BRANCH   1  14
ATOM     14  C   UNL     1       2.398   7.237  19.130  0.00  0.00    +0.000 C 
BRANCH  14  18
ATOM     15  N   UNL     1       6.153   4.239  18.348  0.00  0.00    +0.000 NA
ATOM     16  C   UNL     1       5.017   4.829  18.283  0.00  0.00    +0.000 C 
ATOM     17  S   UNL     1       4.715   6.466  17.782  0.00  0.00    +0.000 S 
ATOM     18  C   UNL     1       2.917   6.335  18.016  0.00  0.00    +0.000 C 
ATOM     19  C   UNL     1       2.677   4.893  18.417  0.00  0.00    +0.000 C 
ATOM     20  O   UNL     1       1.551   4.430  18.571  0.00  0.00    +0.000 OA
ATOM     21  N   UNL     1       3.851   4.203  18.632  0.00  0.00    +0.000 N 
BRANCH  15  23
ATOM     22  C   UNL     1       7.948   5.663  19.111  0.00  0.00    +0.000 C 
ATOM     23  C   UNL     1       7.352   4.949  17.911  0.00  0.00    +0.000 C 
ENDBRANCH  15  23
BRANCH  21  24
ATOM     24  C   UNL     1       3.824   2.840  19.155  0.00  0.00    +0.000 C 
ATOM     25  C   UNL     1       3.539   1.800  18.084  0.00  0.00    +0.000 C 
ENDBRANCH  21  24
ENDBRANCH  14  18
ENDBRANCH   1  14
TORSDOF 5
ENDMDL
MODEL 5
REMARK VINA RESULT:      -7.0      4.704      7.332
REMARK  Name = 
REMARK  7 active torsions:
REMARK  status: ('A' for Active; 'I' for Inactive)
REMARK    1  A    between atoms: C_1  and  C_2
REMARK    2  A    between atoms: C_2  and  N_3
REMARK    3  A    between atoms: C_6  and  C_7
REMARK    4  A    between atoms: C_7  and  C_8
REMARK    5  A    between atoms: N_10  and  C_11
REMARK    6  A    between atoms: N_22  and  C_23
REMARK    7  A    between atoms: C_23  and  C_24
REMARK                            x       y       z     vdW  Elec       q    Type
REMARK                         _______ _______ _______ _____ _____    ______ ____
ROOT
ATOM      1  C   UNL     1       8.188   8.423  18.158  0.00  0.00    +0.000 C 
ATOM      2  O   UNL     1       8.882   7.780  18.941  0.00  0.00    +0.000 OA
ATOM      3  N   UNL     1       8.309   9.777  17.886  0.00  0.00    +0.000 N 
ATOM      4  H   UNL     1       7.464  10.247  17.586  0.00  0.00    +0.000 HD
ENDROOT
BRANCH   3   5
ATOM      5  C   UNL     1       9.274  10.587  18.518  0.00  0.00    +0.000 A 
ATOM      6  C   UNL     1       9.371  10.669  19.919  0.00  0.00    +0.000 A 
ATOM      7  C   UNL     1      10.296  11.531  20.518  0.00  0.00    +0.000 A 
ATOM      8  C   UNL     1      11.067  12.313  19.689  0.00  0.00    +0.000 A 
ATOM      9  C   UNL     1      10.988  12.215  18.320  0.00  0.00    +0.000 A 
ATOM     10  C   UNL     1      10.131  11.331  17.701  0.00  0.00    +0.000 A 
ATOM     11  O   UNL     1      11.802  13.102  17.687  0.00  0.00    +0.000 OA
ATOM     12  C   UNL     1      12.333  13.828  18.816  0.00  0.00    +0.000 C 
ATOM     13  O   UNL     1      11.957  13.262  20.088  0.00  0.00    +0.000 OA
ENDBRANCH   3   5
BRANCH   1  14
ATOM     14  C   UNL     1       7.027   7.777  17.442  0.00  0.00    +0.000 C 
BRANCH  14  18
ATOM     15  N   UNL     1       3.993   3.999  16.980  0.00  0.00    +0.000 NA
ATOM     16  C   UNL     1       5.040   4.737  17.018  0.00  0.00    +0.000 C 
ATOM     17  S   UNL     1       5.726   5.510  18.416  0.00  0.00    +0.000 S 
ATOM     18  C   UNL     1       7.096   6.255  17.482  0.00  0.00    +0.000 C 
ATOM     19  C   UNL     1       6.938   5.732  16.068  0.00  0.00    +0.000 C 
ATOM     20  O   UNL     1       7.754   5.968  15.182  0.00  0.00    +0.000 OA
ATOM     21  N   UNL     1       5.769   5.023  15.896  0.00  0.00    +0.000 N 
BRANCH  15  23
ATOM     22  C   UNL     1       1.828   3.447  17.901  0.00  0.00    +0.000 C 
ATOM     23  C   UNL     1       3.291   3.692  18.224  0.00  0.00    +0.000 C 
ENDBRANCH  15  23
BRANCH  21  24
ATOM     24  C   UNL     1       5.374   4.555  14.570  0.00  0.00    +0.000 C 
ATOM     25  C   UNL     1       6.109   3.294  14.144  0.00  0.00    +0.000 C 
ENDBRANCH  21  24
ENDBRANCH  14  18
ENDBRANCH   1  14
TORSDOF 5
ENDMDL
MODEL 6
REMARK VINA RESULT:      -6.9      3.754      8.395
REMARK  Name = 
REMARK  7 active torsions:
REMARK  status: ('A' for Active; 'I' for Inactive)
REMARK    1  A    between atoms: C_1  and  C_2
REMARK    2  A    between atoms: C_2  and  N_3
REMARK    3  A    between atoms: C_6  and  C_7
REMARK    4  A    between atoms: C_7  and  C_8
REMARK    5  A    between atoms: N_10  and  C_11
REMARK    6  A    between atoms: N_22  and  C_23
REMARK    7  A    between atoms: C_23  and  C_24
REMARK                            x       y       z     vdW  Elec       q    Type
REMARK                         _______ _______ _______ _____ _____    ______ ____
ROOT
ATOM      1  C   UNL     1       1.941   8.589  18.523  0.00  0.00    +0.000 C 
ATOM      2  O   UNL     1       2.059   9.042  17.387  0.00  0.00    +0.000 OA
ATOM      3  N   UNL     1       2.440   7.376  18.971  0.00  0.00    +0.000 N 
ATOM      4  H   UNL     1       1.937   6.945  19.736  0.00  0.00    +0.000 HD
ENDROOT
BRANCH   3   5
ATOM      5  C   UNL     1       3.150   6.498  18.127  0.00  0.00    +0.000 A 
ATOM      6  C   UNL     1       2.793   5.143  17.997  0.00  0.00    +0.000 A 
ATOM      7  C   UNL     1       3.557   4.281  17.204  0.00  0.00    +0.000 A 
ATOM      8  C   UNL     1       4.678   4.798  16.597  0.00  0.00    +0.000 A 
ATOM      9  C   UNL     1       5.012   6.128  16.705  0.00  0.00    +0.000 A 
ATOM     10  C   UNL     1       4.246   7.015  17.430  0.00  0.00    +0.000 A 
ATOM     11  O   UNL     1       6.175   6.425  16.066  0.00  0.00    +0.000 OA
ATOM     12  C   UNL     1       6.578   5.113  15.621  0.00  0.00    +0.000 C 
ATOM     13  O   UNL     1       5.581   4.098  15.858  0.00  0.00    +0.000 OA
ENDBRANCH   3   5
BRANCH   1  14
ATOM     14  C   UNL     1       1.131   9.318  19.567  0.00  0.00    +0.000 C 
BRANCH  14  18
ATOM     15  N   UNL     1      -2.879  12.076  19.636  0.00  0.00    +0.000 NA
ATOM     16  C   UNL     1      -1.663  11.677  19.573  0.00  0.00    +0.000 C 
ATOM     17  S   UNL     1      -0.943  10.707  18.323  0.00  0.00    +0.000 S 
ATOM     18  C   UNL     1       0.699  10.705  19.102  0.00  0.00    +0.000 C 
ATOM     19  C   UNL     1       0.558  11.595  20.320  0.00  0.00    +0.000 C 
ATOM     20  O   UNL     1       1.509  11.889  21.037  0.00  0.00    +0.000 OA
ATOM     21  N   UNL     1      -0.747  11.979  20.544  0.00  0.00    +0.000 N 
BRANCH  15  23
ATOM     22  C   UNL     1      -5.206  12.082  18.986  0.00  0.00    +0.000 C 
ATOM     23  C   UNL     1      -3.792  11.761  18.538  0.00  0.00    +0.000 C 
ENDBRANCH  15  23
BRANCH  21  24
ATOM     24  C   UNL     1      -1.104  12.727  21.746  0.00  0.00    +0.000 C 
ATOM     25  C   UNL     1      -1.412  11.829  22.933  0.00  0.00    +0.000 C 
ENDBRANCH  21  24
ENDBRANCH  14  18
ENDBRANCH   1  14
TORSDOF 5
ENDMDL
MODEL 7
REMARK VINA RESULT:      -6.9      2.197      3.297
REMARK  Name = 
REMARK  7 active torsions:
REMARK  status: ('A' for Active; 'I' for Inactive)
REMARK    1  A    between atoms: C_1  and  C_2
REMARK    2  A    between atoms: C_2  and  N_3
REMARK    3  A    between atoms: C_6  and  C_7
REMARK    4  A    between atoms: C_7  and  C_8
REMARK    5  A    between atoms: N_10  and  C_11
REMARK    6  A    between atoms: N_22  and  C_23
REMARK    7  A    between atoms: C_23  and  C_24
REMARK                            x       y       z     vdW  Elec       q    Type
REMARK                         _______ _______ _______ _____ _____    ______ ____
ROOT
ATOM      1  C   UNL     1       1.826   7.407  20.167  0.00  0.00    +0.000 C 
ATOM      2  O   UNL     1       1.097   7.265  21.145  0.00  0.00    +0.000 OA
ATOM      3  N   UNL     1       1.837   8.498  19.311  0.00  0.00    +0.000 N 
ATOM      4  H   UNL     1       2.142   8.316  18.364  0.00  0.00    +0.000 HD
ENDROOT
BRANCH   3   5
ATOM      5  C   UNL     1       0.965   9.593  19.479  0.00  0.00    +0.000 A 
ATOM      6  C   UNL     1       0.077   9.996  18.465  0.00  0.00    +0.000 A 
ATOM      7  C   UNL     1      -0.729  11.126  18.635  0.00  0.00    +0.000 A 
ATOM      8  C   UNL     1      -0.589  11.839  19.804  0.00  0.00    +0.000 A 
ATOM      9  C   UNL     1       0.262  11.430  20.804  0.00  0.00    +0.000 A 
ATOM     10  C   UNL     1       1.023  10.288  20.691  0.00  0.00    +0.000 A 
ATOM     11  O   UNL     1       0.282  12.294  21.854  0.00  0.00    +0.000 OA
ATOM     12  C   UNL     1      -0.586  13.337  21.359  0.00  0.00    +0.000 C 
ATOM     13  O   UNL     1      -1.225  13.002  20.110  0.00  0.00    +0.000 OA
ENDBRANCH   3   5
BRANCH   1  14
ATOM     14  C   UNL     1       2.773   6.312  19.741  0.00  0.00    +0.000 C 
BRANCH  14  18
ATOM     15  N   UNL     1       5.171   3.713  16.395  0.00  0.00    +0.000 NA
ATOM     16  C   UNL     1       4.266   4.360  17.034  0.00  0.00    +0.000 C 
ATOM     17  S   UNL     1       4.249   6.061  17.387  0.00  0.00    +0.000 S 
ATOM     18  C   UNL     1       2.654   5.988  18.256  0.00  0.00    +0.000 C 
ATOM     19  C   UNL     1       2.195   4.550  18.116  0.00  0.00    +0.000 C 
ATOM     20  O   UNL     1       1.101   4.165  18.515  0.00  0.00    +0.000 OA
ATOM     21  N   UNL     1       3.157   3.744  17.546  0.00  0.00    +0.000 N 
BRANCH  15  23
ATOM     22  C   UNL     1       6.330   4.200  14.331  0.00  0.00    +0.000 C 
ATOM     23  C   UNL     1       6.304   4.442  15.830  0.00  0.00    +0.000 C 
ENDBRANCH  15  23
BRANCH  21  24
ATOM     24  C   UNL     1       2.953   2.301  17.451  0.00  0.00    +0.000 C 
ATOM     25  C   UNL     1       3.460   1.550  18.672  0.00  0.00    +0.000 C 
ENDBRANCH  21  24
ENDBRANCH  14  18
ENDBRANCH   1  14
TORSDOF 5
ENDMDL
MODEL 8
REMARK VINA RESULT:      -6.8      2.165      3.710
REMARK  Name = 
REMARK  7 active torsions:
REMARK  status: ('A' for Active; 'I' for Inactive)
REMARK    1  A    between atoms: C_1  and  C_2
REMARK    2  A    between atoms: C_2  and  N_3
REMARK    3  A    between atoms: C_6  and  C_7
REMARK    4  A    between atoms: C_7  and  C_8
REMARK    5  A    between atoms: N_10  and  C_11
REMARK    6  A    between atoms: N_22  and  C_23
REMARK    7  A    between atoms: C_23  and  C_24
REMARK                            x       y       z     vdW  Elec       q    Type
REMARK                         _______ _______ _______ _____ _____    ______ ____
ROOT
ATOM      1  C   UNL     1       1.698   8.720  18.399  0.00  0.00    +0.000 C 
ATOM      2  O   UNL     1       0.991   9.597  17.909  0.00  0.00    +0.000 OA
ATOM      3  N   UNL     1       1.782   8.401  19.746  0.00  0.00    +0.000 N 
ATOM      4  H   UNL     1       2.658   7.997  20.053  0.00  0.00    +0.000 HD
ENDROOT
BRANCH   3   5
ATOM      5  C   UNL     1       1.041   9.089  20.728  0.00  0.00    +0.000 A 
ATOM      6  C   UNL     1       0.195   8.414  21.627  0.00  0.00    +0.000 A 
ATOM      7  C   UNL     1      -0.577   9.129  22.548  0.00  0.00    +0.000 A 
ATOM      8  C   UNL     1      -0.504  10.502  22.512  0.00  0.00    +0.000 A 
ATOM      9  C   UNL     1       0.342  11.160  21.650  0.00  0.00    +0.000 A 
ATOM     10  C   UNL     1       1.160  10.481  20.772  0.00  0.00    +0.000 A 
ATOM     11  O   UNL     1       0.232  12.512  21.744  0.00  0.00    +0.000 OA
ATOM     12  C   UNL     1      -0.843  12.626  22.701  0.00  0.00    +0.000 C 
ATOM     13  O   UNL     1      -1.237  11.361  23.271  0.00  0.00    +0.000 OA
ENDBRANCH   3   5
BRANCH   1  14
ATOM     14  C   UNL     1       2.649   7.921  17.542  0.00  0.00    +0.000 C 
BRANCH  14  18
ATOM     15  N   UNL     1       3.534   3.149  17.169  0.00  0.00    +0.000 NA
ATOM     16  C   UNL     1       3.592   4.389  17.491  0.00  0.00    +0.000 C 
ATOM     17  S   UNL     1       2.428   5.283  18.421  0.00  0.00    +0.000 S 
ATOM     18  C   UNL     1       3.370   6.835  18.333  0.00  0.00    +0.000 C 
ATOM     19  C   UNL     1       4.648   6.479  17.600  0.00  0.00    +0.000 C 
ATOM     20  O   UNL     1       5.563   7.281  17.441  0.00  0.00    +0.000 OA
ATOM     21  N   UNL     1       4.630   5.192  17.105  0.00  0.00    +0.000 N 
BRANCH  15  23
ATOM     22  C   UNL     1       2.811   1.755  19.005  0.00  0.00    +0.000 C 
ATOM     23  C   UNL     1       2.423   2.336  17.657  0.00  0.00    +0.000 C 
ENDBRANCH  15  23
BRANCH  21  24
ATOM     24  C   UNL     1       5.715   4.710  16.255  0.00  0.00    +0.000 C 
ATOM     25  C   UNL     1       5.514   5.054  14.788  0.00  0.00    +0.000 C 
ENDBRANCH  21  24
ENDBRANCH  14  18
ENDBRANCH   1  14
TORSDOF 5
ENDMDL
MODEL 9
REMARK VINA RESULT:      -6.8      2.235      3.618
REMARK  Name = 
REMARK  7 active torsions:
REMARK  status: ('A' for Active; 'I' for Inactive)
REMARK    1  A    between atoms: C_1  and  C_2
REMARK    2  A    between atoms: C_2  and  N_3
REMARK    3  A    between atoms: C_6  and  C_7
REMARK    4  A    between atoms: C_7  and  C_8
REMARK    5  A    between atoms: N_10  and  C_11
REMARK    6  A    between atoms: N_22  and  C_23
REMARK    7  A    between atoms: C_23  and  C_24
REMARK                            x       y       z     vdW  Elec       q    Type
REMARK                         _______ _______ _______ _____ _____    ______ ____
ROOT
ATOM      1  C   UNL     1       1.838   7.872  19.892  0.00  0.00    +0.000 C 
ATOM      2  O   UNL     1       1.386   8.137  21.002  0.00  0.00    +0.000 OA
ATOM      3  N   UNL     1       1.708   8.651  18.753  0.00  0.00    +0.000 N 
ATOM      4  H   UNL     1       1.736   8.156  17.870  0.00  0.00    +0.000 HD
ENDROOT
BRANCH   3   5
ATOM      5  C   UNL     1       1.001   9.870  18.753  0.00  0.00    +0.000 A 
ATOM      6  C   UNL     1      -0.368   9.934  18.432  0.00  0.00    +0.000 A 
ATOM      7  C   UNL     1      -1.027  11.167  18.377  0.00  0.00    +0.000 A 
ATOM      8  C   UNL     1      -0.281  12.300  18.609  0.00  0.00    +0.000 A 
ATOM      9  C   UNL     1       1.050  12.234  18.947  0.00  0.00    +0.000 A 
ATOM     10  C   UNL     1       1.712  11.032  19.069  0.00  0.00    +0.000 A 
ATOM     11  O   UNL     1       1.611  13.464  19.094  0.00  0.00    +0.000 OA
ATOM     12  C   UNL     1       0.500  14.309  18.721  0.00  0.00    +0.000 C 
ATOM     13  O   UNL     1      -0.729  13.582  18.521  0.00  0.00    +0.000 OA
ENDBRANCH   3   5
BRANCH   1  14
ATOM     14  C   UNL     1       2.549   6.565  19.637  0.00  0.00    +0.000 C 
BRANCH  14  18
ATOM     15  N   UNL     1       5.461   3.994  16.703  0.00  0.00    +0.000 NA
ATOM     16  C   UNL     1       4.465   4.635  17.192  0.00  0.00    +0.000 C 
ATOM     17  S   UNL     1       4.389   6.334  17.553  0.00  0.00    +0.000 S 
ATOM     18  C   UNL     1       2.674   6.254  18.149  0.00  0.00    +0.000 C 
ATOM     19  C   UNL     1       2.245   4.818  17.924  0.00  0.00    +0.000 C 
ATOM     20  O   UNL     1       1.100   4.430  18.136  0.00  0.00    +0.000 OA
ATOM     21  N   UNL     1       3.287   4.016  17.512  0.00  0.00    +0.000 N 
BRANCH  15  23
ATOM     22  C   UNL     1       7.677   4.583  17.464  0.00  0.00    +0.000 C 
ATOM     23  C   UNL     1       6.671   4.726  16.337  0.00  0.00    +0.000 C 
ENDBRANCH  15  23
BRANCH  21  24
ATOM     24  C   UNL     1       3.102   2.574  17.372  0.00  0.00    +0.000 C 
ATOM     25  C   UNL     1       3.388   1.813  18.657  0.00  0.00    +0.000 C 
ENDBRANCH  21  24
ENDBRANCH  14  18
ENDBRANCH   1  14
TORSDOF 5
ENDMDL
