MODEL 1
REMARK VINA RESULT:      -8.3      0.000      0.000
REMARK  Name = 
REMARK  5 active torsions:
REMARK  status: ('A' for Active; 'I' for Inactive)
REMARK    1  A    between atoms: C_2  and  C_3
REMARK    2  A    between atoms: C_3  and  C_4
REMARK    3  A    between atoms: C_13  and  O_14
REMARK    4  A    between atoms: O_14  and  C_15
REMARK    5  A    between atoms: C_18  and  N_19
REMARK                            x       y       z     vdW  Elec       q    Type
REMARK                         _______ _______ _______ _____ _____    ______ ____
ROOT
ATOM      1  C   UNL     1      -0.430  11.562  18.744  0.00  0.00    +0.000 A 
ATOM      2  C   UNL     1      -0.796  10.303  18.244  0.00  0.00    +0.000 A 
ATOM      3  C   UNL     1       0.189   9.358  17.861  0.00  0.00    +0.000 A 
ATOM      4  C   UNL     1       1.549   9.689  17.910  0.00  0.00    +0.000 A 
ATOM      5  C   UNL     1       1.893  10.973  18.343  0.00  0.00    +0.000 A 
ATOM      6  C   UNL     1       0.920  11.898  18.742  0.00  0.00    +0.000 A 
ENDROOT
BRANCH   4   7
ATOM      7  N   UNL     1       2.578   8.757  17.523  0.00  0.00    +0.000 N 
ATOM      8  C   UNL     1       2.774   7.658  18.325  0.00  0.00    +0.000 C 
ATOM      9  O   UNL     1       2.120   7.454  19.332  0.00  0.00    +0.000 OA
ATOM     10  N   UNL     1       3.800   6.774  18.018  0.00  0.00    +0.000 N 
ATOM     11  C   UNL     1       4.081   5.774  19.043  0.00  0.00    +0.000 C 
ATOM     12  C   UNL     1       5.376   5.230  18.561  0.00  0.00    +0.000 A 
ATOM     13  C   UNL     1       6.648   5.494  19.048  0.00  0.00    +0.000 A 
ATOM     14  C   UNL     1       7.751   5.110  18.283  0.00  0.00    +0.000 A 
ATOM     15  C   UNL     1       7.542   4.380  17.114  0.00  0.00    +0.000 A 
ATOM     16  C   UNL     1       6.263   4.365  16.551  0.00  0.00    +0.000 A 
ATOM     17  C   UNL     1       5.253   5.066  17.189  0.00  0.00    +0.000 A 
ATOM     18  C   UNL     1       4.634   6.465  16.822  0.00  0.00    +0.000 C 
ATOM     19  H   UNL     1       3.424   9.149  17.138  0.00  0.00    +0.000 HD
ENDBRANCH   4   7
BRANCH   1  20
ATOM     20  O   UNL     1      -1.436  12.365  19.232  0.00  0.00    +0.000 OA
BRANCH  20  26
ATOM     21  O   UNL     1      -0.916  14.630  24.388  0.00  0.00    +0.000 OA
ATOM     22  C   UNL     1      -1.796  14.738  23.549  0.00  0.00    +0.000 C 
ATOM     23  N   UNL     1      -1.698  14.123  22.300  0.00  0.00    +0.000 N 
ATOM     24  C   UNL     1      -2.652  14.264  21.200  0.00  0.00    +0.000 C 
ATOM     25  C   UNL     1      -3.235  12.909  20.866  0.00  0.00    +0.000 C 
ATOM     26  C   UNL     1      -2.114  11.935  20.438  0.00  0.00    +0.000 C 
ATOM     27  C   UNL     1      -1.097  11.843  21.596  0.00  0.00    +0.000 C 
ATOM     28  C   UNL     1      -0.583  13.222  22.018  0.00  0.00    +0.000 C 
BRANCH  22  29
ATOM     29  C   UNL     1      -3.071  15.545  23.810  0.00  0.00    +0.000 C 
BRANCH  29  30
ATOM     30  C   UNL     1      -4.263  14.704  24.298  0.00  0.00    +0.000 C 
ATOM     31  C   UNL     1      -3.885  13.228  24.514  0.00  0.00    +0.000 C 
ATOM     32  C   UNL     1      -5.109  12.393  24.857  0.00  0.00    +0.000 C 
ATOM     33  O   UNL     1      -6.103  12.515  23.842  0.00  0.00    +0.000 OA
ATOM     34  C   UNL     1      -6.563  13.858  23.704  0.00  0.00    +0.000 C 
ATOM     35  C   UNL     1      -5.422  14.776  23.284  0.00  0.00    +0.000 C 
ENDBRANCH  29  30
ENDBRANCH  22  29
ENDBRANCH  20  26
ENDBRANCH   1  20
TORSDOF 5
ENDMDL
MODEL 2
REMARK VINA RESULT:      -8.0      2.468     12.323
REMARK  Name = 
REMARK  5 active torsions:
REMARK  status: ('A' for Active; 'I' for Inactive)
REMARK    1  A    between atoms: C_2  and  C_3
REMARK    2  A    between atoms: C_3  and  C_4
REMARK    3  A    between atoms: C_13  and  O_14
REMARK    4  A    between atoms: O_14  and  C_15
REMARK    5  A    between atoms: C_18  and  N_19
REMARK                            x       y       z     vdW  Elec       q    Type
REMARK                         _______ _______ _______ _____ _____    ______ ____
ROOT
ATOM      1  C   UNL     1       0.001   8.582  21.277  0.00  0.00    +0.000 A 
ATOM      2  C   UNL     1      -0.280   9.643  20.403  0.00  0.00    +0.000 A 
ATOM      3  C   UNL     1      -0.567  10.939  20.902  0.00  0.00    +0.000 A 
ATOM      4  C   UNL     1      -0.644  11.169  22.281  0.00  0.00    +0.000 A 
ATOM      5  C   UNL     1      -0.432  10.084  23.137  0.00  0.00    +0.000 A 
ATOM      6  C   UNL     1      -0.126   8.809  22.643  0.00  0.00    +0.000 A 
ENDROOT
BRANCH   4   7
ATOM      7  N   UNL     1      -0.940  12.470  22.825  0.00  0.00    +0.000 N 
ATOM      8  C   UNL     1      -2.211  12.685  23.301  0.00  0.00    +0.000 C 
ATOM      9  O   UNL     1      -3.076  11.829  23.277  0.00  0.00    +0.000 OA
ATOM     10  N   UNL     1      -2.549  13.948  23.772  0.00  0.00    +0.000 N 
ATOM     11  C   UNL     1      -3.970  14.147  24.038  0.00  0.00    +0.000 C 
ATOM     12  C   UNL     1      -4.024  15.621  24.206  0.00  0.00    +0.000 A 
ATOM     13  C   UNL     1      -4.479  16.569  23.299  0.00  0.00    +0.000 A 
ATOM     14  C   UNL     1      -4.184  17.914  23.530  0.00  0.00    +0.000 A 
ATOM     15  C   UNL     1      -3.540  18.270  24.714  0.00  0.00    +0.000 A 
ATOM     16  C   UNL     1      -2.892  17.276  25.452  0.00  0.00    +0.000 A 
ATOM     17  C   UNL     1      -2.929  15.975  24.982  0.00  0.00    +0.000 A 
ATOM     18  C   UNL     1      -1.814  15.160  24.230  0.00  0.00    +0.000 C 
ATOM     19  H   UNL     1      -0.531  13.263  22.353  0.00  0.00    +0.000 HD
ENDBRANCH   4   7
BRANCH   1  20
ATOM     20  O   UNL     1       0.415   7.395  20.715  0.00  0.00    +0.000 OA
BRANCH  20  26
ATOM     21  O   UNL     1       2.934   2.773  18.645  0.00  0.00    +0.000 OA
ATOM     22  C   UNL     1       2.855   3.908  18.205  0.00  0.00    +0.000 C 
ATOM     23  N   UNL     1       2.128   4.902  18.865  0.00  0.00    +0.000 N 
ATOM     24  C   UNL     1       1.901   6.261  18.376  0.00  0.00    +0.000 C 
ATOM     25  C   UNL     1       2.496   7.251  19.354  0.00  0.00    +0.000 C 
ATOM     26  C   UNL     1       1.833   7.097  20.741  0.00  0.00    +0.000 C 
ATOM     27  C   UNL     1       2.045   5.641  21.211  0.00  0.00    +0.000 C 
ATOM     28  C   UNL     1       1.547   4.627  20.177  0.00  0.00    +0.000 C 
BRANCH  22  29
ATOM     29  C   UNL     1       3.554   4.327  16.909  0.00  0.00    +0.000 C 
BRANCH  29  30
ATOM     30  C   UNL     1       5.037   4.696  17.081  0.00  0.00    +0.000 C 
ATOM     31  C   UNL     1       5.258   6.218  17.120  0.00  0.00    +0.000 C 
ATOM     32  C   UNL     1       6.740   6.557  17.146  0.00  0.00    +0.000 C 
ATOM     33  O   UNL     1       7.409   5.980  16.027  0.00  0.00    +0.000 OA
ATOM     34  C   UNL     1       7.326   4.556  16.032  0.00  0.00    +0.000 C 
ATOM     35  C   UNL     1       5.874   4.102  15.931  0.00  0.00    +0.000 C 
ENDBRANCH  29  30
ENDBRANCH  22  29
ENDBRANCH  20  26
ENDBRANCH   1  20
TORSDOF 5
ENDMDL
MODEL 3
REMARK VINA RESULT:      -7.9      0.919      1.321
REMARK  Name = 
REMARK  5 active torsions:
REMARK  status: ('A' for Active; 'I' for Inactive)
REMARK    1  A    between atoms: C_2  and  C_3
REMARK    2  A    between atoms: C_3  and  C_4
REMARK    3  A    between atoms: C_13  and  O_14
REMARK    4  A    between atoms: O_14  and  C_15
REMARK    5  A    between atoms: C_18  and  N_19
REMARK                            x       y       z     vdW  Elec       q    Type
REMARK                         _______ _______ _______ _____ _____    ______ ____
ROOT
ATOM      1  C   UNL     1      -0.533  11.667  19.365  0.00  0.00    +0.000 A 
ATOM      2  C   UNL     1       0.806  11.755  19.777  0.00  0.00    +0.000 A 
ATOM      3  C   UNL     1       1.785  10.872  19.256  0.00  0.00    +0.000 A 
ATOM      4  C   UNL     1       1.422   9.849  18.371  0.00  0.00    +0.000 A 
ATOM      5  C   UNL     1       0.073   9.731  18.027  0.00  0.00    +0.000 A 
ATOM      6  C   UNL     1      -0.891  10.618  18.525  0.00  0.00    +0.000 A 
ENDROOT
BRANCH   4   7
ATOM      7  N   UNL     1       2.389   8.929  17.827  0.00  0.00    +0.000 N 
ATOM      8  C   UNL     1       2.610   7.759  18.514  0.00  0.00    +0.000 C 
ATOM      9  O   UNL     1       2.028   7.483  19.547  0.00  0.00    +0.000 OA
ATOM     10  N   UNL     1       3.582   6.881  18.053  0.00  0.00    +0.000 N 
ATOM     11  C   UNL     1       3.908   5.787  18.964  0.00  0.00    +0.000 C 
ATOM     12  C   UNL     1       5.145   5.256  18.338  0.00  0.00    +0.000 A 
ATOM     13  C   UNL     1       6.458   5.444  18.745  0.00  0.00    +0.000 A 
ATOM     14  C   UNL     1       7.488   5.101  17.867  0.00  0.00    +0.000 A 
ATOM     15  C   UNL     1       7.168   4.483  16.659  0.00  0.00    +0.000 A 
ATOM     16  C   UNL     1       5.851   4.550  16.198  0.00  0.00    +0.000 A 
ATOM     17  C   UNL     1       4.914   5.217  16.970  0.00  0.00    +0.000 A 
ATOM     18  C   UNL     1       4.313   6.657  16.774  0.00  0.00    +0.000 C 
ATOM     19  H   UNL     1       3.216   9.332  17.412  0.00  0.00    +0.000 HD
ENDBRANCH   4   7
BRANCH   1  20
ATOM     20  O   UNL     1      -1.393  12.650  19.800  0.00  0.00    +0.000 OA
BRANCH  20  26
ATOM     21  O   UNL     1      -2.688  14.788  24.874  0.00  0.00    +0.000 OA
ATOM     22  C   UNL     1      -3.185  14.973  23.775  0.00  0.00    +0.000 C 
ATOM     23  N   UNL     1      -2.668  14.372  22.625  0.00  0.00    +0.000 N 
ATOM     24  C   UNL     1      -3.135  14.600  21.258  0.00  0.00    +0.000 C 
ATOM     25  C   UNL     1      -3.633  13.295  20.676  0.00  0.00    +0.000 C 
ATOM     26  C   UNL     1      -2.495  12.251  20.652  0.00  0.00    +0.000 C 
ATOM     27  C   UNL     1      -1.988  12.067  22.099  0.00  0.00    +0.000 C 
ATOM     28  C   UNL     1      -1.585  13.399  22.738  0.00  0.00    +0.000 C 
BRANCH  22  29
ATOM     29  C   UNL     1      -4.414  15.865  23.580  0.00  0.00    +0.000 C 
BRANCH  29  30
ATOM     30  C   UNL     1      -5.758  15.130  23.723  0.00  0.00    +0.000 C 
ATOM     31  C   UNL     1      -5.575  13.617  23.933  0.00  0.00    +0.000 C 
ATOM     32  C   UNL     1      -6.915  12.896  23.928  0.00  0.00    +0.000 C 
ATOM     33  O   UNL     1      -7.622  13.155  22.717  0.00  0.00    +0.000 OA
ATOM     34  C   UNL     1      -7.915  14.542  22.557  0.00  0.00    +0.000 C 
ATOM     35  C   UNL     1      -6.630  15.356  22.472  0.00  0.00    +0.000 C 
ENDBRANCH  29  30
ENDBRANCH  22  29
ENDBRANCH  20  26
ENDBRANCH   1  20
TORSDOF 5
ENDMDL
MODEL 4
REMARK VINA RESULT:      -7.8      2.434     12.302
REMARK  Name = 
REMARK  5 active torsions:
REMARK  status: ('A' for Active; 'I' for Inactive)
REMARK    1  A    between atoms: C_2  and  C_3
REMARK    2  A    between atoms: C_3  and  C_4
REMARK    3  A    between atoms: C_13  and  O_14
REMARK    4  A    between atoms: O_14  and  C_15
REMARK    5  A    between atoms: C_18  and  N_19
REMARK                            x       y       z     vdW  Elec       q    Type
REMARK                         _______ _______ _______ _____ _____    ______ ____
ROOT
ATOM      1  C   UNL     1       0.609   8.579  20.806  0.00  0.00    +0.000 A 
ATOM      2  C   UNL     1       0.590   8.747  22.200  0.00  0.00    +0.000 A 
ATOM      3  C   UNL     1       0.171   9.972  22.779  0.00  0.00    +0.000 A 
ATOM      4  C   UNL     1      -0.166  11.063  21.968  0.00  0.00    +0.000 A 
ATOM      5  C   UNL     1      -0.073  10.901  20.583  0.00  0.00    +0.000 A 
ATOM      6  C   UNL     1       0.319   9.684  20.012  0.00  0.00    +0.000 A 
ENDROOT
BRANCH   4   7
ATOM      7  N   UNL     1      -0.589  12.325  22.522  0.00  0.00    +0.000 N 
ATOM      8  C   UNL     1      -1.799  12.358  23.174  0.00  0.00    +0.000 C 
ATOM      9  O   UNL     1      -2.508  11.377  23.294  0.00  0.00    +0.000 OA
ATOM     10  N   UNL     1      -2.266  13.572  23.662  0.00  0.00    +0.000 N 
ATOM     11  C   UNL     1      -3.650  13.557  24.129  0.00  0.00    +0.000 C 
ATOM     12  C   UNL     1      -3.917  15.010  24.271  0.00  0.00    +0.000 A 
ATOM     13  C   UNL     1      -4.642  15.834  23.421  0.00  0.00    +0.000 A 
ATOM     14  C   UNL     1      -4.539  17.217  23.578  0.00  0.00    +0.000 A 
ATOM     15  C   UNL     1      -3.801  17.722  24.647  0.00  0.00    +0.000 A 
ATOM     16  C   UNL     1      -2.903  16.876  25.304  0.00  0.00    +0.000 A 
ATOM     17  C   UNL     1      -2.795  15.565  24.872  0.00  0.00    +0.000 A 
ATOM     18  C   UNL     1      -1.680  14.903  23.983  0.00  0.00    +0.000 C 
ATOM     19  H   UNL     1      -0.384  13.150  21.979  0.00  0.00    +0.000 HD
ENDBRANCH   4   7
BRANCH   1  20
ATOM     20  O   UNL     1       0.883   7.319  20.326  0.00  0.00    +0.000 OA
BRANCH  20  26
ATOM     21  O   UNL     1       2.865   2.344  18.505  0.00  0.00    +0.000 OA
ATOM     22  C   UNL     1       2.832   3.440  17.969  0.00  0.00    +0.000 C 
ATOM     23  N   UNL     1       2.241   4.543  18.588  0.00  0.00    +0.000 N 
ATOM     24  C   UNL     1       2.074   5.868  17.993  0.00  0.00    +0.000 C 
ATOM     25  C   UNL     1       2.823   6.887  18.824  0.00  0.00    +0.000 C 
ATOM     26  C   UNL     1       2.272   6.910  20.268  0.00  0.00    +0.000 C 
ATOM     27  C   UNL     1       2.415   5.487  20.853  0.00  0.00    +0.000 C 
ATOM     28  C   UNL     1       1.756   4.432  19.961  0.00  0.00    +0.000 C 
BRANCH  22  29
ATOM     29  C   UNL     1       3.446   3.685  16.588  0.00  0.00    +0.000 C 
BRANCH  29  30
ATOM     30  C   UNL     1       4.978   3.833  16.593  0.00  0.00    +0.000 C 
ATOM     31  C   UNL     1       5.495   4.489  17.885  0.00  0.00    +0.000 C 
ATOM     32  C   UNL     1       6.990   4.754  17.806  0.00  0.00    +0.000 C 
ATOM     33  O   UNL     1       7.300   5.561  16.672  0.00  0.00    +0.000 OA
ATOM     34  C   UNL     1       6.943   4.921  15.448  0.00  0.00    +0.000 C 
ATOM     35  C   UNL     1       5.439   4.676  15.388  0.00  0.00    +0.000 C 
ENDBRANCH  29  30
ENDBRANCH  22  29
ENDBRANCH  20  26
ENDBRANCH   1  20
TORSDOF 5
ENDMDL
MODEL 5
REMARK VINA RESULT:      -7.7      2.408     12.329
REMARK  Name = 
REMARK  5 active torsions:
REMARK  status: ('A' for Active; 'I' for Inactive)
REMARK    1  A    between atoms: C_2  and  C_3
REMARK    2  A    between atoms: C_3  and  C_4
REMARK    3  A    between atoms: C_13  and  O_14
REMARK    4  A    between atoms: O_14  and  C_15
REMARK    5  A    between atoms: C_18  and  N_19
REMARK                            x       y       z     vdW  Elec       q    Type
REMARK                         _______ _______ _______ _____ _____    ______ ____
ROOT
ATOM      1  C   UNL     1       0.491   8.943  20.737  0.00  0.00    +0.000 A 
ATOM      2  C   UNL     1       0.078   8.851  22.075  0.00  0.00    +0.000 A 
ATOM      3  C   UNL     1      -0.423   9.986  22.762  0.00  0.00    +0.000 A 
ATOM      4  C   UNL     1      -0.451  11.240  22.137  0.00  0.00    +0.000 A 
ATOM      5  C   UNL     1       0.032  11.328  20.828  0.00  0.00    +0.000 A 
ATOM      6  C   UNL     1       0.505  10.201  20.144  0.00  0.00    +0.000 A 
ENDROOT
BRANCH   4   7
ATOM      7  N   UNL     1      -0.946  12.416  22.806  0.00  0.00    +0.000 N 
ATOM      8  C   UNL     1      -2.206  12.853  22.472  0.00  0.00    +0.000 C 
ATOM      9  O   UNL     1      -2.900  12.289  21.646  0.00  0.00    +0.000 OA
ATOM     10  N   UNL     1      -2.689  14.020  23.049  0.00  0.00    +0.000 N 
ATOM     11  C   UNL     1      -3.927  14.530  22.468  0.00  0.00    +0.000 C 
ATOM     12  C   UNL     1      -3.985  15.887  23.066  0.00  0.00    +0.000 A 
ATOM     13  C   UNL     1      -3.682  17.100  22.464  0.00  0.00    +0.000 A 
ATOM     14  C   UNL     1      -3.525  18.229  23.270  0.00  0.00    +0.000 A 
ATOM     15  C   UNL     1      -3.782  18.124  24.636  0.00  0.00    +0.000 A 
ATOM     16  C   UNL     1      -3.831  16.853  25.215  0.00  0.00    +0.000 A 
ATOM     17  C   UNL     1      -3.636  15.749  24.402  0.00  0.00    +0.000 A 
ATOM     18  C   UNL     1      -2.353  14.855  24.237  0.00  0.00    +0.000 C 
ATOM     19  H   UNL     1      -0.281  13.155  22.979  0.00  0.00    +0.000 HD
ENDBRANCH   4   7
BRANCH   1  20
ATOM     20  O   UNL     1       0.823   7.771  20.097  0.00  0.00    +0.000 OA
BRANCH  20  26
ATOM     21  O   UNL     1       2.799   2.567  19.095  0.00  0.00    +0.000 OA
ATOM     22  C   UNL     1       2.800   3.572  18.403  0.00  0.00    +0.000 C 
ATOM     23  N   UNL     1       2.202   4.759  18.833  0.00  0.00    +0.000 N 
ATOM     24  C   UNL     1       2.074   5.985  18.045  0.00  0.00    +0.000 C 
ATOM     25  C   UNL     1       2.807   7.108  18.745  0.00  0.00    +0.000 C 
ATOM     26  C   UNL     1       2.207   7.346  20.149  0.00  0.00    +0.000 C 
ATOM     27  C   UNL     1       2.312   6.024  20.941  0.00  0.00    +0.000 C 
ATOM     28  C   UNL     1       1.669   4.855  20.189  0.00  0.00    +0.000 C 
BRANCH  22  29
ATOM     29  C   UNL     1       3.464   3.608  17.024  0.00  0.00    +0.000 C 
BRANCH  29  30
ATOM     30  C   UNL     1       4.769   4.421  16.971  0.00  0.00    +0.000 C 
ATOM     31  C   UNL     1       5.657   4.018  15.781  0.00  0.00    +0.000 C 
ATOM     32  C   UNL     1       6.999   4.732  15.831  0.00  0.00    +0.000 C 
ATOM     33  O   UNL     1       7.663   4.471  17.066  0.00  0.00    +0.000 OA
ATOM     34  C   UNL     1       6.916   4.946  18.185  0.00  0.00    +0.000 C 
ATOM     35  C   UNL     1       5.571   4.235  18.274  0.00  0.00    +0.000 C 
ENDBRANCH  29  30
ENDBRANCH  22  29
ENDBRANCH  20  26
ENDBRANCH   1  20
TORSDOF 5
ENDMDL
MODEL 6
REMARK VINA RESULT:      -7.6      1.796      3.165
REMARK  Name = 
REMARK  5 active torsions:
REMARK  status: ('A' for Active; 'I' for Inactive)
REMARK    1  A    between atoms: C_2  and  C_3
REMARK    2  A    between atoms: C_3  and  C_4
REMARK    3  A    between atoms: C_13  and  O_14
REMARK    4  A    between atoms: O_14  and  C_15
REMARK    5  A    between atoms: C_18  and  N_19
REMARK                            x       y       z     vdW  Elec       q    Type
REMARK                         _______ _______ _______ _____ _____    ______ ____
ROOT
ATOM      1  C   UNL     1      -0.657  10.734  20.024  0.00  0.00    +0.000 A 
ATOM      2  C   UNL     1       0.373  10.148  20.775  0.00  0.00    +0.000 A 
ATOM      3  C   UNL     1       1.427   9.444  20.139  0.00  0.00    +0.000 A 
ATOM      4  C   UNL     1       1.421   9.259  18.751  0.00  0.00    +0.000 A 
ATOM      5  C   UNL     1       0.350   9.787  18.026  0.00  0.00    +0.000 A 
ATOM      6  C   UNL     1      -0.678  10.503  18.653  0.00  0.00    +0.000 A 
ENDROOT
BRANCH   4   7
ATOM      7  N   UNL     1       2.471   8.543  18.070  0.00  0.00    +0.000 N 
ATOM      8  C   UNL     1       2.578   7.194  18.310  0.00  0.00    +0.000 C 
ATOM      9  O   UNL     1       1.830   6.599  19.064  0.00  0.00    +0.000 OA
ATOM     10  N   UNL     1       3.618   6.486  17.721  0.00  0.00    +0.000 N 
ATOM     11  C   UNL     1       3.790   5.122  18.210  0.00  0.00    +0.000 C 
ATOM     12  C   UNL     1       5.118   4.781  17.640  0.00  0.00    +0.000 A 
ATOM     13  C   UNL     1       6.342   4.734  18.291  0.00  0.00    +0.000 A 
ATOM     14  C   UNL     1       7.507   4.672  17.525  0.00  0.00    +0.000 A 
ATOM     15  C   UNL     1       7.400   4.549  16.141  0.00  0.00    +0.000 A 
ATOM     16  C   UNL     1       6.179   4.853  15.532  0.00  0.00    +0.000 A 
ATOM     17  C   UNL     1       5.123   5.250  16.334  0.00  0.00    +0.000 A 
ATOM     18  C   UNL     1       4.557   6.696  16.583  0.00  0.00    +0.000 C 
ATOM     19  H   UNL     1       3.354   9.020  17.968  0.00  0.00    +0.000 HD
ENDBRANCH   4   7
BRANCH   1  20
ATOM     20  O   UNL     1      -1.560  11.525  20.699  0.00  0.00    +0.000 OA
BRANCH  20  26
ATOM     21  O   UNL     1      -4.479  15.314  23.717  0.00  0.00    +0.000 OA
ATOM     22  C   UNL     1      -3.479  14.669  23.990  0.00  0.00    +0.000 C 
ATOM     23  N   UNL     1      -2.944  13.735  23.102  0.00  0.00    +0.000 N 
ATOM     24  C   UNL     1      -1.808  12.854  23.370  0.00  0.00    +0.000 C 
ATOM     25  C   UNL     1      -0.701  13.149  22.381  0.00  0.00    +0.000 C 
ATOM     26  C   UNL     1      -1.196  12.907  20.938  0.00  0.00    +0.000 C 
ATOM     27  C   UNL     1      -2.424  13.812  20.698  0.00  0.00    +0.000 C 
ATOM     28  C   UNL     1      -3.506  13.602  21.760  0.00  0.00    +0.000 C 
BRANCH  22  29
ATOM     29  C   UNL     1      -2.736  14.848  25.317  0.00  0.00    +0.000 C 
BRANCH  29  30
ATOM     30  C   UNL     1      -1.915  16.145  25.413  0.00  0.00    +0.000 C 
ATOM     31  C   UNL     1      -1.204  16.483  24.091  0.00  0.00    +0.000 C 
ATOM     32  C   UNL     1      -0.288  17.686  24.252  0.00  0.00    +0.000 C 
ATOM     33  O   UNL     1       0.662  17.460  25.292  0.00  0.00    +0.000 OA
ATOM     34  C   UNL     1       0.033  17.266  26.557  0.00  0.00    +0.000 C 
ATOM     35  C   UNL     1      -0.858  16.029  26.529  0.00  0.00    +0.000 C 
ENDBRANCH  29  30
ENDBRANCH  22  29
ENDBRANCH  20  26
ENDBRANCH   1  20
TORSDOF 5
ENDMDL
MODEL 7
REMARK VINA RESULT:      -7.6      1.758      2.917
REMARK  Name = 
REMARK  5 active torsions:
REMARK  status: ('A' for Active; 'I' for Inactive)
REMARK    1  A    between atoms: C_2  and  C_3
REMARK    2  A    between atoms: C_3  and  C_4
REMARK    3  A    between atoms: C_13  and  O_14
REMARK    4  A    between atoms: O_14  and  C_15
REMARK    5  A    between atoms: C_18  and  N_19
REMARK                            x       y       z     vdW  Elec       q    Type
REMARK                         _______ _______ _______ _____ _____    ______ ____
ROOT
ATOM      1  C   UNL     1      -0.458  10.560  20.313  0.00  0.00    +0.000 A 
ATOM      2  C   UNL     1      -0.325  10.758  18.930  0.00  0.00    +0.000 A 
ATOM      3  C   UNL     1       0.642  10.038  18.183  0.00  0.00    +0.000 A 
ATOM      4  C   UNL     1       1.530   9.165  18.823  0.00  0.00    +0.000 A 
ATOM      5  C   UNL     1       1.430   9.034  20.211  0.00  0.00    +0.000 A 
ATOM      6  C   UNL     1       0.460   9.728  20.945  0.00  0.00    +0.000 A 
ENDROOT
BRANCH   4   7
ATOM      7  N   UNL     1       2.529   8.422  18.097  0.00  0.00    +0.000 N 
ATOM      8  C   UNL     1       2.679   7.091  18.405  0.00  0.00    +0.000 C 
ATOM      9  O   UNL     1       2.010   6.534  19.255  0.00  0.00    +0.000 OA
ATOM     10  N   UNL     1       3.676   6.362  17.770  0.00  0.00    +0.000 N 
ATOM     11  C   UNL     1       3.914   5.032  18.322  0.00  0.00    +0.000 C 
ATOM     12  C   UNL     1       5.193   4.673  17.659  0.00  0.00    +0.000 A 
ATOM     13  C   UNL     1       6.470   4.681  18.202  0.00  0.00    +0.000 A 
ATOM     14  C   UNL     1       7.565   4.587  17.342  0.00  0.00    +0.000 A 
ATOM     15  C   UNL     1       7.341   4.380  15.982  0.00  0.00    +0.000 A 
ATOM     16  C   UNL     1       6.067   4.632  15.465  0.00  0.00    +0.000 A 
ATOM     17  C   UNL     1       5.077   5.063  16.332  0.00  0.00    +0.000 A 
ATOM     18  C   UNL     1       4.510   6.515  16.544  0.00  0.00    +0.000 C 
ATOM     19  H   UNL     1       3.391   8.903  17.890  0.00  0.00    +0.000 HD
ENDBRANCH   4   7
BRANCH   1  20
ATOM     20  O   UNL     1      -1.514  11.182  20.941  0.00  0.00    +0.000 OA
BRANCH  20  26
ATOM     21  O   UNL     1      -5.118  14.466  23.807  0.00  0.00    +0.000 OA
ATOM     22  C   UNL     1      -3.978  14.114  24.061  0.00  0.00    +0.000 C 
ATOM     23  N   UNL     1      -3.274  13.244  23.226  0.00  0.00    +0.000 N 
ATOM     24  C   UNL     1      -1.944  12.697  23.487  0.00  0.00    +0.000 C 
ATOM     25  C   UNL     1      -0.997  13.139  22.393  0.00  0.00    +0.000 C 
ATOM     26  C   UNL     1      -1.490  12.629  21.020  0.00  0.00    +0.000 C 
ATOM     27  C   UNL     1      -2.915  13.180  20.792  0.00  0.00    +0.000 C 
ATOM     28  C   UNL     1      -3.855  12.834  21.950  0.00  0.00    +0.000 C 
BRANCH  22  29
ATOM     29  C   UNL     1      -3.234  14.610  25.304  0.00  0.00    +0.000 C 
BRANCH  29  30
ATOM     30  C   UNL     1      -2.356  15.850  25.064  0.00  0.00    +0.000 C 
ATOM     31  C   UNL     1      -1.108  15.863  25.964  0.00  0.00    +0.000 C 
ATOM     32  C   UNL     1      -0.334  17.163  25.811  0.00  0.00    +0.000 C 
ATOM     33  O   UNL     1      -1.170  18.284  26.092  0.00  0.00    +0.000 OA
ATOM     34  C   UNL     1      -2.272  18.367  25.190  0.00  0.00    +0.000 C 
ATOM     35  C   UNL     1      -3.164  17.137  25.318  0.00  0.00    +0.000 C 
ENDBRANCH  29  30
ENDBRANCH  22  29
ENDBRANCH  20  26
ENDBRANCH   1  20
TORSDOF 5
ENDMDL
MODEL 8
REMARK VINA RESULT:      -7.6      3.958      6.536
REMARK  Name = 
REMARK  5 active torsions:
REMARK  status: ('A' for Active; 'I' for Inactive)
REMARK    1  A    between atoms: C_2  and  C_3
REMARK    2  A    between atoms: C_3  and  C_4
REMARK    3  A    between atoms: C_13  and  O_14
REMARK    4  A    between atoms: O_14  and  C_15
REMARK    5  A    between atoms: C_18  and  N_19
REMARK                            x       y       z     vdW  Elec       q    Type
REMARK                         _______ _______ _______ _____ _____    ______ ____
ROOT
ATOM      1  C   UNL     1      -0.290  11.974  20.581  0.00  0.00    +0.000 A 
ATOM      2  C   UNL     1       0.755  11.580  21.431  0.00  0.00    +0.000 A 
ATOM      3  C   UNL     1       1.268  10.259  21.388  0.00  0.00    +0.000 A 
ATOM      4  C   UNL     1       0.694   9.300  20.543  0.00  0.00    +0.000 A 
ATOM      5  C   UNL     1      -0.393   9.691  19.756  0.00  0.00    +0.000 A 
ATOM      6  C   UNL     1      -0.884  11.002  19.782  0.00  0.00    +0.000 A 
ENDROOT
BRANCH   4   7
ATOM      7  N   UNL     1       1.184   7.947  20.478  0.00  0.00    +0.000 N 
ATOM      8  C   UNL     1       2.040   7.630  19.450  0.00  0.00    +0.000 C 
ATOM      9  O   UNL     1       2.388   8.441  18.611  0.00  0.00    +0.000 OA
ATOM     10  N   UNL     1       2.480   6.319  19.320  0.00  0.00    +0.000 N 
ATOM     11  C   UNL     1       3.191   6.027  18.079  0.00  0.00    +0.000 C 
ATOM     12  C   UNL     1       3.232   4.544  18.117  0.00  0.00    +0.000 A 
ATOM     13  C   UNL     1       2.450   3.649  17.401  0.00  0.00    +0.000 A 
ATOM     14  C   UNL     1       2.444   2.307  17.786  0.00  0.00    +0.000 A 
ATOM     15  C   UNL     1       3.303   1.891  18.802  0.00  0.00    +0.000 A 
ATOM     16  C   UNL     1       3.866   2.856  19.642  0.00  0.00    +0.000 A 
ATOM     17  C   UNL     1       3.557   4.187  19.419  0.00  0.00    +0.000 A 
ATOM     18  C   UNL     1       2.551   5.114  20.193  0.00  0.00    +0.000 C 
ATOM     19  H   UNL     1       0.532   7.215  20.719  0.00  0.00    +0.000 HD
ENDBRANCH   4   7
BRANCH   1  20
ATOM     20  O   UNL     1      -0.632  13.308  20.577  0.00  0.00    +0.000 OA
BRANCH  20  26
ATOM     21  O   UNL     1       2.455  17.792  19.044  0.00  0.00    +0.000 OA
ATOM     22  C   UNL     1       2.570  16.608  18.772  0.00  0.00    +0.000 C 
ATOM     23  N   UNL     1       1.713  15.646  19.308  0.00  0.00    +0.000 N 
ATOM     24  C   UNL     1       1.824  14.200  19.115  0.00  0.00    +0.000 C 
ATOM     25  C   UNL     1       0.574  13.690  18.431  0.00  0.00    +0.000 C 
ATOM     26  C   UNL     1      -0.670  13.988  19.298  0.00  0.00    +0.000 C 
ATOM     27  C   UNL     1      -0.734  15.515  19.528  0.00  0.00    +0.000 C 
ATOM     28  C   UNL     1       0.569  16.060  20.117  0.00  0.00    +0.000 C 
BRANCH  22  29
ATOM     29  C   UNL     1       3.652  16.097  17.817  0.00  0.00    +0.000 C 
BRANCH  29  30
ATOM     30  C   UNL     1       5.064  16.054  18.424  0.00  0.00    +0.000 C 
ATOM     31  C   UNL     1       5.889  14.868  17.896  0.00  0.00    +0.000 C 
ATOM     32  C   UNL     1       7.225  14.765  18.616  0.00  0.00    +0.000 C 
ATOM     33  O   UNL     1       7.032  14.657  20.025  0.00  0.00    +0.000 OA
ATOM     34  C   UNL     1       6.377  15.805  20.563  0.00  0.00    +0.000 C 
ATOM     35  C   UNL     1       4.985  15.960  19.961  0.00  0.00    +0.000 C 
ENDBRANCH  29  30
ENDBRANCH  22  29
ENDBRANCH  20  26
ENDBRANCH   1  20
TORSDOF 5
ENDMDL
MODEL 9
REMARK VINA RESULT:      -7.5      1.638      2.875
REMARK  Name = 
REMARK  5 active torsions:
REMARK  status: ('A' for Active; 'I' for Inactive)
REMARK    1  A    between atoms: C_2  and  C_3
REMARK    2  A    between atoms: C_3  and  C_4
REMARK    3  A    between atoms: C_13  and  O_14
REMARK    4  A    between atoms: O_14  and  C_15
REMARK    5  A    between atoms: C_18  and  N_19
REMARK                            x       y       z     vdW  Elec       q    Type
REMARK                         _______ _______ _______ _____ _____    ______ ____
ROOT
ATOM      1  C   UNL     1      -0.408  10.224  20.652  0.00  0.00    +0.000 A 
ATOM      2  C   UNL     1       0.446   9.267  21.222  0.00  0.00    +0.000 A 
ATOM      3  C   UNL     1       1.460   8.646  20.449  0.00  0.00    +0.000 A 
ATOM      4  C   UNL     1       1.584   8.925  19.082  0.00  0.00    +0.000 A 
ATOM      5  C   UNL     1       0.679   9.827  18.515  0.00  0.00    +0.000 A 
ATOM      6  C   UNL     1      -0.308  10.457  19.284  0.00  0.00    +0.000 A 
ENDROOT
BRANCH   4   7
ATOM      7  N   UNL     1       2.598   8.309  18.265  0.00  0.00    +0.000 N 
ATOM      8  C   UNL     1       2.698   6.938  18.302  0.00  0.00    +0.000 C 
ATOM      9  O   UNL     1       1.973   6.245  18.992  0.00  0.00    +0.000 OA
ATOM     10  N   UNL     1       3.706   6.316  17.577  0.00  0.00    +0.000 N 
ATOM     11  C   UNL     1       3.881   4.895  17.857  0.00  0.00    +0.000 C 
ATOM     12  C   UNL     1       5.181   4.631  17.191  0.00  0.00    +0.000 A 
ATOM     13  C   UNL     1       6.429   4.483  17.779  0.00  0.00    +0.000 A 
ATOM     14  C   UNL     1       7.563   4.526  16.967  0.00  0.00    +0.000 A 
ATOM     15  C   UNL     1       7.401   4.605  15.584  0.00  0.00    +0.000 A 
ATOM     16  C   UNL     1       6.162   5.001  15.075  0.00  0.00    +0.000 A 
ATOM     17  C   UNL     1       5.141   5.285  15.967  0.00  0.00    +0.000 A 
ATOM     18  C   UNL     1       4.603   6.683  16.445  0.00  0.00    +0.000 C 
ATOM     19  H   UNL     1       3.482   8.790  18.197  0.00  0.00    +0.000 HD
ENDBRANCH   4   7
BRANCH   1  20
ATOM     20  O   UNL     1      -1.266  10.888  21.499  0.00  0.00    +0.000 OA
BRANCH  20  26
ATOM     21  O   UNL     1      -5.340  14.795  21.859  0.00  0.00    +0.000 OA
ATOM     22  C   UNL     1      -4.637  14.287  22.718  0.00  0.00    +0.000 C 
ATOM     23  N   UNL     1      -3.713  13.286  22.413  0.00  0.00    +0.000 N 
ATOM     24  C   UNL     1      -2.892  12.557  23.379  0.00  0.00    +0.000 C 
ATOM     25  C   UNL     1      -1.430  12.804  23.081  0.00  0.00    +0.000 C 
ATOM     26  C   UNL     1      -1.083  12.317  21.657  0.00  0.00    +0.000 C 
ATOM     27  C   UNL     1      -1.997  13.066  20.662  0.00  0.00    +0.000 C 
ATOM     28  C   UNL     1      -3.478  12.914  21.019  0.00  0.00    +0.000 C 
BRANCH  22  29
ATOM     29  C   UNL     1      -4.711  14.717  24.185  0.00  0.00    +0.000 C 
BRANCH  29  30
ATOM     30  C   UNL     1      -3.783  15.890  24.549  0.00  0.00    +0.000 C 
ATOM     31  C   UNL     1      -3.098  16.494  23.311  0.00  0.00    +0.000 C 
ATOM     32  C   UNL     1      -2.082  17.554  23.710  0.00  0.00    +0.000 C 
ATOM     33  O   UNL     1      -1.115  17.012  24.607  0.00  0.00    +0.000 OA
ATOM     34  C   UNL     1      -1.710  16.554  25.820  0.00  0.00    +0.000 C 
ATOM     35  C   UNL     1      -2.699  15.428  25.542  0.00  0.00    +0.000 C 
ENDBRANCH  29  30
ENDBRANCH  22  29
ENDBRANCH  20  26
ENDBRANCH   1  20
TORSDOF 5
ENDMDL
