MODEL 1
REMARK VINA RESULT:      -8.1      0.000      0.000
REMARK  Name = 
REMARK  6 active torsions:
REMARK  status: ('A' for Active; 'I' for Inactive)
REMARK    1  A    between atoms: C_1  and  C_2
REMARK    2  A    between atoms: C_3  and  C_4
REMARK    3  A    between atoms: C_4  and  C_6
REMARK    4  A    between atoms: N_23  and  C_24
REMARK    5  A    between atoms: C_24  and  C_25
REMARK    6  A    between atoms: C_25  and  N_26
REMARK                            x       y       z     vdW  Elec       q    Type
REMARK                         _______ _______ _______ _____ _____    ______ ____
ROOT
ATOM      1  C   UNL     1       2.066  10.015  17.783  0.00  0.00    +0.000 C 
ATOM      2  C   UNL     1       2.116   8.773  18.600  0.00  0.00    +0.000 A 
ATOM      3  C   UNL     1       1.456   8.473  19.834  0.00  0.00    +0.000 A 
ATOM      4  C   UNL     1       1.726   7.054  20.035  0.00  0.00    +0.000 A 
ATOM      5  C   UNL     1       1.295   6.087  20.987  0.00  0.00    +0.000 A 
ATOM      6  C   UNL     1       1.815   4.784  20.966  0.00  0.00    +0.000 A 
ATOM      7  C   UNL     1       2.778   4.416  20.033  0.00  0.00    +0.000 A 
ATOM      8 BR   UNL     1       3.519   2.681  20.042  0.00  0.00    +0.000 Br
ATOM      9  C   UNL     1       3.213   5.330  19.081  0.00  0.00    +0.000 A 
ATOM     10  C   UNL     1       2.673   6.635  19.085  0.00  0.00    +0.000 A 
ATOM     11  N   UNL     1       2.932   7.701  18.229  0.00  0.00    +0.000 N 
ENDROOT
BRANCH   3  12
ATOM     12  C   UNL     1       0.773   9.449  20.865  0.00  0.00    +0.000 C 
ATOM     13  O   UNL     1       1.012   9.413  22.081  0.00  0.00    +0.000 OA
BRANCH  12  14
ATOM     14  C   UNL     1      -0.112  10.592  20.261  0.00  0.00    +0.000 A 
ATOM     15  C   UNL     1      -0.052  11.704  21.105  0.00  0.00    +0.000 A 
ATOM     16  C   UNL     1      -0.592  12.886  20.711  0.00  0.00    +0.000 A 
ATOM     17  C   UNL     1      -1.919  12.648  20.414  0.00  0.00    +0.000 A 
ATOM     18  C   UNL     1      -2.143  11.665  19.478  0.00  0.00    +0.000 A 
ATOM     19  C   UNL     1      -3.371  11.812  18.811  0.00  0.00    +0.000 A 
ATOM     20  C   UNL     1      -3.578  11.228  17.579  0.00  0.00    +0.000 A 
ATOM     21  C   UNL     1      -2.577  10.410  17.082  0.00  0.00    +0.000 A 
ATOM     22  C   UNL     1      -1.426  10.068  17.879  0.00  0.00    +0.000 A 
ATOM     23  C   UNL     1      -1.146  10.681  19.172  0.00  0.00    +0.000 A 
ENDBRANCH  12  14
ENDBRANCH   3  12
BRANCH  11  24
ATOM     24  C   UNL     1       3.811   7.488  17.050  0.00  0.00    +0.000 C 
BRANCH  24  25
ATOM     25  C   UNL     1       5.367   7.490  17.106  0.00  0.00    +0.000 C 
BRANCH  25  26
ATOM     26  N   UNL     1       6.077   6.179  17.133  0.00  0.00    +0.000 NA
ATOM     27  C   UNL     1       6.388   5.575  15.812  0.00  0.00    +0.000 C 
ATOM     28  C   UNL     1       6.955   4.144  15.975  0.00  0.00    +0.000 C 
ATOM     29  O   UNL     1       8.142   4.143  16.780  0.00  0.00    +0.000 OA
ATOM     30  C   UNL     1       7.860   4.703  18.070  0.00  0.00    +0.000 C 
ATOM     31  C   UNL     1       7.311   6.143  17.951  0.00  0.00    +0.000 C 
ENDBRANCH  25  26
ENDBRANCH  24  25
ENDBRANCH  11  24
TORSDOF 5
ENDMDL
MODEL 2
REMARK VINA RESULT:      -7.9      3.214      8.331
REMARK  Name = 
REMARK  6 active torsions:
REMARK  status: ('A' for Active; 'I' for Inactive)
REMARK    1  A    between atoms: C_1  and  C_2
REMARK    2  A    between atoms: C_3  and  C_4
REMARK    3  A    between atoms: C_4  and  C_6
REMARK    4  A    between atoms: N_23  and  C_24
REMARK    5  A    between atoms: C_24  and  C_25
REMARK    6  A    between atoms: C_25  and  N_26
REMARK                            x       y       z     vdW  Elec       q    Type
REMARK                         _______ _______ _______ _____ _____    ______ ____
ROOT
ATOM      1  C   UNL     1       2.185   8.680  17.498  0.00  0.00    +0.000 C 
ATOM      2  C   UNL     1       1.531   8.862  18.821  0.00  0.00    +0.000 A 
ATOM      3  C   UNL     1       1.626   8.054  19.998  0.00  0.00    +0.000 A 
ATOM      4  C   UNL     1       0.935   8.839  21.015  0.00  0.00    +0.000 A 
ATOM      5  C   UNL     1       0.743   8.696  22.417  0.00  0.00    +0.000 A 
ATOM      6  C   UNL     1      -0.066   9.599  23.123  0.00  0.00    +0.000 A 
ATOM      7  C   UNL     1      -0.714  10.639  22.465  0.00  0.00    +0.000 A 
ATOM      8 BR   UNL     1      -1.847  11.819  23.405  0.00  0.00    +0.000 Br
ATOM      9  C   UNL     1      -0.539  10.817  21.098  0.00  0.00    +0.000 A 
ATOM     10  C   UNL     1       0.294   9.922  20.390  0.00  0.00    +0.000 A 
ATOM     11  N   UNL     1       0.636   9.913  19.041  0.00  0.00    +0.000 N 
ENDROOT
BRANCH   3  12
ATOM     12  C   UNL     1       2.150   6.576  20.155  0.00  0.00    +0.000 C 
ATOM     13  O   UNL     1       2.177   5.988  21.246  0.00  0.00    +0.000 OA
BRANCH  12  14
ATOM     14  C   UNL     1       2.488   5.813  18.829  0.00  0.00    +0.000 A 
ATOM     15  C   UNL     1       1.521   4.826  18.617  0.00  0.00    +0.000 A 
ATOM     16  C   UNL     1       1.491   4.145  17.443  0.00  0.00    +0.000 A 
ATOM     17  C   UNL     1       2.734   3.566  17.277  0.00  0.00    +0.000 A 
ATOM     18  C   UNL     1       3.797   4.439  17.316  0.00  0.00    +0.000 A 
ATOM     19  C   UNL     1       4.925   3.961  16.629  0.00  0.00    +0.000 A 
ATOM     20  C   UNL     1       5.897   4.829  16.180  0.00  0.00    +0.000 A 
ATOM     21  C   UNL     1       5.772   6.165  16.526  0.00  0.00    +0.000 A 
ATOM     22  C   UNL     1       4.746   6.608  17.435  0.00  0.00    +0.000 A 
ATOM     23  C   UNL     1       3.678   5.737  17.913  0.00  0.00    +0.000 A 
ENDBRANCH  12  14
ENDBRANCH   3  12
BRANCH  11  24
ATOM     24  C   UNL     1       0.189  11.032  18.172  0.00  0.00    +0.000 C 
BRANCH  24  25
ATOM     25  C   UNL     1      -1.152  11.801  18.355  0.00  0.00    +0.000 C 
BRANCH  25  26
ATOM     26  N   UNL     1      -2.221  11.615  17.333  0.00  0.00    +0.000 NA
ATOM     27  C   UNL     1      -2.078  10.436  16.443  0.00  0.00    +0.000 C 
ATOM     28  C   UNL     1      -3.140  10.455  15.317  0.00  0.00    +0.000 C 
ATOM     29  O   UNL     1      -4.469  10.474  15.856  0.00  0.00    +0.000 OA
ATOM     30  C   UNL     1      -4.639  11.618  16.704  0.00  0.00    +0.000 C 
ATOM     31  C   UNL     1      -3.608  11.624  17.856  0.00  0.00    +0.000 C 
ENDBRANCH  25  26
ENDBRANCH  24  25
ENDBRANCH  11  24
TORSDOF 5
ENDMDL
MODEL 3
REMARK VINA RESULT:      -7.9      0.605      1.048
REMARK  Name = 
REMARK  6 active torsions:
REMARK  status: ('A' for Active; 'I' for Inactive)
REMARK    1  A    between atoms: C_1  and  C_2
REMARK    2  A    between atoms: C_3  and  C_4
REMARK    3  A    between atoms: C_4  and  C_6
REMARK    4  A    between atoms: N_23  and  C_24
REMARK    5  A    between atoms: C_24  and  C_25
REMARK    6  A    between atoms: C_25  and  N_26
REMARK                            x       y       z     vdW  Elec       q    Type
REMARK                         _______ _______ _______ _____ _____    ______ ____
ROOT
ATOM      1  C   UNL     1       2.101   9.612  17.807  0.00  0.00    +0.000 C 
ATOM      2  C   UNL     1       2.235   8.366  18.610  0.00  0.00    +0.000 A 
ATOM      3  C   UNL     1       1.621   8.020  19.855  0.00  0.00    +0.000 A 
ATOM      4  C   UNL     1       1.970   6.615  20.035  0.00  0.00    +0.000 A 
ATOM      5  C   UNL     1       1.612   5.618  20.985  0.00  0.00    +0.000 A 
ATOM      6  C   UNL     1       2.199   4.344  20.938  0.00  0.00    +0.000 A 
ATOM      7  C   UNL     1       3.158   4.037  19.979  0.00  0.00    +0.000 A 
ATOM      8 BR   UNL     1       3.989   2.342  19.953  0.00  0.00    +0.000 Br
ATOM      9  C   UNL     1       3.522   4.981  19.028  0.00  0.00    +0.000 A 
ATOM     10  C   UNL     1       2.915   6.256  19.059  0.00  0.00    +0.000 A 
ATOM     11  N   UNL     1       3.098   7.342  18.208  0.00  0.00    +0.000 N 
ENDROOT
BRANCH   3  12
ATOM     12  C   UNL     1       0.912   8.949  20.912  0.00  0.00    +0.000 C 
ATOM     13  O   UNL     1       1.001   8.761  22.134  0.00  0.00    +0.000 OA
BRANCH  12  14
ATOM     14  C   UNL     1       0.214  10.234  20.351  0.00  0.00    +0.000 A 
ATOM     15  C   UNL     1       0.661  11.343  21.075  0.00  0.00    +0.000 A 
ATOM     16  C   UNL     1       0.339  12.597  20.666  0.00  0.00    +0.000 A 
ATOM     17  C   UNL     1      -1.039  12.661  20.597  0.00  0.00    +0.000 A 
ATOM     18  C   UNL     1      -1.630  11.711  19.797  0.00  0.00    +0.000 A 
ATOM     19  C   UNL     1      -2.889  12.106  19.315  0.00  0.00    +0.000 A 
ATOM     20  C   UNL     1      -3.427  11.526  18.186  0.00  0.00    +0.000 A 
ATOM     21  C   UNL     1      -2.731  10.472  17.616  0.00  0.00    +0.000 A 
ATOM     22  C   UNL     1      -1.567   9.911  18.255  0.00  0.00    +0.000 A 
ATOM     23  C   UNL     1      -0.943  10.507  19.431  0.00  0.00    +0.000 A 
ENDBRANCH  12  14
ENDBRANCH   3  12
BRANCH  11  24
ATOM     24  C   UNL     1       3.958   7.187  17.007  0.00  0.00    +0.000 C 
BRANCH  24  25
ATOM     25  C   UNL     1       5.458   7.602  16.944  0.00  0.00    +0.000 C 
BRANCH  25  26
ATOM     26  N   UNL     1       6.494   6.543  17.107  0.00  0.00    +0.000 NA
ATOM     27  C   UNL     1       6.894   6.228  18.501  0.00  0.00    +0.000 C 
ATOM     28  C   UNL     1       8.096   5.252  18.528  0.00  0.00    +0.000 C 
ATOM     29  O   UNL     1       7.789   4.030  17.843  0.00  0.00    +0.000 OA
ATOM     30  C   UNL     1       7.419   4.308  16.486  0.00  0.00    +0.000 C 
ATOM     31  C   UNL     1       6.206   5.263  16.416  0.00  0.00    +0.000 C 
ENDBRANCH  25  26
ENDBRANCH  24  25
ENDBRANCH  11  24
TORSDOF 5
ENDMDL
MODEL 4
REMARK VINA RESULT:      -7.9      3.689      9.247
REMARK  Name = 
REMARK  6 active torsions:
REMARK  status: ('A' for Active; 'I' for Inactive)
REMARK    1  A    between atoms: C_1  and  C_2
REMARK    2  A    between atoms: C_3  and  C_4
REMARK    3  A    between atoms: C_4  and  C_6
REMARK    4  A    between atoms: N_23  and  C_24
REMARK    5  A    between atoms: C_24  and  C_25
REMARK    6  A    between atoms: C_25  and  N_26
REMARK                            x       y       z     vdW  Elec       q    Type
REMARK                         _______ _______ _______ _____ _____    ______ ____
ROOT
ATOM      1  C   UNL     1       1.609   9.602  21.502  0.00  0.00    +0.000 C 
ATOM      2  C   UNL     1       0.652   9.903  20.404  0.00  0.00    +0.000 A 
ATOM      3  C   UNL     1       0.763   9.631  19.003  0.00  0.00    +0.000 A 
ATOM      4  C   UNL     1      -0.555   9.969  18.478  0.00  0.00    +0.000 A 
ATOM      5  C   UNL     1      -1.177   9.845  17.204  0.00  0.00    +0.000 A 
ATOM      6  C   UNL     1      -2.465  10.356  16.986  0.00  0.00    +0.000 A 
ATOM      7  C   UNL     1      -3.151  11.015  18.001  0.00  0.00    +0.000 A 
ATOM      8 BR   UNL     1      -4.860  11.752  17.690  0.00  0.00    +0.000 Br
ATOM      9  C   UNL     1      -2.580  11.143  19.261  0.00  0.00    +0.000 A 
ATOM     10  C   UNL     1      -1.293  10.608  19.489  0.00  0.00    +0.000 A 
ATOM     11  N   UNL     1      -0.537  10.594  20.657  0.00  0.00    +0.000 N 
ENDROOT
BRANCH   3  12
ATOM     12  C   UNL     1       2.039   9.260  18.157  0.00  0.00    +0.000 C 
ATOM     13  O   UNL     1       2.653  10.091  17.471  0.00  0.00    +0.000 OA
BRANCH  12  14
ATOM     14  C   UNL     1       2.604   7.812  18.348  0.00  0.00    +0.000 A 
ATOM     15  C   UNL     1       3.596   7.583  17.391  0.00  0.00    +0.000 A 
ATOM     16  C   UNL     1       4.364   6.465  17.460  0.00  0.00    +0.000 A 
ATOM     17  C   UNL     1       3.507   5.383  17.451  0.00  0.00    +0.000 A 
ATOM     18  C   UNL     1       2.547   5.387  18.437  0.00  0.00    +0.000 A 
ATOM     19  C   UNL     1       2.077   4.101  18.751  0.00  0.00    +0.000 A 
ATOM     20  C   UNL     1       1.475   3.846  19.965  0.00  0.00    +0.000 A 
ATOM     21  C   UNL     1       1.258   4.923  20.810  0.00  0.00    +0.000 A 
ATOM     22  C   UNL     1       1.519   6.274  20.381  0.00  0.00    +0.000 A 
ATOM     23  C   UNL     1       2.182   6.593  19.121  0.00  0.00    +0.000 A 
ENDBRANCH  12  14
ENDBRANCH   3  12
BRANCH  11  24
ATOM     24  C   UNL     1      -1.140  11.099  21.918  0.00  0.00    +0.000 C 
BRANCH  24  25
ATOM     25  C   UNL     1      -0.924  12.535  22.478  0.00  0.00    +0.000 C 
BRANCH  25  26
ATOM     26  N   UNL     1      -2.124  13.349  22.824  0.00  0.00    +0.000 NA
ATOM     27  C   UNL     1      -2.781  14.059  21.698  0.00  0.00    +0.000 C 
ATOM     28  C   UNL     1      -3.893  15.006  22.210  0.00  0.00    +0.000 C 
ATOM     29  O   UNL     1      -4.888  14.286  22.951  0.00  0.00    +0.000 OA
ATOM     30  C   UNL     1      -4.280  13.608  24.059  0.00  0.00    +0.000 C 
ATOM     31  C   UNL     1      -3.176  12.635  23.586  0.00  0.00    +0.000 C 
ENDBRANCH  25  26
ENDBRANCH  24  25
ENDBRANCH  11  24
TORSDOF 5
ENDMDL
MODEL 5
REMARK VINA RESULT:      -7.8      2.372      4.094
REMARK  Name = 
REMARK  6 active torsions:
REMARK  status: ('A' for Active; 'I' for Inactive)
REMARK    1  A    between atoms: C_1  and  C_2
REMARK    2  A    between atoms: C_3  and  C_4
REMARK    3  A    between atoms: C_4  and  C_6
REMARK    4  A    between atoms: N_23  and  C_24
REMARK    5  A    between atoms: C_24  and  C_25
REMARK    6  A    between atoms: C_25  and  N_26
REMARK                            x       y       z     vdW  Elec       q    Type
REMARK                         _______ _______ _______ _____ _____    ______ ____
ROOT
ATOM      1  C   UNL     1       0.514   8.471  21.569  0.00  0.00    +0.000 C 
ATOM      2  C   UNL     1       1.315   8.106  20.370  0.00  0.00    +0.000 A 
ATOM      3  C   UNL     1       1.706   8.919  19.259  0.00  0.00    +0.000 A 
ATOM      4  C   UNL     1       2.634   8.073  18.518  0.00  0.00    +0.000 A 
ATOM      5  C   UNL     1       3.472   8.273  17.386  0.00  0.00    +0.000 A 
ATOM      6  C   UNL     1       4.204   7.207  16.842  0.00  0.00    +0.000 A 
ATOM      7  C   UNL     1       4.110   5.929  17.383  0.00  0.00    +0.000 A 
ATOM      8 BR   UNL     1       5.051   4.485  16.615  0.00  0.00    +0.000 Br
ATOM      9  C   UNL     1       3.312   5.699  18.496  0.00  0.00    +0.000 A 
ATOM     10  C   UNL     1       2.592   6.776  19.059  0.00  0.00    +0.000 A 
ATOM     11  N   UNL     1       1.758   6.795  20.173  0.00  0.00    +0.000 N 
ENDROOT
BRANCH   3  12
ATOM     12  C   UNL     1       1.137  10.313  18.793  0.00  0.00    +0.000 C 
ATOM     13  O   UNL     1       1.828  11.152  18.196  0.00  0.00    +0.000 OA
BRANCH  12  14
ATOM     14  C   UNL     1      -0.403  10.532  18.973  0.00  0.00    +0.000 A 
ATOM     15  C   UNL     1      -1.059  10.097  17.819  0.00  0.00    +0.000 A 
ATOM     16  C   UNL     1      -2.414  10.016  17.796  0.00  0.00    +0.000 A 
ATOM     17  C   UNL     1      -2.902  11.268  18.116  0.00  0.00    +0.000 A 
ATOM     18  C   UNL     1      -2.456  11.782  19.312  0.00  0.00    +0.000 A 
ATOM     19  C   UNL     1      -3.332  12.732  19.861  0.00  0.00    +0.000 A 
ATOM     20  C   UNL     1      -3.303  13.023  21.209  0.00  0.00    +0.000 A 
ATOM     21  C   UNL     1      -2.312  12.425  21.971  0.00  0.00    +0.000 A 
ATOM     22  C   UNL     1      -1.267  11.644  21.359  0.00  0.00    +0.000 A 
ATOM     23  C   UNL     1      -1.270  11.284  19.945  0.00  0.00    +0.000 A 
ENDBRANCH  12  14
ENDBRANCH   3  12
BRANCH  11  24
ATOM     24  C   UNL     1       1.637   5.573  21.010  0.00  0.00    +0.000 C 
BRANCH  24  25
ATOM     25  C   UNL     1       1.185   4.184  20.470  0.00  0.00    +0.000 C 
BRANCH  25  26
ATOM     26  N   UNL     1       2.162   3.376  19.687  0.00  0.00    +0.000 NA
ATOM     27  C   UNL     1       3.177   2.631  20.474  0.00  0.00    +0.000 C 
ATOM     28  C   UNL     1       4.236   1.985  19.549  0.00  0.00    +0.000 C 
ATOM     29  O   UNL     1       3.627   1.090  18.607  0.00  0.00    +0.000 OA
ATOM     30  C   UNL     1       2.656   1.793  17.819  0.00  0.00    +0.000 C 
ATOM     31  C   UNL     1       1.567   2.436  18.707  0.00  0.00    +0.000 C 
ENDBRANCH  25  26
ENDBRANCH  24  25
ENDBRANCH  11  24
TORSDOF 5
ENDMDL
MODEL 6
REMARK VINA RESULT:      -7.8      3.149      8.648
REMARK  Name = 
REMARK  6 active torsions:
REMARK  status: ('A' for Active; 'I' for Inactive)
REMARK    1  A    between atoms: C_1  and  C_2
REMARK    2  A    between atoms: C_3  and  C_4
REMARK    3  A    between atoms: C_4  and  C_6
REMARK    4  A    between atoms: N_23  and  C_24
REMARK    5  A    between atoms: C_24  and  C_25
REMARK    6  A    between atoms: C_25  and  N_26
REMARK                            x       y       z     vdW  Elec       q    Type
REMARK                         _______ _______ _______ _____ _____    ______ ____
ROOT
ATOM      1  C   UNL     1       1.918   8.622  17.402  0.00  0.00    +0.000 C 
ATOM      2  C   UNL     1       1.338   8.825  18.757  0.00  0.00    +0.000 A 
ATOM      3  C   UNL     1       1.568   8.087  19.961  0.00  0.00    +0.000 A 
ATOM      4  C   UNL     1       0.888   8.873  20.984  0.00  0.00    +0.000 A 
ATOM      5  C   UNL     1       0.797   8.789  22.402  0.00  0.00    +0.000 A 
ATOM      6  C   UNL     1      -0.030   9.667  23.117  0.00  0.00    +0.000 A 
ATOM      7  C   UNL     1      -0.796  10.622  22.456  0.00  0.00    +0.000 A 
ATOM      8 BR   UNL     1      -1.953  11.765  23.414  0.00  0.00    +0.000 Br
ATOM      9  C   UNL     1      -0.723  10.741  21.074  0.00  0.00    +0.000 A 
ATOM     10  C   UNL     1       0.128   9.873  20.354  0.00  0.00    +0.000 A 
ATOM     11  N   UNL     1       0.382   9.818  18.987  0.00  0.00    +0.000 N 
ENDROOT
BRANCH   3  12
ATOM     12  C   UNL     1       2.212   6.661  20.151  0.00  0.00    +0.000 C 
ATOM     13  O   UNL     1       2.359   6.137  21.265  0.00  0.00    +0.000 OA
BRANCH  12  14
ATOM     14  C   UNL     1       2.513   5.854  18.844  0.00  0.00    +0.000 A 
ATOM     15  C   UNL     1       1.555   4.846  18.704  0.00  0.00    +0.000 A 
ATOM     16  C   UNL     1       1.492   4.121  17.558  0.00  0.00    +0.000 A 
ATOM     17  C   UNL     1       2.737   3.553  17.368  0.00  0.00    +0.000 A 
ATOM     18  C   UNL     1       3.787   4.442  17.336  0.00  0.00    +0.000 A 
ATOM     19  C   UNL     1       4.897   3.953  16.626  0.00  0.00    +0.000 A 
ATOM     20  C   UNL     1       5.839   4.817  16.109  0.00  0.00    +0.000 A 
ATOM     21  C   UNL     1       5.705   6.163  16.409  0.00  0.00    +0.000 A 
ATOM     22  C   UNL     1       4.706   6.627  17.339  0.00  0.00    +0.000 A 
ATOM     23  C   UNL     1       3.670   5.760  17.888  0.00  0.00    +0.000 A 
ENDBRANCH  12  14
ENDBRANCH   3  12
BRANCH  11  24
ATOM     24  C   UNL     1      -0.203  10.856  18.098  0.00  0.00    +0.000 C 
BRANCH  24  25
ATOM     25  C   UNL     1      -1.537  10.685  17.314  0.00  0.00    +0.000 C 
BRANCH  25  26
ATOM     26  N   UNL     1      -2.817  10.978  18.020  0.00  0.00    +0.000 NA
ATOM     27  C   UNL     1      -2.836  12.203  18.859  0.00  0.00    +0.000 C 
ATOM     28  C   UNL     1      -4.147  12.297  19.676  0.00  0.00    +0.000 C 
ATOM     29  O   UNL     1      -5.296  12.301  18.818  0.00  0.00    +0.000 OA
ATOM     30  C   UNL     1      -5.310  11.116  18.011  0.00  0.00    +0.000 C 
ATOM     31  C   UNL     1      -4.025  10.996  17.162  0.00  0.00    +0.000 C 
ENDBRANCH  25  26
ENDBRANCH  24  25
ENDBRANCH  11  24
TORSDOF 5
ENDMDL
MODEL 7
REMARK VINA RESULT:      -7.7      3.654      8.519
REMARK  Name = 
REMARK  6 active torsions:
REMARK  status: ('A' for Active; 'I' for Inactive)
REMARK    1  A    between atoms: C_1  and  C_2
REMARK    2  A    between atoms: C_3  and  C_4
REMARK    3  A    between atoms: C_4  and  C_6
REMARK    4  A    between atoms: N_23  and  C_24
REMARK    5  A    between atoms: C_24  and  C_25
REMARK    6  A    between atoms: C_25  and  N_26
REMARK                            x       y       z     vdW  Elec       q    Type
REMARK                         _______ _______ _______ _____ _____    ______ ____
ROOT
ATOM      1  C   UNL     1       1.591   9.634  21.437  0.00  0.00    +0.000 C 
ATOM      2  C   UNL     1       0.652   9.897  20.314  0.00  0.00    +0.000 A 
ATOM      3  C   UNL     1       0.791   9.585  18.924  0.00  0.00    +0.000 A 
ATOM      4  C   UNL     1      -0.519   9.898  18.366  0.00  0.00    +0.000 A 
ATOM      5  C   UNL     1      -1.117   9.733  17.085  0.00  0.00    +0.000 A 
ATOM      6  C   UNL     1      -2.404  10.228  16.828  0.00  0.00    +0.000 A 
ATOM      7  C   UNL     1      -3.113  10.911  17.810  0.00  0.00    +0.000 A 
ATOM      8 BR   UNL     1      -4.821  11.628  17.446  0.00  0.00    +0.000 Br
ATOM      9  C   UNL     1      -2.566  11.080  19.076  0.00  0.00    +0.000 A 
ATOM     10  C   UNL     1      -1.280  10.561  19.343  0.00  0.00    +0.000 A 
ATOM     11  N   UNL     1      -0.545  10.586  20.525  0.00  0.00    +0.000 N 
ENDROOT
BRANCH   3  12
ATOM     12  C   UNL     1       2.085   9.199  18.112  0.00  0.00    +0.000 C 
ATOM     13  O   UNL     1       2.721  10.020  17.436  0.00  0.00    +0.000 OA
BRANCH  12  14
ATOM     14  C   UNL     1       2.635   7.748  18.328  0.00  0.00    +0.000 A 
ATOM     15  C   UNL     1       3.627   7.494  17.377  0.00  0.00    +0.000 A 
ATOM     16  C   UNL     1       4.382   6.370  17.466  0.00  0.00    +0.000 A 
ATOM     17  C   UNL     1       3.514   5.296  17.472  0.00  0.00    +0.000 A 
ATOM     18  C   UNL     1       2.552   5.326  18.456  0.00  0.00    +0.000 A 
ATOM     19  C   UNL     1       2.068   4.050  18.788  0.00  0.00    +0.000 A 
ATOM     20  C   UNL     1       1.461   3.820  20.005  0.00  0.00    +0.000 A 
ATOM     21  C   UNL     1       1.253   4.913  20.832  0.00  0.00    +0.000 A 
ATOM     22  C   UNL     1       1.529   6.254  20.382  0.00  0.00    +0.000 A 
ATOM     23  C   UNL     1       2.198   6.546  19.120  0.00  0.00    +0.000 A 
ENDBRANCH  12  14
ENDBRANCH   3  12
BRANCH  11  24
ATOM     24  C   UNL     1      -1.175  11.123  21.760  0.00  0.00    +0.000 C 
BRANCH  24  25
ATOM     25  C   UNL     1      -0.871  12.528  22.358  0.00  0.00    +0.000 C 
BRANCH  25  26
ATOM     26  N   UNL     1      -0.248  13.554  21.474  0.00  0.00    +0.000 NA
ATOM     27  C   UNL     1      -1.125  14.136  20.427  0.00  0.00    +0.000 C 
ATOM     28  C   UNL     1      -0.319  15.045  19.468  0.00  0.00    +0.000 C 
ATOM     29  O   UNL     1       0.327  16.110  20.180  0.00  0.00    +0.000 OA
ATOM     30  C   UNL     1       1.197  15.571  21.185  0.00  0.00    +0.000 C 
ATOM     31  C   UNL     1       0.424  14.673  22.177  0.00  0.00    +0.000 C 
ENDBRANCH  25  26
ENDBRANCH  24  25
ENDBRANCH  11  24
TORSDOF 5
ENDMDL
MODEL 8
REMARK VINA RESULT:      -7.6      3.360      7.748
REMARK  Name = 
REMARK  6 active torsions:
REMARK  status: ('A' for Active; 'I' for Inactive)
REMARK    1  A    between atoms: C_1  and  C_2
REMARK    2  A    between atoms: C_3  and  C_4
REMARK    3  A    between atoms: C_4  and  C_6
REMARK    4  A    between atoms: N_23  and  C_24
REMARK    5  A    between atoms: C_24  and  C_25
REMARK    6  A    between atoms: C_25  and  N_26
REMARK                            x       y       z     vdW  Elec       q    Type
REMARK                         _______ _______ _______ _____ _____    ______ ____
ROOT
ATOM      1  C   UNL     1       2.167   8.819  17.553  0.00  0.00    +0.000 C 
ATOM      2  C   UNL     1       1.487   8.981  18.866  0.00  0.00    +0.000 A 
ATOM      3  C   UNL     1       1.586   8.174  20.044  0.00  0.00    +0.000 A 
ATOM      4  C   UNL     1       0.857   8.937  21.050  0.00  0.00    +0.000 A 
ATOM      5  C   UNL     1       0.646   8.786  22.449  0.00  0.00    +0.000 A 
ATOM      6  C   UNL     1      -0.200   9.665  23.142  0.00  0.00    +0.000 A 
ATOM      7  C   UNL     1      -0.867  10.686  22.475  0.00  0.00    +0.000 A 
ATOM      8 BR   UNL     1      -2.049  11.832  23.398  0.00  0.00    +0.000 Br
ATOM      9  C   UNL     1      -0.675  10.872  21.111  0.00  0.00    +0.000 A 
ATOM     10  C   UNL     1       0.195  10.002  20.416  0.00  0.00    +0.000 A 
ATOM     11  N   UNL     1       0.558  10.005  19.073  0.00  0.00    +0.000 N 
ENDROOT
BRANCH   3  12
ATOM     12  C   UNL     1       2.150   6.711  20.208  0.00  0.00    +0.000 C 
ATOM     13  O   UNL     1       2.236   6.147  21.308  0.00  0.00    +0.000 OA
BRANCH  12  14
ATOM     14  C   UNL     1       2.450   5.928  18.885  0.00  0.00    +0.000 A 
ATOM     15  C   UNL     1       1.507   4.907  18.740  0.00  0.00    +0.000 A 
ATOM     16  C   UNL     1       1.444   4.199  17.584  0.00  0.00    +0.000 A 
ATOM     17  C   UNL     1       2.695   3.655  17.371  0.00  0.00    +0.000 A 
ATOM     18  C   UNL     1       3.730   4.561  17.341  0.00  0.00    +0.000 A 
ATOM     19  C   UNL     1       4.840   4.103  16.612  0.00  0.00    +0.000 A 
ATOM     20  C   UNL     1       5.762   4.990  16.098  0.00  0.00    +0.000 A 
ATOM     21  C   UNL     1       5.609   6.329  16.420  0.00  0.00    +0.000 A 
ATOM     22  C   UNL     1       4.613   6.762  17.368  0.00  0.00    +0.000 A 
ATOM     23  C   UNL     1       3.597   5.869  17.915  0.00  0.00    +0.000 A 
ENDBRANCH  12  14
ENDBRANCH   3  12
BRANCH  11  24
ATOM     24  C   UNL     1       0.093  11.112  18.197  0.00  0.00    +0.000 C 
BRANCH  24  25
ATOM     25  C   UNL     1       0.325  12.622  18.498  0.00  0.00    +0.000 C 
BRANCH  25  26
ATOM     26  N   UNL     1       1.663  13.047  19.000  0.00  0.00    +0.000 NA
ATOM     27  C   UNL     1       2.419  13.987  18.134  0.00  0.00    +0.000 C 
ATOM     28  C   UNL     1       3.854  14.206  18.671  0.00  0.00    +0.000 C 
ATOM     29  O   UNL     1       3.836  14.717  20.011  0.00  0.00    +0.000 OA
ATOM     30  C   UNL     1       3.128  13.814  20.871  0.00  0.00    +0.000 C 
ATOM     31  C   UNL     1       1.680  13.586  20.380  0.00  0.00    +0.000 C 
ENDBRANCH  25  26
ENDBRANCH  24  25
ENDBRANCH  11  24
TORSDOF 5
ENDMDL
MODEL 9
REMARK VINA RESULT:      -7.6      1.106      1.470
REMARK  Name = 
REMARK  6 active torsions:
REMARK  status: ('A' for Active; 'I' for Inactive)
REMARK    1  A    between atoms: C_1  and  C_2
REMARK    2  A    between atoms: C_3  and  C_4
REMARK    3  A    between atoms: C_4  and  C_6
REMARK    4  A    between atoms: N_23  and  C_24
REMARK    5  A    between atoms: C_24  and  C_25
REMARK    6  A    between atoms: C_25  and  N_26
REMARK                            x       y       z     vdW  Elec       q    Type
REMARK                         _______ _______ _______ _____ _____    ______ ____
ROOT
ATOM      1  C   UNL     1       2.218   9.639  17.820  0.00  0.00    +0.000 C 
ATOM      2  C   UNL     1       2.316   8.379  18.603  0.00  0.00    +0.000 A 
ATOM      3  C   UNL     1       1.658   8.015  19.821  0.00  0.00    +0.000 A 
ATOM      4  C   UNL     1       1.991   6.604  19.986  0.00  0.00    +0.000 A 
ATOM      5  C   UNL     1       1.594   5.593  20.906  0.00  0.00    +0.000 A 
ATOM      6  C   UNL     1       2.173   4.316  20.856  0.00  0.00    +0.000 A 
ATOM      7  C   UNL     1       3.162   4.019  19.924  0.00  0.00    +0.000 A 
ATOM      8 BR   UNL     1       3.981   2.319  19.895  0.00  0.00    +0.000 Br
ATOM      9  C   UNL     1       3.564   4.977  19.002  0.00  0.00    +0.000 A 
ATOM     10  C   UNL     1       2.965   6.256  19.036  0.00  0.00    +0.000 A 
ATOM     11  N   UNL     1       3.184   7.356  18.212  0.00  0.00    +0.000 N 
ENDROOT
BRANCH   3  12
ATOM     12  C   UNL     1       0.920   8.930  20.870  0.00  0.00    +0.000 C 
ATOM     13  O   UNL     1       1.013   8.754  22.093  0.00  0.00    +0.000 OA
BRANCH  12  14
ATOM     14  C   UNL     1       0.185  10.190  20.299  0.00  0.00    +0.000 A 
ATOM     15  C   UNL     1       0.462  11.286  21.120  0.00  0.00    +0.000 A 
ATOM     16  C   UNL     1       0.086  12.533  20.739  0.00  0.00    +0.000 A 
ATOM     17  C   UNL     1      -1.278  12.498  20.523  0.00  0.00    +0.000 A 
ATOM     18  C   UNL     1      -1.704  11.554  19.618  0.00  0.00    +0.000 A 
ATOM     19  C   UNL     1      -2.932  11.881  19.021  0.00  0.00    +0.000 A 
ATOM     20  C   UNL     1      -3.300  11.327  17.813  0.00  0.00    +0.000 A 
ATOM     21  C   UNL     1      -2.465  10.362  17.272  0.00  0.00    +0.000 A 
ATOM     22  C   UNL     1      -1.334   9.854  18.007  0.00  0.00    +0.000 A 
ATOM     23  C   UNL     1      -0.887  10.427  19.271  0.00  0.00    +0.000 A 
ENDBRANCH  12  14
ENDBRANCH   3  12
BRANCH  11  24
ATOM     24  C   UNL     1       4.084   7.215  17.038  0.00  0.00    +0.000 C 
BRANCH  24  25
ATOM     25  C   UNL     1       5.330   6.283  16.996  0.00  0.00    +0.000 C 
BRANCH  25  26
ATOM     26  N   UNL     1       5.704   5.657  15.696  0.00  0.00    +0.000 NA
ATOM     27  C   UNL     1       7.149   5.386  15.491  0.00  0.00    +0.000 C 
ATOM     28  C   UNL     1       7.426   4.910  14.044  0.00  0.00    +0.000 C 
ATOM     29  O   UNL     1       6.681   3.724  13.736  0.00  0.00    +0.000 OA
ATOM     30  C   UNL     1       5.278   3.967  13.907  0.00  0.00    +0.000 C 
ATOM     31  C   UNL     1       4.957   4.425  15.348  0.00  0.00    +0.000 C 
ENDBRANCH  25  26
ENDBRANCH  24  25
ENDBRANCH  11  24
TORSDOF 5
ENDMDL
