MODEL 1
REMARK VINA RESULT:      -7.5      0.000      0.000
REMARK  Name = 
REMARK  6 active torsions:
REMARK  status: ('A' for Active; 'I' for Inactive)
REMARK    1  A    between atoms: C_9  and  N_10
REMARK    2  A    between atoms: N_11  and  N_12
REMARK    3  A    between atoms: N_12  and  C_13
REMARK    4  A    between atoms: N_12  and  C_16
REMARK    5  A    between atoms: C_13  and  C_14
REMARK    6  A    between atoms: C_16  and  C_17
REMARK                            x       y       z     vdW  Elec       q    Type
REMARK                         _______ _______ _______ _____ _____    ______ ____
ROOT
ATOM      1  O   UNL     1       3.746   1.401  18.557  0.00  0.00    +0.000 OA
ATOM      2  C   UNL     1       3.770   2.599  18.316  0.00  0.00    +0.000 C 
ATOM      3  N   UNL     1       4.465   3.111  17.248  0.00  0.00    +0.000 N 
ATOM      4  C   UNL     1       4.547   4.430  16.870  0.00  0.00    +0.000 C 
ATOM      5  O   UNL     1       5.191   4.783  15.892  0.00  0.00    +0.000 OA
ATOM      6  C   UNL     1       3.809   5.402  17.712  0.00  0.00    +0.000 A 
ATOM      7  C   UNL     1       3.840   6.756  17.374  0.00  0.00    +0.000 A 
ATOM      8  C   UNL     1       3.116   7.674  18.132  0.00  0.00    +0.000 A 
ATOM      9  C   UNL     1       2.366   7.262  19.244  0.00  0.00    +0.000 A 
ATOM     10  C   UNL     1       2.352   5.882  19.609  0.00  0.00    +0.000 A 
ATOM     11  C   UNL     1       1.630   5.383  20.719  0.00  0.00    +0.000 A 
ATOM     12  C   UNL     1       1.628   4.027  21.050  0.00  0.00    +0.000 A 
ATOM     13  C   UNL     1       2.329   3.122  20.265  0.00  0.00    +0.000 A 
ATOM     14  C   UNL     1       3.044   3.581  19.157  0.00  0.00    +0.000 A 
ATOM     15  C   UNL     1       3.080   4.948  18.823  0.00  0.00    +0.000 A 
ATOM     16  H   UNL     1       4.955   2.445  16.670  0.00  0.00    +0.000 HD
ENDROOT
BRANCH   9  17
ATOM     17  N   UNL     1       1.558   8.234  19.880  0.00  0.00    +0.000 NA
ATOM     18  N   UNL     1       1.165   9.097  19.074  0.00  0.00    +0.000 NA
BRANCH  18  19
ATOM     19  N   UNL     1       0.464  10.121  19.661  0.00  0.00    +0.000 N 
BRANCH  19  20
ATOM     20  C   UNL     1      -0.419  11.017  18.899  0.00  0.00    +0.000 C 
BRANCH  20  21
ATOM     21  C   UNL     1      -1.796  10.444  18.567  0.00  0.00    +0.000 C 
ATOM     22 CL   UNL     1      -2.023  10.226  16.811  0.00  0.00    +0.000 Cl
ENDBRANCH  20  21
ENDBRANCH  19  20
BRANCH  19  23
ATOM     23  C   UNL     1       0.981  10.572  20.953  0.00  0.00    +0.000 C 
BRANCH  23  24
ATOM     24  C   UNL     1      -0.091  10.828  22.011  0.00  0.00    +0.000 C 
ATOM     25 CL   UNL     1      -0.148   9.559  23.260  0.00  0.00    +0.000 Cl
ENDBRANCH  23  24
ENDBRANCH  19  23
ENDBRANCH  18  19
ENDBRANCH   9  17
TORSDOF 6
ENDMDL
MODEL 2
REMARK VINA RESULT:      -7.4      1.474      1.595
REMARK  Name = 
REMARK  6 active torsions:
REMARK  status: ('A' for Active; 'I' for Inactive)
REMARK    1  A    between atoms: C_9  and  N_10
REMARK    2  A    between atoms: N_11  and  N_12
REMARK    3  A    between atoms: N_12  and  C_13
REMARK    4  A    between atoms: N_12  and  C_16
REMARK    5  A    between atoms: C_13  and  C_14
REMARK    6  A    between atoms: C_16  and  C_17
REMARK                            x       y       z     vdW  Elec       q    Type
REMARK                         _______ _______ _______ _____ _____    ______ ____
ROOT
ATOM      1  O   UNL     1       3.684   1.253  18.467  0.00  0.00    +0.000 OA
ATOM      2  C   UNL     1       3.743   2.454  18.242  0.00  0.00    +0.000 C 
ATOM      3  N   UNL     1       4.474   2.960  17.196  0.00  0.00    +0.000 N 
ATOM      4  C   UNL     1       4.596   4.281  16.836  0.00  0.00    +0.000 C 
ATOM      5  O   UNL     1       5.270   4.630  15.876  0.00  0.00    +0.000 OA
ATOM      6  C   UNL     1       3.865   5.262  17.673  0.00  0.00    +0.000 A 
ATOM      7  C   UNL     1       3.936   6.619  17.352  0.00  0.00    +0.000 A 
ATOM      8  C   UNL     1       3.219   7.545  18.107  0.00  0.00    +0.000 A 
ATOM      9  C   UNL     1       2.435   7.139  19.197  0.00  0.00    +0.000 A 
ATOM     10  C   UNL     1       2.380   5.755  19.545  0.00  0.00    +0.000 A 
ATOM     11  C   UNL     1       1.621   5.262  20.632  0.00  0.00    +0.000 A 
ATOM     12  C   UNL     1       1.578   3.902  20.947  0.00  0.00    +0.000 A 
ATOM     13  C   UNL     1       2.273   2.989  20.166  0.00  0.00    +0.000 A 
ATOM     14  C   UNL     1       3.024   3.443  19.079  0.00  0.00    +0.000 A 
ATOM     15  C   UNL     1       3.100   4.813  18.763  0.00  0.00    +0.000 A 
ATOM     16  H   UNL     1       4.960   2.289  16.619  0.00  0.00    +0.000 HD
ENDROOT
BRANCH   9  17
ATOM     17  N   UNL     1       1.639   8.124  19.828  0.00  0.00    +0.000 NA
ATOM     18  N   UNL     1       1.409   9.080  19.065  0.00  0.00    +0.000 NA
BRANCH  18  19
ATOM     19  N   UNL     1       0.728  10.111  19.663  0.00  0.00    +0.000 N 
BRANCH  19  20
ATOM     20  C   UNL     1       1.253  11.484  19.715  0.00  0.00    +0.000 C 
BRANCH  20  21
ATOM     21  C   UNL     1       1.887  11.986  18.418  0.00  0.00    +0.000 C 
ATOM     22 CL   UNL     1       2.938  13.401  18.694  0.00  0.00    +0.000 Cl
ENDBRANCH  20  21
ENDBRANCH  19  20
BRANCH  19  23
ATOM     23  C   UNL     1      -0.289   9.708  20.635  0.00  0.00    +0.000 C 
BRANCH  23  24
ATOM     24  C   UNL     1      -0.292  10.525  21.926  0.00  0.00    +0.000 C 
ATOM     25 CL   UNL     1      -0.072   9.521  23.382  0.00  0.00    +0.000 Cl
ENDBRANCH  23  24
ENDBRANCH  19  23
ENDBRANCH  18  19
ENDBRANCH   9  17
TORSDOF 6
ENDMDL
MODEL 3
REMARK VINA RESULT:      -7.4      0.958      2.260
REMARK  Name = 
REMARK  6 active torsions:
REMARK  status: ('A' for Active; 'I' for Inactive)
REMARK    1  A    between atoms: C_9  and  N_10
REMARK    2  A    between atoms: N_11  and  N_12
REMARK    3  A    between atoms: N_12  and  C_13
REMARK    4  A    between atoms: N_12  and  C_16
REMARK    5  A    between atoms: C_13  and  C_14
REMARK    6  A    between atoms: C_16  and  C_17
REMARK                            x       y       z     vdW  Elec       q    Type
REMARK                         _______ _______ _______ _____ _____    ______ ____
ROOT
ATOM      1  O   UNL     1       3.554   1.302  18.507  0.00  0.00    +0.000 OA
ATOM      2  C   UNL     1       3.645   2.498  18.269  0.00  0.00    +0.000 C 
ATOM      3  N   UNL     1       4.391   2.975  17.219  0.00  0.00    +0.000 N 
ATOM      4  C   UNL     1       4.549   4.288  16.846  0.00  0.00    +0.000 C 
ATOM      5  O   UNL     1       5.235   4.608  15.884  0.00  0.00    +0.000 OA
ATOM      6  C   UNL     1       3.842   5.296  17.671  0.00  0.00    +0.000 A 
ATOM      7  C   UNL     1       3.950   6.647  17.336  0.00  0.00    +0.000 A 
ATOM      8  C   UNL     1       3.255   7.600  18.078  0.00  0.00    +0.000 A 
ATOM      9  C   UNL     1       2.458   7.226  19.170  0.00  0.00    +0.000 A 
ATOM     10  C   UNL     1       2.365   5.848  19.532  0.00  0.00    +0.000 A 
ATOM     11  C   UNL     1       1.591   5.387  20.623  0.00  0.00    +0.000 A 
ATOM     12  C   UNL     1       1.512   4.032  20.952  0.00  0.00    +0.000 A 
ATOM     13  C   UNL     1       2.184   3.093  20.183  0.00  0.00    +0.000 A 
ATOM     14  C   UNL     1       2.950   3.515  19.093  0.00  0.00    +0.000 A 
ATOM     15  C   UNL     1       3.063   4.879  18.762  0.00  0.00    +0.000 A 
ATOM     16  H   UNL     1       4.861   2.285  16.651  0.00  0.00    +0.000 HD
ENDROOT
BRANCH   9  17
ATOM     17  N   UNL     1       1.686   8.238  19.788  0.00  0.00    +0.000 NA
ATOM     18  N   UNL     1       1.371   9.129  18.977  0.00  0.00    +0.000 NA
BRANCH  18  19
ATOM     19  N   UNL     1       0.710  10.187  19.550  0.00  0.00    +0.000 N 
BRANCH  19  20
ATOM     20  C   UNL     1       0.824  10.512  20.980  0.00  0.00    +0.000 C 
BRANCH  20  21
ATOM     21  C   UNL     1      -0.441  10.274  21.804  0.00  0.00    +0.000 C 
ATOM     22 CL   UNL     1      -0.083   9.486  23.364  0.00  0.00    +0.000 Cl
ENDBRANCH  20  21
ENDBRANCH  19  20
BRANCH  19  23
ATOM     23  C   UNL     1      -0.450  10.678  18.806  0.00  0.00    +0.000 C 
BRANCH  23  24
ATOM     24  C   UNL     1      -0.595  12.198  18.788  0.00  0.00    +0.000 C 
ATOM     25 CL   UNL     1       0.920  13.034  18.363  0.00  0.00    +0.000 Cl
ENDBRANCH  23  24
ENDBRANCH  19  23
ENDBRANCH  18  19
ENDBRANCH   9  17
TORSDOF 6
ENDMDL
MODEL 4
REMARK VINA RESULT:      -7.2      1.617      1.645
REMARK  Name = 
REMARK  6 active torsions:
REMARK  status: ('A' for Active; 'I' for Inactive)
REMARK    1  A    between atoms: C_9  and  N_10
REMARK    2  A    between atoms: N_11  and  N_12
REMARK    3  A    between atoms: N_12  and  C_13
REMARK    4  A    between atoms: N_12  and  C_16
REMARK    5  A    between atoms: C_13  and  C_14
REMARK    6  A    between atoms: C_16  and  C_17
REMARK                            x       y       z     vdW  Elec       q    Type
REMARK                         _______ _______ _______ _____ _____    ______ ____
ROOT
ATOM      1  O   UNL     1       3.683   1.555  18.510  0.00  0.00    +0.000 OA
ATOM      2  C   UNL     1       3.767   2.742  18.229  0.00  0.00    +0.000 C 
ATOM      3  N   UNL     1       4.568   3.190  17.207  0.00  0.00    +0.000 N 
ATOM      4  C   UNL     1       4.725   4.490  16.790  0.00  0.00    +0.000 C 
ATOM      5  O   UNL     1       5.463   4.785  15.859  0.00  0.00    +0.000 OA
ATOM      6  C   UNL     1       3.951   5.517  17.527  0.00  0.00    +0.000 A 
ATOM      7  C   UNL     1       4.056   6.855  17.143  0.00  0.00    +0.000 A 
ATOM      8  C   UNL     1       3.300   7.823  17.801  0.00  0.00    +0.000 A 
ATOM      9  C   UNL     1       2.443   7.477  18.858  0.00  0.00    +0.000 A 
ATOM     10  C   UNL     1       2.353   6.114  19.271  0.00  0.00    +0.000 A 
ATOM     11  C   UNL     1       1.522   5.681  20.331  0.00  0.00    +0.000 A 
ATOM     12  C   UNL     1       1.446   4.340  20.711  0.00  0.00    +0.000 A 
ATOM     13  C   UNL     1       2.181   3.384  20.024  0.00  0.00    +0.000 A 
ATOM     14  C   UNL     1       3.004   3.777  18.966  0.00  0.00    +0.000 A 
ATOM     15  C   UNL     1       3.114   5.128  18.586  0.00  0.00    +0.000 A 
ATOM     16  H   UNL     1       5.084   2.487  16.699  0.00  0.00    +0.000 HD
ENDROOT
BRANCH   9  17
ATOM     17  N   UNL     1       1.617   8.498  19.385  0.00  0.00    +0.000 NA
ATOM     18  N   UNL     1       1.241   9.284  18.495  0.00  0.00    +0.000 NA
BRANCH  18  19
ATOM     19  N   UNL     1       0.522  10.352  18.972  0.00  0.00    +0.000 N 
BRANCH  19  20
ATOM     20  C   UNL     1      -0.947  10.401  18.930  0.00  0.00    +0.000 C 
BRANCH  20  21
ATOM     21  C   UNL     1      -1.561  10.306  17.534  0.00  0.00    +0.000 C 
ATOM     22 CL   UNL     1      -3.174   9.545  17.565  0.00  0.00    +0.000 Cl
ENDBRANCH  20  21
ENDBRANCH  19  20
BRANCH  19  23
ATOM     23  C   UNL     1       1.267  11.606  19.085  0.00  0.00    +0.000 C 
BRANCH  23  24
ATOM     24  C   UNL     1       0.460  12.774  19.650  0.00  0.00    +0.000 C 
ATOM     25 CL   UNL     1       0.177  14.064  18.453  0.00  0.00    +0.000 Cl
ENDBRANCH  23  24
ENDBRANCH  19  23
ENDBRANCH  18  19
ENDBRANCH   9  17
TORSDOF 6
ENDMDL
MODEL 5
REMARK VINA RESULT:      -7.2      0.782      2.163
REMARK  Name = 
REMARK  6 active torsions:
REMARK  status: ('A' for Active; 'I' for Inactive)
REMARK    1  A    between atoms: C_9  and  N_10
REMARK    2  A    between atoms: N_11  and  N_12
REMARK    3  A    between atoms: N_12  and  C_13
REMARK    4  A    between atoms: N_12  and  C_16
REMARK    5  A    between atoms: C_13  and  C_14
REMARK    6  A    between atoms: C_16  and  C_17
REMARK                            x       y       z     vdW  Elec       q    Type
REMARK                         _______ _______ _______ _____ _____    ______ ____
ROOT
ATOM      1  O   UNL     1       3.560   1.108  18.512  0.00  0.00    +0.000 OA
ATOM      2  C   UNL     1       3.688   2.300  18.272  0.00  0.00    +0.000 C 
ATOM      3  N   UNL     1       4.473   2.751  17.239  0.00  0.00    +0.000 N 
ATOM      4  C   UNL     1       4.674   4.058  16.864  0.00  0.00    +0.000 C 
ATOM      5  O   UNL     1       5.392   4.356  15.918  0.00  0.00    +0.000 OA
ATOM      6  C   UNL     1       3.972   5.089  17.666  0.00  0.00    +0.000 A 
ATOM      7  C   UNL     1       4.124   6.435  17.327  0.00  0.00    +0.000 A 
ATOM      8  C   UNL     1       3.436   7.409  18.047  0.00  0.00    +0.000 A 
ATOM      9  C   UNL     1       2.602   7.062  19.121  0.00  0.00    +0.000 A 
ATOM     10  C   UNL     1       2.464   5.689  19.487  0.00  0.00    +0.000 A 
ATOM     11  C   UNL     1       1.651   5.253  20.559  0.00  0.00    +0.000 A 
ATOM     12  C   UNL     1       1.528   3.903  20.892  0.00  0.00    +0.000 A 
ATOM     13  C   UNL     1       2.195   2.942  20.145  0.00  0.00    +0.000 A 
ATOM     14  C   UNL     1       2.998   3.339  19.073  0.00  0.00    +0.000 A 
ATOM     15  C   UNL     1       3.156   4.698  18.739  0.00  0.00    +0.000 A 
ATOM     16  H   UNL     1       4.938   2.046  16.687  0.00  0.00    +0.000 HD
ENDROOT
BRANCH   9  17
ATOM     17  N   UNL     1       1.841   8.097  19.714  0.00  0.00    +0.000 NA
ATOM     18  N   UNL     1       1.608   9.012  18.903  0.00  0.00    +0.000 NA
BRANCH  18  19
ATOM     19  N   UNL     1       0.962  10.089  19.459  0.00  0.00    +0.000 N 
BRANCH  19  20
ATOM     20  C   UNL     1       0.872  10.295  20.912  0.00  0.00    +0.000 C 
BRANCH  20  21
ATOM     21  C   UNL     1      -0.545  10.277  21.485  0.00  0.00    +0.000 C 
ATOM     22 CL   UNL     1      -1.109  11.913  21.920  0.00  0.00    +0.000 Cl
ENDBRANCH  20  21
ENDBRANCH  19  20
BRANCH  19  23
ATOM     23  C   UNL     1      -0.012  10.750  18.590  0.00  0.00    +0.000 C 
BRANCH  23  24
ATOM     24  C   UNL     1      -0.920   9.797  17.814  0.00  0.00    +0.000 C 
ATOM     25 CL   UNL     1      -2.595  10.391  17.680  0.00  0.00    +0.000 Cl
ENDBRANCH  23  24
ENDBRANCH  19  23
ENDBRANCH  18  19
ENDBRANCH   9  17
TORSDOF 6
ENDMDL
MODEL 6
REMARK VINA RESULT:      -7.1      1.509      2.098
REMARK  Name = 
REMARK  6 active torsions:
REMARK  status: ('A' for Active; 'I' for Inactive)
REMARK    1  A    between atoms: C_9  and  N_10
REMARK    2  A    between atoms: N_11  and  N_12
REMARK    3  A    between atoms: N_12  and  C_13
REMARK    4  A    between atoms: N_12  and  C_16
REMARK    5  A    between atoms: C_13  and  C_14
REMARK    6  A    between atoms: C_16  and  C_17
REMARK                            x       y       z     vdW  Elec       q    Type
REMARK                         _______ _______ _______ _____ _____    ______ ____
ROOT
ATOM      1  O   UNL     1       3.977   1.601  18.923  0.00  0.00    +0.000 OA
ATOM      2  C   UNL     1       3.992   2.765  18.548  0.00  0.00    +0.000 C 
ATOM      3  N   UNL     1       4.721   3.166  17.455  0.00  0.00    +0.000 N 
ATOM      4  C   UNL     1       4.796   4.435  16.932  0.00  0.00    +0.000 C 
ATOM      5  O   UNL     1       5.474   4.688  15.945  0.00  0.00    +0.000 OA
ATOM      6  C   UNL     1       4.010   5.481  17.628  0.00  0.00    +0.000 A 
ATOM      7  C   UNL     1       4.033   6.788  17.138  0.00  0.00    +0.000 A 
ATOM      8  C   UNL     1       3.264   7.772  17.759  0.00  0.00    +0.000 A 
ATOM      9  C   UNL     1       2.477   7.473  18.882  0.00  0.00    +0.000 A 
ATOM     10  C   UNL     1       2.471   6.144  19.401  0.00  0.00    +0.000 A 
ATOM     11  C   UNL     1       1.713   5.760  20.532  0.00  0.00    +0.000 A 
ATOM     12  C   UNL     1       1.719   4.450  21.017  0.00  0.00    +0.000 A 
ATOM     13  C   UNL     1       2.465   3.476  20.368  0.00  0.00    +0.000 A 
ATOM     14  C   UNL     1       3.217   3.821  19.242  0.00  0.00    +0.000 A 
ATOM     15  C   UNL     1       3.244   5.141  18.755  0.00  0.00    +0.000 A 
ATOM     16  H   UNL     1       5.244   2.449  16.975  0.00  0.00    +0.000 HD
ENDROOT
BRANCH   9  17
ATOM     17  N   UNL     1       1.630   8.495  19.371  0.00  0.00    +0.000 NA
ATOM     18  N   UNL     1       1.532   9.434  18.559  0.00  0.00    +0.000 NA
BRANCH  18  19
ATOM     19  N   UNL     1       0.805  10.497  19.031  0.00  0.00    +0.000 N 
BRANCH  19  20
ATOM     20  C   UNL     1       1.424  11.777  19.406  0.00  0.00    +0.000 C 
BRANCH  20  21
ATOM     21  C   UNL     1       1.219  12.916  18.408  0.00  0.00    +0.000 C 
ATOM     22 CL   UNL     1       0.057  14.129  19.009  0.00  0.00    +0.000 Cl
ENDBRANCH  20  21
ENDBRANCH  19  20
BRANCH  19  23
ATOM     23  C   UNL     1      -0.509  10.162  19.581  0.00  0.00    +0.000 C 
BRANCH  23  24
ATOM     24  C   UNL     1      -1.689  10.595  18.712  0.00  0.00    +0.000 C 
ATOM     25 CL   UNL     1      -1.648   9.878  17.081  0.00  0.00    +0.000 Cl
ENDBRANCH  23  24
ENDBRANCH  19  23
ENDBRANCH  18  19
ENDBRANCH   9  17
TORSDOF 6
ENDMDL
MODEL 7
REMARK VINA RESULT:      -7.1      1.058      1.084
REMARK  Name = 
REMARK  6 active torsions:
REMARK  status: ('A' for Active; 'I' for Inactive)
REMARK    1  A    between atoms: C_9  and  N_10
REMARK    2  A    between atoms: N_11  and  N_12
REMARK    3  A    between atoms: N_12  and  C_13
REMARK    4  A    between atoms: N_12  and  C_16
REMARK    5  A    between atoms: C_13  and  C_14
REMARK    6  A    between atoms: C_16  and  C_17
REMARK                            x       y       z     vdW  Elec       q    Type
REMARK                         _______ _______ _______ _____ _____    ______ ____
ROOT
ATOM      1  O   UNL     1       4.752   2.166  20.071  0.00  0.00    +0.000 OA
ATOM      2  C   UNL     1       4.693   3.229  19.470  0.00  0.00    +0.000 C 
ATOM      3  N   UNL     1       5.603   3.565  18.498  0.00  0.00    +0.000 N 
ATOM      4  C   UNL     1       5.625   4.716  17.747  0.00  0.00    +0.000 C 
ATOM      5  O   UNL     1       6.481   4.916  16.896  0.00  0.00    +0.000 OA
ATOM      6  C   UNL     1       4.552   5.701  18.022  0.00  0.00    +0.000 A 
ATOM      7  C   UNL     1       4.509   6.885  17.283  0.00  0.00    +0.000 A 
ATOM      8  C   UNL     1       3.480   7.799  17.503  0.00  0.00    +0.000 A 
ATOM      9  C   UNL     1       2.492   7.557  18.469  0.00  0.00    +0.000 A 
ATOM     10  C   UNL     1       2.547   6.360  19.245  0.00  0.00    +0.000 A 
ATOM     11  C   UNL     1       1.596   6.043  20.244  0.00  0.00    +0.000 A 
ATOM     12  C   UNL     1       1.668   4.861  20.984  0.00  0.00    +0.000 A 
ATOM     13  C   UNL     1       2.681   3.946  20.730  0.00  0.00    +0.000 A 
ATOM     14  C   UNL     1       3.630   4.226  19.744  0.00  0.00    +0.000 A 
ATOM     15  C   UNL     1       3.589   5.424  19.006  0.00  0.00    +0.000 A 
ATOM     16  H   UNL     1       6.325   2.886  18.304  0.00  0.00    +0.000 HD
ENDROOT
BRANCH   9  17
ATOM     17  N   UNL     1       1.414   8.471  18.539  0.00  0.00    +0.000 NA
ATOM     18  N   UNL     1       1.655   9.399  19.334  0.00  0.00    +0.000 NA
BRANCH  18  19
ATOM     19  N   UNL     1       0.599  10.257  19.516  0.00  0.00    +0.000 N 
BRANCH  19  20
ATOM     20  C   UNL     1       0.119  11.160  18.459  0.00  0.00    +0.000 C 
BRANCH  20  21
ATOM     21  C   UNL     1      -1.398  11.202  18.279  0.00  0.00    +0.000 C 
ATOM     22 CL   UNL     1      -1.998   9.808  17.341  0.00  0.00    +0.000 Cl
ENDBRANCH  20  21
ENDBRANCH  19  20
BRANCH  19  23
ATOM     23  C   UNL     1       0.280  10.570  20.909  0.00  0.00    +0.000 C 
BRANCH  23  24
ATOM     24  C   UNL     1      -0.174   9.371  21.741  0.00  0.00    +0.000 C 
ATOM     25 CL   UNL     1      -0.614   9.814  23.410  0.00  0.00    +0.000 Cl
ENDBRANCH  23  24
ENDBRANCH  19  23
ENDBRANCH  18  19
ENDBRANCH   9  17
TORSDOF 6
ENDMDL
MODEL 8
REMARK VINA RESULT:      -7.0      1.505      1.967
REMARK  Name = 
REMARK  6 active torsions:
REMARK  status: ('A' for Active; 'I' for Inactive)
REMARK    1  A    between atoms: C_9  and  N_10
REMARK    2  A    between atoms: N_11  and  N_12
REMARK    3  A    between atoms: N_12  and  C_13
REMARK    4  A    between atoms: N_12  and  C_16
REMARK    5  A    between atoms: C_13  and  C_14
REMARK    6  A    between atoms: C_16  and  C_17
REMARK                            x       y       z     vdW  Elec       q    Type
REMARK                         _______ _______ _______ _____ _____    ______ ____
ROOT
ATOM      1  O   UNL     1       3.539   1.190  18.746  0.00  0.00    +0.000 OA
ATOM      2  C   UNL     1       3.706   2.345  18.382  0.00  0.00    +0.000 C 
ATOM      3  N   UNL     1       4.531   2.662  17.331  0.00  0.00    +0.000 N 
ATOM      4  C   UNL     1       4.779   3.915  16.823  0.00  0.00    +0.000 C 
ATOM      5  O   UNL     1       5.531   4.090  15.874  0.00  0.00    +0.000 OA
ATOM      6  C   UNL     1       4.083   5.043  17.486  0.00  0.00    +0.000 A 
ATOM      7  C   UNL     1       4.281   6.340  17.009  0.00  0.00    +0.000 A 
ATOM      8  C   UNL     1       3.599   7.404  17.597  0.00  0.00    +0.000 A 
ATOM      9  C   UNL     1       2.726   7.195  18.676  0.00  0.00    +0.000 A 
ATOM     10  C   UNL     1       2.540   5.874  19.184  0.00  0.00    +0.000 A 
ATOM     11  C   UNL     1       1.686   5.578  20.272  0.00  0.00    +0.000 A 
ATOM     12  C   UNL     1       1.517   4.275  20.745  0.00  0.00    +0.000 A 
ATOM     13  C   UNL     1       2.179   3.223  20.127  0.00  0.00    +0.000 A 
ATOM     14  C   UNL     1       3.022   3.481  19.045  0.00  0.00    +0.000 A 
ATOM     15  C   UNL     1       3.226   4.791  18.570  0.00  0.00    +0.000 A 
ATOM     16  H   UNL     1       4.993   1.890  16.873  0.00  0.00    +0.000 HD
ENDROOT
BRANCH   9  17
ATOM     17  N   UNL     1       1.977   8.307  19.129  0.00  0.00    +0.000 NA
ATOM     18  N   UNL     1       1.835   9.158  18.232  0.00  0.00    +0.000 NA
BRANCH  18  19
ATOM     19  N   UNL     1       1.205  10.303  18.652  0.00  0.00    +0.000 N 
BRANCH  19  20
ATOM     20  C   UNL     1      -0.255  10.397  18.794  0.00  0.00    +0.000 C 
BRANCH  20  21
ATOM     21  C   UNL     1      -0.772  10.364  20.232  0.00  0.00    +0.000 C 
ATOM     22 CL   UNL     1       0.559  10.309  21.418  0.00  0.00    +0.000 Cl
ENDBRANCH  20  21
ENDBRANCH  19  20
BRANCH  19  23
ATOM     23  C   UNL     1       1.981  11.534  18.502  0.00  0.00    +0.000 C 
BRANCH  23  24
ATOM     24  C   UNL     1       1.149  12.816  18.536  0.00  0.00    +0.000 C 
ATOM     25 CL   UNL     1       1.149  13.598  20.137  0.00  0.00    +0.000 Cl
ENDBRANCH  23  24
ENDBRANCH  19  23
ENDBRANCH  18  19
ENDBRANCH   9  17
TORSDOF 6
ENDMDL
MODEL 9
REMARK VINA RESULT:      -6.9      1.614      1.742
REMARK  Name = 
REMARK  6 active torsions:
REMARK  status: ('A' for Active; 'I' for Inactive)
REMARK    1  A    between atoms: C_9  and  N_10
REMARK    2  A    between atoms: N_11  and  N_12
REMARK    3  A    between atoms: N_12  and  C_13
REMARK    4  A    between atoms: N_12  and  C_16
REMARK    5  A    between atoms: C_13  and  C_14
REMARK    6  A    between atoms: C_16  and  C_17
REMARK                            x       y       z     vdW  Elec       q    Type
REMARK                         _______ _______ _______ _____ _____    ______ ____
ROOT
ATOM      1  O   UNL     1       4.754   2.186  20.193  0.00  0.00    +0.000 OA
ATOM      2  C   UNL     1       4.721   3.230  19.558  0.00  0.00    +0.000 C 
ATOM      3  N   UNL     1       5.664   3.530  18.606  0.00  0.00    +0.000 N 
ATOM      4  C   UNL     1       5.717   4.656  17.821  0.00  0.00    +0.000 C 
ATOM      5  O   UNL     1       6.602   4.826  16.992  0.00  0.00    +0.000 OA
ATOM      6  C   UNL     1       4.642   5.656  18.031  0.00  0.00    +0.000 A 
ATOM      7  C   UNL     1       4.631   6.816  17.254  0.00  0.00    +0.000 A 
ATOM      8  C   UNL     1       3.602   7.743  17.413  0.00  0.00    +0.000 A 
ATOM      9  C   UNL     1       2.581   7.536  18.354  0.00  0.00    +0.000 A 
ATOM     10  C   UNL     1       2.603   6.364  19.168  0.00  0.00    +0.000 A 
ATOM     11  C   UNL     1       1.620   6.083  20.145  0.00  0.00    +0.000 A 
ATOM     12  C   UNL     1       1.660   4.925  20.923  0.00  0.00    +0.000 A 
ATOM     13  C   UNL     1       2.675   3.997  20.730  0.00  0.00    +0.000 A 
ATOM     14  C   UNL     1       3.656   4.240  19.767  0.00  0.00    +0.000 A 
ATOM     15  C   UNL     1       3.646   5.415  18.991  0.00  0.00    +0.000 A 
ATOM     16  H   UNL     1       6.387   2.842  18.457  0.00  0.00    +0.000 HD
ENDROOT
BRANCH   9  17
ATOM     17  N   UNL     1       1.508   8.458  18.361  0.00  0.00    +0.000 NA
ATOM     18  N   UNL     1       1.571   9.223  19.341  0.00  0.00    +0.000 NA
BRANCH  18  19
ATOM     19  N   UNL     1       0.495  10.069  19.450  0.00  0.00    +0.000 N 
BRANCH  19  20
ATOM     20  C   UNL     1       0.347  11.274  18.621  0.00  0.00    +0.000 C 
BRANCH  20  21
ATOM     21  C   UNL     1       1.115  12.500  19.113  0.00  0.00    +0.000 C 
ATOM     22 CL   UNL     1       2.463  12.925  18.025  0.00  0.00    +0.000 Cl
ENDBRANCH  20  21
ENDBRANCH  19  20
BRANCH  19  23
ATOM     23  C   UNL     1      -0.240   9.986  20.712  0.00  0.00    +0.000 C 
BRANCH  23  24
ATOM     24  C   UNL     1       0.642   9.972  21.960  0.00  0.00    +0.000 C 
ATOM     25 CL   UNL     1      -0.233   9.446  23.420  0.00  0.00    +0.000 Cl
ENDBRANCH  23  24
ENDBRANCH  19  23
ENDBRANCH  18  19
ENDBRANCH   9  17
TORSDOF 6
ENDMDL
