MODEL 1
REMARK VINA RESULT:      -7.0      0.000      0.000
REMARK  Name = 
REMARK  6 active torsions:
REMARK  status: ('A' for Active; 'I' for Inactive)
REMARK    1  A    between atoms: C_1  and  N_2
REMARK    2  A    between atoms: N_2  and  C_3
REMARK    3  A    between atoms: N_2  and  C_4
REMARK    4  A    between atoms: C_4  and  C_5
REMARK    5  A    between atoms: C_5  and  C_6
REMARK    6  A    between atoms: C_10  and  C_11
REMARK                            x       y       z     vdW  Elec       q    Type
REMARK                         _______ _______ _______ _____ _____    ______ ____
ROOT
ATOM      1  C   UNL     1       5.856   5.400  16.195  0.00  0.00    +0.000 C 
ATOM      2  C   UNL     1       5.897   5.228  14.664  0.00  0.00    +0.000 C 
ATOM      3  C   UNL     1       4.704   6.390  16.562  0.00  0.00    +0.000 C 
ATOM      4  C   UNL     1       3.732   5.884  17.586  0.00  0.00    +0.000 C 
ATOM      5  O   UNL     1       2.829   6.634  17.919  0.00  0.00    +0.000 OA
ATOM      6  C   UNL     1       3.769   4.473  18.064  0.00  0.00    +0.000 C 
ATOM      7  C   UNL     1       4.726   3.673  17.553  0.00  0.00    +0.000 C 
ATOM      8  O   UNL     1       5.679   4.121  16.702  0.00  0.00    +0.000 OA
ENDROOT
BRANCH   6   9
ATOM      9  C   UNL     1       2.796   3.931  19.082  0.00  0.00    +0.000 A 
ATOM     10  C   UNL     1       1.620   3.244  18.689  0.00  0.00    +0.000 A 
ATOM     11  C   UNL     1       0.710   2.775  19.639  0.00  0.00    +0.000 A 
ATOM     12  C   UNL     1       0.947   2.972  20.998  0.00  0.00    +0.000 A 
ATOM     13  C   UNL     1       2.096   3.641  21.413  0.00  0.00    +0.000 A 
ATOM     14  C   UNL     1       3.007   4.120  20.471  0.00  0.00    +0.000 A 
ENDBRANCH   6   9
BRANCH   1  15
ATOM     15  C   UNL     1       7.238   5.962  16.666  0.00  0.00    +0.000 C 
BRANCH  15  17
ATOM     16  C   UNL     1       7.875   6.004  19.060  0.00  0.00    +0.000 C 
ATOM     17  N   UNL     1       7.225   6.720  17.949  0.00  0.00    +0.000 NA
ATOM     18  C   UNL     1       7.931   8.001  17.753  0.00  0.00    +0.000 C 
ENDBRANCH  15  17
ENDBRANCH   1  15
TORSDOF 3
ENDMDL
MODEL 2
REMARK VINA RESULT:      -7.0      0.085      1.140
REMARK  Name = 
REMARK  6 active torsions:
REMARK  status: ('A' for Active; 'I' for Inactive)
REMARK    1  A    between atoms: C_1  and  N_2
REMARK    2  A    between atoms: N_2  and  C_3
REMARK    3  A    between atoms: N_2  and  C_4
REMARK    4  A    between atoms: C_4  and  C_5
REMARK    5  A    between atoms: C_5  and  C_6
REMARK    6  A    between atoms: C_10  and  C_11
REMARK                            x       y       z     vdW  Elec       q    Type
REMARK                         _______ _______ _______ _____ _____    ______ ____
ROOT
ATOM      1  C   UNL     1       5.809   5.431  16.213  0.00  0.00    +0.000 C 
ATOM      2  C   UNL     1       5.831   5.251  14.682  0.00  0.00    +0.000 C 
ATOM      3  C   UNL     1       4.667   6.429  16.587  0.00  0.00    +0.000 C 
ATOM      4  C   UNL     1       3.704   5.934  17.625  0.00  0.00    +0.000 C 
ATOM      5  O   UNL     1       2.809   6.691  17.964  0.00  0.00    +0.000 OA
ATOM      6  C   UNL     1       3.739   4.526  18.111  0.00  0.00    +0.000 C 
ATOM      7  C   UNL     1       4.686   3.717  17.592  0.00  0.00    +0.000 C 
ATOM      8  O   UNL     1       5.631   4.156  16.728  0.00  0.00    +0.000 OA
ENDROOT
BRANCH   6   9
ATOM      9  C   UNL     1       2.775   3.994  19.142  0.00  0.00    +0.000 A 
ATOM     10  C   UNL     1       3.061   4.064  20.529  0.00  0.00    +0.000 A 
ATOM     11  C   UNL     1       2.176   3.539  21.473  0.00  0.00    +0.000 A 
ATOM     12  C   UNL     1       0.987   2.938  21.065  0.00  0.00    +0.000 A 
ATOM     13  C   UNL     1       0.679   2.857  19.710  0.00  0.00    +0.000 A 
ATOM     14  C   UNL     1       1.560   3.371  18.758  0.00  0.00    +0.000 A 
ENDBRANCH   6   9
BRANCH   1  15
ATOM     15  C   UNL     1       7.199   5.988  16.664  0.00  0.00    +0.000 C 
BRANCH  15  17
ATOM     16  C   UNL     1       7.832   5.964  19.059  0.00  0.00    +0.000 C 
ATOM     17  N   UNL     1       7.212   6.724  17.960  0.00  0.00    +0.000 NA
ATOM     18  C   UNL     1       7.966   7.981  17.788  0.00  0.00    +0.000 C 
ENDBRANCH  15  17
ENDBRANCH   1  15
TORSDOF 3
ENDMDL
MODEL 3
REMARK VINA RESULT:      -6.8      1.726      3.068
REMARK  Name = 
REMARK  6 active torsions:
REMARK  status: ('A' for Active; 'I' for Inactive)
REMARK    1  A    between atoms: C_1  and  N_2
REMARK    2  A    between atoms: N_2  and  C_3
REMARK    3  A    between atoms: N_2  and  C_4
REMARK    4  A    between atoms: C_4  and  C_5
REMARK    5  A    between atoms: C_5  and  C_6
REMARK    6  A    between atoms: C_10  and  C_11
REMARK                            x       y       z     vdW  Elec       q    Type
REMARK                         _______ _______ _______ _____ _____    ______ ____
ROOT
ATOM      1  C   UNL     1       6.606   5.532  16.806  0.00  0.00    +0.000 C 
ATOM      2  C   UNL     1       7.303   6.897  16.970  0.00  0.00    +0.000 C 
ATOM      3  C   UNL     1       6.746   4.730  18.140  0.00  0.00    +0.000 C 
ATOM      4  C   UNL     1       5.460   4.205  18.704  0.00  0.00    +0.000 C 
ATOM      5  O   UNL     1       5.526   3.553  19.733  0.00  0.00    +0.000 OA
ATOM      6  C   UNL     1       4.141   4.590  18.127  0.00  0.00    +0.000 C 
ATOM      7  C   UNL     1       4.151   5.416  17.061  0.00  0.00    +0.000 C 
ATOM      8  O   UNL     1       5.294   5.830  16.466  0.00  0.00    +0.000 OA
ENDROOT
BRANCH   6   9
ATOM      9  C   UNL     1       2.830   4.091  18.682  0.00  0.00    +0.000 A 
ATOM     10  C   UNL     1       2.224   4.699  19.810  0.00  0.00    +0.000 A 
ATOM     11  C   UNL     1       1.027   4.207  20.335  0.00  0.00    +0.000 A 
ATOM     12  C   UNL     1       0.401   3.107  19.752  0.00  0.00    +0.000 A 
ATOM     13  C   UNL     1       0.973   2.491  18.641  0.00  0.00    +0.000 A 
ATOM     14  C   UNL     1       2.173   2.970  18.114  0.00  0.00    +0.000 A 
ENDBRANCH   6   9
BRANCH   1  15
ATOM     15  C   UNL     1       7.291   4.767  15.627  0.00  0.00    +0.000 C 
BRANCH  15  17
ATOM     16  C   UNL     1       7.847   5.404  13.298  0.00  0.00    +0.000 C 
ATOM     17  N   UNL     1       6.780   5.087  14.264  0.00  0.00    +0.000 NA
ATOM     18  C   UNL     1       6.027   3.927  13.752  0.00  0.00    +0.000 C 
ENDBRANCH  15  17
ENDBRANCH   1  15
TORSDOF 3
ENDMDL
MODEL 4
REMARK VINA RESULT:      -6.7      2.382      6.405
REMARK  Name = 
REMARK  6 active torsions:
REMARK  status: ('A' for Active; 'I' for Inactive)
REMARK    1  A    between atoms: C_1  and  N_2
REMARK    2  A    between atoms: N_2  and  C_3
REMARK    3  A    between atoms: N_2  and  C_4
REMARK    4  A    between atoms: C_4  and  C_5
REMARK    5  A    between atoms: C_5  and  C_6
REMARK    6  A    between atoms: C_10  and  C_11
REMARK                            x       y       z     vdW  Elec       q    Type
REMARK                         _______ _______ _______ _____ _____    ______ ____
ROOT
ATOM      1  C   UNL     1       3.948   4.922  18.206  0.00  0.00    +0.000 C 
ATOM      2  C   UNL     1       4.535   5.053  19.625  0.00  0.00    +0.000 C 
ATOM      3  C   UNL     1       4.238   6.239  17.416  0.00  0.00    +0.000 C 
ATOM      4  C   UNL     1       4.905   6.048  16.086  0.00  0.00    +0.000 C 
ATOM      5  O   UNL     1       5.129   7.049  15.425  0.00  0.00    +0.000 OA
ATOM      6  C   UNL     1       5.414   4.716  15.653  0.00  0.00    +0.000 C 
ATOM      7  C   UNL     1       5.234   3.682  16.499  0.00  0.00    +0.000 C 
ATOM      8  O   UNL     1       4.551   3.797  17.662  0.00  0.00    +0.000 OA
ENDROOT
BRANCH   6   9
ATOM      9  C   UNL     1       6.101   4.497  14.328  0.00  0.00    +0.000 A 
ATOM     10  C   UNL     1       7.282   5.200  13.981  0.00  0.00    +0.000 A 
ATOM     11  C   UNL     1       7.891   5.013  12.739  0.00  0.00    +0.000 A 
ATOM     12  C   UNL     1       7.349   4.121  11.815  0.00  0.00    +0.000 A 
ATOM     13  C   UNL     1       6.191   3.414  12.131  0.00  0.00    +0.000 A 
ATOM     14  C   UNL     1       5.570   3.600  13.366  0.00  0.00    +0.000 A 
ENDBRANCH   6   9
BRANCH   1  15
ATOM     15  C   UNL     1       2.408   4.681  18.330  0.00  0.00    +0.000 C 
BRANCH  15  17
ATOM     16  C   UNL     1       0.992   4.113  20.282  0.00  0.00    +0.000 C 
ATOM     17  N   UNL     1       1.992   3.638  19.310  0.00  0.00    +0.000 NA
ATOM     18  C   UNL     1       1.414   2.497  18.576  0.00  0.00    +0.000 C 
ENDBRANCH  15  17
ENDBRANCH   1  15
TORSDOF 3
ENDMDL
MODEL 5
REMARK VINA RESULT:      -6.6      1.633      2.873
REMARK  Name = 
REMARK  6 active torsions:
REMARK  status: ('A' for Active; 'I' for Inactive)
REMARK    1  A    between atoms: C_1  and  N_2
REMARK    2  A    between atoms: N_2  and  C_3
REMARK    3  A    between atoms: N_2  and  C_4
REMARK    4  A    between atoms: C_4  and  C_5
REMARK    5  A    between atoms: C_5  and  C_6
REMARK    6  A    between atoms: C_10  and  C_11
REMARK                            x       y       z     vdW  Elec       q    Type
REMARK                         _______ _______ _______ _____ _____    ______ ____
ROOT
ATOM      1  C   UNL     1       6.614   6.084  17.115  0.00  0.00    +0.000 C 
ATOM      2  C   UNL     1       7.280   7.432  17.450  0.00  0.00    +0.000 C 
ATOM      3  C   UNL     1       6.793   5.116  18.328  0.00  0.00    +0.000 C 
ATOM      4  C   UNL     1       5.528   4.488  18.833  0.00  0.00    +0.000 C 
ATOM      5  O   UNL     1       5.626   3.707  19.765  0.00  0.00    +0.000 OA
ATOM      6  C   UNL     1       4.193   4.912  18.327  0.00  0.00    +0.000 C 
ATOM      7  C   UNL     1       4.167   5.872  17.380  0.00  0.00    +0.000 C 
ATOM      8  O   UNL     1       5.290   6.390  16.833  0.00  0.00    +0.000 OA
ENDROOT
BRANCH   6   9
ATOM      9  C   UNL     1       2.902   4.309  18.826  0.00  0.00    +0.000 A 
ATOM     10  C   UNL     1       2.257   3.258  18.128  0.00  0.00    +0.000 A 
ATOM     11  C   UNL     1       1.046   2.731  18.582  0.00  0.00    +0.000 A 
ATOM     12  C   UNL     1       0.450   3.229  19.739  0.00  0.00    +0.000 A 
ATOM     13  C   UNL     1       1.063   4.260  20.447  0.00  0.00    +0.000 A 
ATOM     14  C   UNL     1       2.269   4.799  19.997  0.00  0.00    +0.000 A 
ENDBRANCH   6   9
BRANCH   1  15
ATOM     15  C   UNL     1       7.299   5.499  15.836  0.00  0.00    +0.000 C 
BRANCH  15  17
ATOM     16  C   UNL     1       6.973   4.844  13.469  0.00  0.00    +0.000 C 
ATOM     17  N   UNL     1       6.380   4.920  14.816  0.00  0.00    +0.000 NA
ATOM     18  C   UNL     1       6.006   3.555  15.231  0.00  0.00    +0.000 C 
ENDBRANCH  15  17
ENDBRANCH   1  15
TORSDOF 3
ENDMDL
MODEL 6
REMARK VINA RESULT:      -6.5      2.485      6.218
REMARK  Name = 
REMARK  6 active torsions:
REMARK  status: ('A' for Active; 'I' for Inactive)
REMARK    1  A    between atoms: C_1  and  N_2
REMARK    2  A    between atoms: N_2  and  C_3
REMARK    3  A    between atoms: N_2  and  C_4
REMARK    4  A    between atoms: C_4  and  C_5
REMARK    5  A    between atoms: C_5  and  C_6
REMARK    6  A    between atoms: C_10  and  C_11
REMARK                            x       y       z     vdW  Elec       q    Type
REMARK                         _______ _______ _______ _____ _____    ______ ____
ROOT
ATOM      1  C   UNL     1       4.732   4.337  18.625  0.00  0.00    +0.000 C 
ATOM      2  C   UNL     1       4.347   3.142  19.520  0.00  0.00    +0.000 C 
ATOM      3  C   UNL     1       6.288   4.389  18.494  0.00  0.00    +0.000 C 
ATOM      4  C   UNL     1       6.805   4.442  17.087  0.00  0.00    +0.000 C 
ATOM      5  O   UNL     1       8.015   4.507  16.938  0.00  0.00    +0.000 OA
ATOM      6  C   UNL     1       5.900   4.267  15.917  0.00  0.00    +0.000 C 
ATOM      7  C   UNL     1       4.590   4.077  16.172  0.00  0.00    +0.000 C 
ATOM      8  O   UNL     1       4.074   4.121  17.423  0.00  0.00    +0.000 OA
ENDROOT
BRANCH   6   9
ATOM      9  C   UNL     1       6.393   4.301  14.491  0.00  0.00    +0.000 A 
ATOM     10  C   UNL     1       7.390   5.218  14.073  0.00  0.00    +0.000 A 
ATOM     11  C   UNL     1       7.814   5.262  12.744  0.00  0.00    +0.000 A 
ATOM     12  C   UNL     1       7.267   4.396  11.800  0.00  0.00    +0.000 A 
ATOM     13  C   UNL     1       6.288   3.481  12.183  0.00  0.00    +0.000 A 
ATOM     14  C   UNL     1       5.851   3.435  13.507  0.00  0.00    +0.000 A 
ENDBRANCH   6   9
BRANCH   1  15
ATOM     15  C   UNL     1       4.190   5.645  19.290  0.00  0.00    +0.000 C 
BRANCH  15  17
ATOM     16  C   UNL     1       1.954   5.786  20.348  0.00  0.00    +0.000 C 
ATOM     17  N   UNL     1       2.735   5.910  19.105  0.00  0.00    +0.000 NA
ATOM     18  C   UNL     1       2.562   7.282  18.589  0.00  0.00    +0.000 C 
ENDBRANCH  15  17
ENDBRANCH   1  15
TORSDOF 3
ENDMDL
MODEL 7
REMARK VINA RESULT:      -6.5      2.302      6.102
REMARK  Name = 
REMARK  6 active torsions:
REMARK  status: ('A' for Active; 'I' for Inactive)
REMARK    1  A    between atoms: C_1  and  N_2
REMARK    2  A    between atoms: N_2  and  C_3
REMARK    3  A    between atoms: N_2  and  C_4
REMARK    4  A    between atoms: C_4  and  C_5
REMARK    5  A    between atoms: C_5  and  C_6
REMARK    6  A    between atoms: C_10  and  C_11
REMARK                            x       y       z     vdW  Elec       q    Type
REMARK                         _______ _______ _______ _____ _____    ______ ____
ROOT
ATOM      1  C   UNL     1       6.409   5.391  18.513  0.00  0.00    +0.000 C 
ATOM      2  C   UNL     1       7.446   6.089  19.414  0.00  0.00    +0.000 C 
ATOM      3  C   UNL     1       5.772   6.452  17.560  0.00  0.00    +0.000 C 
ATOM      4  C   UNL     1       5.809   6.100  16.102  0.00  0.00    +0.000 C 
ATOM      5  O   UNL     1       5.302   6.890  15.323  0.00  0.00    +0.000 OA
ATOM      6  C   UNL     1       6.565   4.917  15.605  0.00  0.00    +0.000 C 
ATOM      7  C   UNL     1       7.202   4.161  16.523  0.00  0.00    +0.000 C 
ATOM      8  O   UNL     1       7.111   4.392  17.853  0.00  0.00    +0.000 OA
ENDROOT
BRANCH   6   9
ATOM      9  C   UNL     1       6.633   4.546  14.144  0.00  0.00    +0.000 A 
ATOM     10  C   UNL     1       7.581   5.138  13.273  0.00  0.00    +0.000 A 
ATOM     11  C   UNL     1       7.612   4.812  11.916  0.00  0.00    +0.000 A 
ATOM     12  C   UNL     1       6.711   3.887  11.392  0.00  0.00    +0.000 A 
ATOM     13  C   UNL     1       5.770   3.287  12.226  0.00  0.00    +0.000 A 
ATOM     14  C   UNL     1       5.725   3.613  13.582  0.00  0.00    +0.000 A 
ENDBRANCH   6   9
BRANCH   1  15
ATOM     15  C   UNL     1       5.317   4.745  19.428  0.00  0.00    +0.000 C 
BRANCH  15  17
ATOM     16  C   UNL     1       4.343   2.517  19.907  0.00  0.00    +0.000 C 
ATOM     17  N   UNL     1       4.650   3.529  18.881  0.00  0.00    +0.000 NA
ATOM     18  C   UNL     1       3.385   3.928  18.236  0.00  0.00    +0.000 C 
ENDBRANCH  15  17
ENDBRANCH   1  15
TORSDOF 3
ENDMDL
MODEL 8
REMARK VINA RESULT:      -6.5      2.333      6.202
REMARK  Name = 
REMARK  6 active torsions:
REMARK  status: ('A' for Active; 'I' for Inactive)
REMARK    1  A    between atoms: C_1  and  N_2
REMARK    2  A    between atoms: N_2  and  C_3
REMARK    3  A    between atoms: N_2  and  C_4
REMARK    4  A    between atoms: C_4  and  C_5
REMARK    5  A    between atoms: C_5  and  C_6
REMARK    6  A    between atoms: C_10  and  C_11
REMARK                            x       y       z     vdW  Elec       q    Type
REMARK                         _______ _______ _______ _____ _____    ______ ____
ROOT
ATOM      1  C   UNL     1       4.341   5.065  18.310  0.00  0.00    +0.000 C 
ATOM      2  C   UNL     1       5.114   5.240  19.632  0.00  0.00    +0.000 C 
ATOM      3  C   UNL     1       4.546   6.341  17.432  0.00  0.00    +0.000 C 
ATOM      4  C   UNL     1       5.026   6.080  16.035  0.00  0.00    +0.000 C 
ATOM      5  O   UNL     1       5.178   7.048  15.307  0.00  0.00    +0.000 OA
ATOM      6  C   UNL     1       5.449   4.721  15.598  0.00  0.00    +0.000 C 
ATOM      7  C   UNL     1       5.366   3.726  16.504  0.00  0.00    +0.000 C 
ATOM      8  O   UNL     1       4.847   3.905  17.741  0.00  0.00    +0.000 OA
ENDROOT
BRANCH   6   9
ATOM      9  C   UNL     1       5.951   4.431  14.204  0.00  0.00    +0.000 A 
ATOM     10  C   UNL     1       5.236   3.583  13.321  0.00  0.00    +0.000 A 
ATOM     11  C   UNL     1       5.727   3.295  12.046  0.00  0.00    +0.000 A 
ATOM     12  C   UNL     1       6.932   3.846  11.615  0.00  0.00    +0.000 A 
ATOM     13  C   UNL     1       7.654   4.685  12.460  0.00  0.00    +0.000 A 
ATOM     14  C   UNL     1       7.176   4.972  13.739  0.00  0.00    +0.000 A 
ENDBRANCH   6   9
BRANCH   1  15
ATOM     15  C   UNL     1       2.827   4.864  18.647  0.00  0.00    +0.000 C 
BRANCH  15  17
ATOM     16  C   UNL     1       1.868   3.620  20.564  0.00  0.00    +0.000 C 
ATOM     17  N   UNL     1       2.460   3.537  19.217  0.00  0.00    +0.000 NA
ATOM     18  C   UNL     1       1.481   2.888  18.324  0.00  0.00    +0.000 C 
ENDBRANCH  15  17
ENDBRANCH   1  15
TORSDOF 3
ENDMDL
MODEL 9
REMARK VINA RESULT:      -6.3      1.546      3.002
REMARK  Name = 
REMARK  6 active torsions:
REMARK  status: ('A' for Active; 'I' for Inactive)
REMARK    1  A    between atoms: C_1  and  N_2
REMARK    2  A    between atoms: N_2  and  C_3
REMARK    3  A    between atoms: N_2  and  C_4
REMARK    4  A    between atoms: C_4  and  C_5
REMARK    5  A    between atoms: C_5  and  C_6
REMARK    6  A    between atoms: C_10  and  C_11
REMARK                            x       y       z     vdW  Elec       q    Type
REMARK                         _______ _______ _______ _____ _____    ______ ____
ROOT
ATOM      1  C   UNL     1       6.558   6.382  17.142  0.00  0.00    +0.000 C 
ATOM      2  C   UNL     1       7.438   7.522  17.690  0.00  0.00    +0.000 C 
ATOM      3  C   UNL     1       6.791   5.103  18.008  0.00  0.00    +0.000 C 
ATOM      4  C   UNL     1       5.547   4.468  18.553  0.00  0.00    +0.000 C 
ATOM      5  O   UNL     1       5.681   3.453  19.216  0.00  0.00    +0.000 OA
ATOM      6  C   UNL     1       4.217   5.128  18.427  0.00  0.00    +0.000 C 
ATOM      7  C   UNL     1       4.173   6.312  17.784  0.00  0.00    +0.000 C 
ATOM      8  O   UNL     1       5.258   6.866  17.195  0.00  0.00    +0.000 OA
ENDROOT
BRANCH   6   9
ATOM      9  C   UNL     1       2.949   4.522  18.978  0.00  0.00    +0.000 A 
ATOM     10  C   UNL     1       2.436   4.901  20.243  0.00  0.00    +0.000 A 
ATOM     11  C   UNL     1       1.281   4.309  20.758  0.00  0.00    +0.000 A 
ATOM     12  C   UNL     1       0.605   3.333  20.029  0.00  0.00    +0.000 A 
ATOM     13  C   UNL     1       1.085   2.943  18.781  0.00  0.00    +0.000 A 
ATOM     14  C   UNL     1       2.243   3.522  18.262  0.00  0.00    +0.000 A 
ENDBRANCH   6   9
BRANCH   1  15
ATOM     15  C   UNL     1       6.958   6.122  15.653  0.00  0.00    +0.000 C 
BRANCH  15  17
ATOM     16  C   UNL     1       5.235   4.524  14.868  0.00  0.00    +0.000 C 
ATOM     17  N   UNL     1       6.665   4.756  15.132  0.00  0.00    +0.000 NA
ATOM     18  C   UNL     1       7.404   4.558  13.871  0.00  0.00    +0.000 C 
ENDBRANCH  15  17
ENDBRANCH   1  15
TORSDOF 3
ENDMDL
