MODEL 1
REMARK VINA RESULT:      -8.7      0.000      0.000
REMARK  Name = 
REMARK  5 active torsions:
REMARK  status: ('A' for Active; 'I' for Inactive)
REMARK    1  A    between atoms: C_2  and  O_3
REMARK    2  A    between atoms: C_2  and  C_18
REMARK    3  A    between atoms: O_3  and  N_4
REMARK    4  A    between atoms: C_11  and  C_12
REMARK    5  A    between atoms: C_21  and  N_22
REMARK                            x       y       z     vdW  Elec       q    Type
REMARK                         _______ _______ _______ _____ _____    ______ ____
ROOT
ATOM      1  N   UNL     1       4.841   5.238  19.402  0.00  0.00    +0.000 NA
ATOM      2  C   UNL     1       3.564   5.001  19.303  0.00  0.00    +0.000 C 
ATOM      3  C   UNL     1       2.963   3.758  18.662  0.00  0.00    +0.000 C 
ATOM      4  C   UNL     1       2.002   3.076  19.632  0.00  0.00    +0.000 C 
ATOM      5  C   UNL     1       0.930   4.044  20.133  0.00  0.00    +0.000 C 
ATOM      6  C   UNL     1       1.558   5.267  20.804  0.00  0.00    +0.000 C 
ATOM      7  C   UNL     1       2.532   5.950  19.877  0.00  0.00    +0.000 C 
ATOM      8  C   UNL     1       2.512   7.243  19.506  0.00  0.00    +0.000 C 
ENDROOT
BRANCH   8   9
ATOM      9  C   UNL     1       1.548   8.232  20.018  0.00  0.00    +0.000 A 
ATOM     10  C   UNL     1       0.961   9.157  19.145  0.00  0.00    +0.000 A 
ATOM     11  C   UNL     1       0.057  10.114  19.627  0.00  0.00    +0.000 A 
ATOM     12  C   UNL     1      -0.270  10.150  20.982  0.00  0.00    +0.000 A 
ATOM     13  C   UNL     1       0.307   9.233  21.857  0.00  0.00    +0.000 A 
ATOM     14  C   UNL     1       1.216   8.279  21.379  0.00  0.00    +0.000 A 
ENDBRANCH   8   9
BRANCH   1  15
ATOM     15  O   UNL     1       5.642   4.164  18.921  0.00  0.00    +0.000 OA
BRANCH  15  17
ATOM     16  O   UNL     1       7.749   5.137  18.732  0.00  0.00    +0.000 OA
ATOM     17  C   UNL     1       6.738   4.636  18.245  0.00  0.00    +0.000 C 
BRANCH  17  18
ATOM     18  C   UNL     1       6.586   4.491  16.757  0.00  0.00    +0.000 A 
ATOM     19  C   UNL     1       5.561   3.661  16.254  0.00  0.00    +0.000 A 
ATOM     20  C   UNL     1       5.415   3.441  14.874  0.00  0.00    +0.000 A 
ATOM     21  C   UNL     1       6.290   4.071  13.983  0.00  0.00    +0.000 A 
ATOM     22  C   UNL     1       7.283   4.936  14.463  0.00  0.00    +0.000 A 
ATOM     23  C   UNL     1       7.430   5.141  15.846  0.00  0.00    +0.000 A 
BRANCH  21  24
ATOM     24  N   UNL     1       6.180   3.816  12.536  0.00  0.00    +0.000 N 
ATOM     25  O   UNL     1       7.167   4.066  11.829  0.00  0.00    +0.000 OA
ATOM     26  O   UNL     1       5.102   3.374  12.111  0.00  0.00    +0.000 OA
ENDBRANCH  21  24
ENDBRANCH  17  18
ENDBRANCH  15  17
ENDBRANCH   1  15
TORSDOF 5
ENDMDL
MODEL 2
REMARK VINA RESULT:      -8.5      5.251      9.058
REMARK  Name = 
REMARK  5 active torsions:
REMARK  status: ('A' for Active; 'I' for Inactive)
REMARK    1  A    between atoms: C_2  and  O_3
REMARK    2  A    between atoms: C_2  and  C_18
REMARK    3  A    between atoms: O_3  and  N_4
REMARK    4  A    between atoms: C_11  and  C_12
REMARK    5  A    between atoms: C_21  and  N_22
REMARK                            x       y       z     vdW  Elec       q    Type
REMARK                         _______ _______ _______ _____ _____    ______ ____
ROOT
ATOM      1  N   UNL     1       1.885   8.557  18.463  0.00  0.00    +0.000 NA
ATOM      2  C   UNL     1       2.360   7.475  19.012  0.00  0.00    +0.000 C 
ATOM      3  C   UNL     1       2.065   7.027  20.436  0.00  0.00    +0.000 C 
ATOM      4  C   UNL     1       1.528   5.599  20.441  0.00  0.00    +0.000 C 
ATOM      5  C   UNL     1       2.476   4.641  19.718  0.00  0.00    +0.000 C 
ATOM      6  C   UNL     1       2.729   5.093  18.279  0.00  0.00    +0.000 C 
ATOM      7  C   UNL     1       3.239   6.511  18.241  0.00  0.00    +0.000 C 
ATOM      8  C   UNL     1       4.373   6.940  17.656  0.00  0.00    +0.000 C 
ENDROOT
BRANCH   8   9
ATOM      9  C   UNL     1       5.280   6.073  16.885  0.00  0.00    +0.000 A 
ATOM     10  C   UNL     1       6.310   5.379  17.535  0.00  0.00    +0.000 A 
ATOM     11  C   UNL     1       7.190   4.567  16.807  0.00  0.00    +0.000 A 
ATOM     12  C   UNL     1       7.043   4.438  15.426  0.00  0.00    +0.000 A 
ATOM     13  C   UNL     1       6.022   5.122  14.772  0.00  0.00    +0.000 A 
ATOM     14  C   UNL     1       5.145   5.940  15.497  0.00  0.00    +0.000 A 
ENDBRANCH   8   9
BRANCH   1  15
ATOM     15  O   UNL     1       0.976   9.253  19.309  0.00  0.00    +0.000 OA
BRANCH  15  17
ATOM     16  O   UNL     1       1.515  11.395  18.573  0.00  0.00    +0.000 OA
ATOM     17  C   UNL     1       0.706  10.503  18.813  0.00  0.00    +0.000 C 
BRANCH  17  18
ATOM     18  C   UNL     1      -0.764  10.709  18.582  0.00  0.00    +0.000 A 
ATOM     19  C   UNL     1      -1.429   9.894  17.641  0.00  0.00    +0.000 A 
ATOM     20  C   UNL     1      -2.788  10.086  17.342  0.00  0.00    +0.000 A 
ATOM     21  C   UNL     1      -3.499  11.093  18.004  0.00  0.00    +0.000 A 
ATOM     22  C   UNL     1      -2.867  11.881  18.976  0.00  0.00    +0.000 A 
ATOM     23  C   UNL     1      -1.504  11.689  19.260  0.00  0.00    +0.000 A 
BRANCH  21  24
ATOM     24  N   UNL     1      -4.913  11.339  17.670  0.00  0.00    +0.000 N 
ATOM     25  O   UNL     1      -5.164  12.212  16.826  0.00  0.00    +0.000 OA
ATOM     26  O   UNL     1      -5.769  10.663  18.260  0.00  0.00    +0.000 OA
ENDBRANCH  21  24
ENDBRANCH  17  18
ENDBRANCH  15  17
ENDBRANCH   1  15
TORSDOF 5
ENDMDL
MODEL 3
REMARK VINA RESULT:      -8.4      5.238      9.038
REMARK  Name = 
REMARK  5 active torsions:
REMARK  status: ('A' for Active; 'I' for Inactive)
REMARK    1  A    between atoms: C_2  and  O_3
REMARK    2  A    between atoms: C_2  and  C_18
REMARK    3  A    between atoms: O_3  and  N_4
REMARK    4  A    between atoms: C_11  and  C_12
REMARK    5  A    between atoms: C_21  and  N_22
REMARK                            x       y       z     vdW  Elec       q    Type
REMARK                         _______ _______ _______ _____ _____    ______ ____
ROOT
ATOM      1  N   UNL     1       1.880   8.534  18.459  0.00  0.00    +0.000 NA
ATOM      2  C   UNL     1       2.363   7.457  19.009  0.00  0.00    +0.000 C 
ATOM      3  C   UNL     1       2.067   7.005  20.432  0.00  0.00    +0.000 C 
ATOM      4  C   UNL     1       1.544   5.573  20.434  0.00  0.00    +0.000 C 
ATOM      5  C   UNL     1       2.503   4.624  19.715  0.00  0.00    +0.000 C 
ATOM      6  C   UNL     1       2.757   5.078  18.277  0.00  0.00    +0.000 C 
ATOM      7  C   UNL     1       3.253   6.501  18.241  0.00  0.00    +0.000 C 
ATOM      8  C   UNL     1       4.386   6.940  17.661  0.00  0.00    +0.000 C 
ENDROOT
BRANCH   8   9
ATOM      9  C   UNL     1       5.304   6.081  16.892  0.00  0.00    +0.000 A 
ATOM     10  C   UNL     1       5.159   5.965  15.504  0.00  0.00    +0.000 A 
ATOM     11  C   UNL     1       6.016   5.135  14.767  0.00  0.00    +0.000 A 
ATOM     12  C   UNL     1       7.025   4.420  15.413  0.00  0.00    +0.000 A 
ATOM     13  C   UNL     1       7.177   4.531  16.792  0.00  0.00    +0.000 A 
ATOM     14  C   UNL     1       6.318   5.356  17.532  0.00  0.00    +0.000 A 
ENDBRANCH   8   9
BRANCH   1  15
ATOM     15  O   UNL     1       0.963   9.221  19.302  0.00  0.00    +0.000 OA
BRANCH  15  17
ATOM     16  O   UNL     1       1.575  11.387  18.706  0.00  0.00    +0.000 OA
ATOM     17  C   UNL     1       0.741  10.497  18.846  0.00  0.00    +0.000 C 
BRANCH  17  18
ATOM     18  C   UNL     1      -0.707  10.734  18.522  0.00  0.00    +0.000 A 
ATOM     19  C   UNL     1      -1.426  11.690  19.270  0.00  0.00    +0.000 A 
ATOM     20  C   UNL     1      -2.797  11.906  19.049  0.00  0.00    +0.000 A 
ATOM     21  C   UNL     1      -3.455  11.172  18.057  0.00  0.00    +0.000 A 
ATOM     22  C   UNL     1      -2.745  10.252  17.273  0.00  0.00    +0.000 A 
ATOM     23  C   UNL     1      -1.377  10.034  17.508  0.00  0.00    +0.000 A 
BRANCH  21  24
ATOM     24  N   UNL     1      -4.902  11.352  17.843  0.00  0.00    +0.000 N 
ATOM     25  O   UNL     1      -5.266  11.909  16.797  0.00  0.00    +0.000 OA
ATOM     26  O   UNL     1      -5.668  10.942  18.726  0.00  0.00    +0.000 OA
ENDBRANCH  21  24
ENDBRANCH  17  18
ENDBRANCH  15  17
ENDBRANCH   1  15
TORSDOF 5
ENDMDL
MODEL 4
REMARK VINA RESULT:      -8.4      0.431      1.066
REMARK  Name = 
REMARK  5 active torsions:
REMARK  status: ('A' for Active; 'I' for Inactive)
REMARK    1  A    between atoms: C_2  and  O_3
REMARK    2  A    between atoms: C_2  and  C_18
REMARK    3  A    between atoms: O_3  and  N_4
REMARK    4  A    between atoms: C_11  and  C_12
REMARK    5  A    between atoms: C_21  and  N_22
REMARK                            x       y       z     vdW  Elec       q    Type
REMARK                         _______ _______ _______ _____ _____    ______ ____
ROOT
ATOM      1  N   UNL     1       4.902   5.462  19.341  0.00  0.00    +0.000 NA
ATOM      2  C   UNL     1       3.631   5.181  19.281  0.00  0.00    +0.000 C 
ATOM      3  C   UNL     1       3.063   3.828  18.877  0.00  0.00    +0.000 C 
ATOM      4  C   UNL     1       2.109   3.313  19.951  0.00  0.00    +0.000 C 
ATOM      5  C   UNL     1       1.012   4.331  20.260  0.00  0.00    +0.000 C 
ATOM      6  C   UNL     1       1.606   5.671  20.698  0.00  0.00    +0.000 C 
ATOM      7  C   UNL     1       2.573   6.195  19.666  0.00  0.00    +0.000 C 
ATOM      8  C   UNL     1       2.528   7.397  19.063  0.00  0.00    +0.000 C 
ENDROOT
BRANCH   8   9
ATOM      9  C   UNL     1       1.538   8.441  19.380  0.00  0.00    +0.000 A 
ATOM     10  C   UNL     1       0.984   9.217  18.354  0.00  0.00    +0.000 A 
ATOM     11  C   UNL     1       0.055  10.225  18.648  0.00  0.00    +0.000 A 
ATOM     12  C   UNL     1      -0.330  10.460  19.968  0.00  0.00    +0.000 A 
ATOM     13  C   UNL     1       0.215   9.692  20.994  0.00  0.00    +0.000 A 
ATOM     14  C   UNL     1       1.148   8.688  20.703  0.00  0.00    +0.000 A 
ENDBRANCH   8   9
BRANCH   1  15
ATOM     15  O   UNL     1       5.730   4.337  19.070  0.00  0.00    +0.000 OA
BRANCH  15  17
ATOM     16  O   UNL     1       7.859   5.217  18.733  0.00  0.00    +0.000 OA
ATOM     17  C   UNL     1       6.822   4.702  18.324  0.00  0.00    +0.000 C 
BRANCH  17  18
ATOM     18  C   UNL     1       6.627   4.411  16.863  0.00  0.00    +0.000 A 
ATOM     19  C   UNL     1       7.513   4.987  15.928  0.00  0.00    +0.000 A 
ATOM     20  C   UNL     1       7.338   4.797  14.546  0.00  0.00    +0.000 A 
ATOM     21  C   UNL     1       6.276   4.007  14.093  0.00  0.00    +0.000 A 
ATOM     22  C   UNL     1       5.415   3.389  15.010  0.00  0.00    +0.000 A 
ATOM     23  C   UNL     1       5.591   3.593  16.389  0.00  0.00    +0.000 A 
BRANCH  21  24
ATOM     24  N   UNL     1       6.050   3.835  12.647  0.00  0.00    +0.000 N 
ATOM     25  O   UNL     1       7.007   4.036  11.885  0.00  0.00    +0.000 OA
ATOM     26  O   UNL     1       4.913   3.506  12.278  0.00  0.00    +0.000 OA
ENDBRANCH  21  24
ENDBRANCH  17  18
ENDBRANCH  15  17
ENDBRANCH   1  15
TORSDOF 5
ENDMDL
MODEL 5
REMARK VINA RESULT:      -8.3      5.031      9.775
REMARK  Name = 
REMARK  5 active torsions:
REMARK  status: ('A' for Active; 'I' for Inactive)
REMARK    1  A    between atoms: C_2  and  O_3
REMARK    2  A    between atoms: C_2  and  C_18
REMARK    3  A    between atoms: O_3  and  N_4
REMARK    4  A    between atoms: C_11  and  C_12
REMARK    5  A    between atoms: C_21  and  N_22
REMARK                            x       y       z     vdW  Elec       q    Type
REMARK                         _______ _______ _______ _____ _____    ______ ____
ROOT
ATOM      1  N   UNL     1       2.010   8.247  19.124  0.00  0.00    +0.000 NA
ATOM      2  C   UNL     1       2.356   7.024  19.409  0.00  0.00    +0.000 C 
ATOM      3  C   UNL     1       1.932   6.275  20.664  0.00  0.00    +0.000 C 
ATOM      4  C   UNL     1       1.280   4.947  20.291  0.00  0.00    +0.000 C 
ATOM      5  C   UNL     1       2.192   4.106  19.398  0.00  0.00    +0.000 C 
ATOM      6  C   UNL     1       2.576   4.866  18.127  0.00  0.00    +0.000 C 
ATOM      7  C   UNL     1       3.202   6.196  18.463  0.00  0.00    +0.000 C 
ATOM      8  C   UNL     1       4.405   6.642  18.054  0.00  0.00    +0.000 C 
ENDROOT
BRANCH   8   9
ATOM      9  C   UNL     1       5.287   5.904  17.133  0.00  0.00    +0.000 A 
ATOM     10  C   UNL     1       6.351   5.146  17.638  0.00  0.00    +0.000 A 
ATOM     11  C   UNL     1       7.207   4.456  16.768  0.00  0.00    +0.000 A 
ATOM     12  C   UNL     1       7.001   4.514  15.390  0.00  0.00    +0.000 A 
ATOM     13  C   UNL     1       5.944   5.264  14.880  0.00  0.00    +0.000 A 
ATOM     14  C   UNL     1       5.091   5.960  15.747  0.00  0.00    +0.000 A 
ENDBRANCH   8   9
BRANCH   1  15
ATOM     15  O   UNL     1       1.108   8.801  20.075  0.00  0.00    +0.000 OA
BRANCH  15  17
ATOM     16  O   UNL     1       0.289  10.096  18.321  0.00  0.00    +0.000 OA
ATOM     17  C   UNL     1       0.358   9.803  19.511  0.00  0.00    +0.000 C 
BRANCH  17  18
ATOM     18  C   UNL     1      -0.418  10.572  20.543  0.00  0.00    +0.000 A 
ATOM     19  C   UNL     1      -0.307  10.198  21.899  0.00  0.00    +0.000 A 
ATOM     20  C   UNL     1      -1.058  10.843  22.897  0.00  0.00    +0.000 A 
ATOM     21  C   UNL     1      -1.916  11.888  22.539  0.00  0.00    +0.000 A 
ATOM     22  C   UNL     1      -2.003  12.304  21.203  0.00  0.00    +0.000 A 
ATOM     23  C   UNL     1      -1.256  11.646  20.211  0.00  0.00    +0.000 A 
BRANCH  21  24
ATOM     24  N   UNL     1      -2.745  12.545  23.564  0.00  0.00    +0.000 N 
ATOM     25  O   UNL     1      -3.738  11.933  23.984  0.00  0.00    +0.000 OA
ATOM     26  O   UNL     1      -2.405  13.677  23.940  0.00  0.00    +0.000 OA
ENDBRANCH  21  24
ENDBRANCH  17  18
ENDBRANCH  15  17
ENDBRANCH   1  15
TORSDOF 5
ENDMDL
MODEL 6
REMARK VINA RESULT:      -8.3      5.245      9.188
REMARK  Name = 
REMARK  5 active torsions:
REMARK  status: ('A' for Active; 'I' for Inactive)
REMARK    1  A    between atoms: C_2  and  O_3
REMARK    2  A    between atoms: C_2  and  C_18
REMARK    3  A    between atoms: O_3  and  N_4
REMARK    4  A    between atoms: C_11  and  C_12
REMARK    5  A    between atoms: C_21  and  N_22
REMARK                            x       y       z     vdW  Elec       q    Type
REMARK                         _______ _______ _______ _____ _____    ______ ____
ROOT
ATOM      1  N   UNL     1       1.923   8.516  18.397  0.00  0.00    +0.000 NA
ATOM      2  C   UNL     1       2.399   7.438  18.952  0.00  0.00    +0.000 C 
ATOM      3  C   UNL     1       2.107   6.997  20.379  0.00  0.00    +0.000 C 
ATOM      4  C   UNL     1       1.571   5.569  20.391  0.00  0.00    +0.000 C 
ATOM      5  C   UNL     1       2.518   4.608  19.673  0.00  0.00    +0.000 C 
ATOM      6  C   UNL     1       2.768   5.052  18.230  0.00  0.00    +0.000 C 
ATOM      7  C   UNL     1       3.277   6.470  18.184  0.00  0.00    +0.000 C 
ATOM      8  C   UNL     1       4.410   6.896  17.595  0.00  0.00    +0.000 C 
ENDROOT
BRANCH   8   9
ATOM      9  C   UNL     1       5.317   6.025  16.827  0.00  0.00    +0.000 A 
ATOM     10  C   UNL     1       6.355   5.346  17.477  0.00  0.00    +0.000 A 
ATOM     11  C   UNL     1       7.234   4.530  16.751  0.00  0.00    +0.000 A 
ATOM     12  C   UNL     1       7.078   4.383  15.373  0.00  0.00    +0.000 A 
ATOM     13  C   UNL     1       6.047   5.054  14.719  0.00  0.00    +0.000 A 
ATOM     14  C   UNL     1       5.171   5.875  15.442  0.00  0.00    +0.000 A 
ENDBRANCH   8   9
BRANCH   1  15
ATOM     15  O   UNL     1       1.016   9.216  19.241  0.00  0.00    +0.000 OA
BRANCH  15  17
ATOM     16  O   UNL     1       1.701  11.341  18.581  0.00  0.00    +0.000 OA
ATOM     17  C   UNL     1       0.832  10.503  18.801  0.00  0.00    +0.000 C 
BRANCH  17  18
ATOM     18  C   UNL     1      -0.623  10.827  18.607  0.00  0.00    +0.000 A 
ATOM     19  C   UNL     1      -1.207  11.840  19.397  0.00  0.00    +0.000 A 
ATOM     20  C   UNL     1      -2.577  12.141  19.300  0.00  0.00    +0.000 A 
ATOM     21  C   UNL     1      -3.370  11.434  18.390  0.00  0.00    +0.000 A 
ATOM     22  C   UNL     1      -2.796  10.457  17.564  0.00  0.00    +0.000 A 
ATOM     23  C   UNL     1      -1.428  10.156  17.676  0.00  0.00    +0.000 A 
BRANCH  21  24
ATOM     24  N   UNL     1      -4.816  11.703  18.307  0.00  0.00    +0.000 N 
ATOM     25  O   UNL     1      -5.296  12.529  19.098  0.00  0.00    +0.000 OA
ATOM     26  O   UNL     1      -5.468  11.081  17.457  0.00  0.00    +0.000 OA
ENDBRANCH  21  24
ENDBRANCH  17  18
ENDBRANCH  15  17
ENDBRANCH   1  15
TORSDOF 5
ENDMDL
MODEL 7
REMARK VINA RESULT:      -8.3      3.114      7.753
REMARK  Name = 
REMARK  5 active torsions:
REMARK  status: ('A' for Active; 'I' for Inactive)
REMARK    1  A    between atoms: C_2  and  O_3
REMARK    2  A    between atoms: C_2  and  C_18
REMARK    3  A    between atoms: O_3  and  N_4
REMARK    4  A    between atoms: C_11  and  C_12
REMARK    5  A    between atoms: C_21  and  N_22
REMARK                            x       y       z     vdW  Elec       q    Type
REMARK                         _______ _______ _______ _____ _____    ______ ____
ROOT
ATOM      1  N   UNL     1       4.296   3.383  18.447  0.00  0.00    +0.000 NA
ATOM      2  C   UNL     1       5.158   4.325  18.186  0.00  0.00    +0.000 C 
ATOM      3  C   UNL     1       5.495   5.474  19.125  0.00  0.00    +0.000 C 
ATOM      4  C   UNL     1       7.000   5.536  19.366  0.00  0.00    +0.000 C 
ATOM      5  C   UNL     1       7.775   5.618  18.051  0.00  0.00    +0.000 C 
ATOM      6  C   UNL     1       7.447   4.434  17.139  0.00  0.00    +0.000 C 
ATOM      7  C   UNL     1       5.961   4.333  16.901  0.00  0.00    +0.000 C 
ATOM      8  C   UNL     1       5.340   4.308  15.707  0.00  0.00    +0.000 C 
ENDROOT
BRANCH   8   9
ATOM      9  C   UNL     1       6.045   4.309  14.413  0.00  0.00    +0.000 A 
ATOM     10  C   UNL     1       7.129   5.171  14.205  0.00  0.00    +0.000 A 
ATOM     11  C   UNL     1       7.793   5.192  12.971  0.00  0.00    +0.000 A 
ATOM     12  C   UNL     1       7.381   4.349  11.939  0.00  0.00    +0.000 A 
ATOM     13  C   UNL     1       6.305   3.488  12.138  0.00  0.00    +0.000 A 
ATOM     14  C   UNL     1       5.635   3.469  13.369  0.00  0.00    +0.000 A 
ENDBRANCH   8   9
BRANCH   1  15
ATOM     15  O   UNL     1       3.749   3.484  19.757  0.00  0.00    +0.000 OA
BRANCH  15  17
ATOM     16  O   UNL     1       1.474   2.994  19.819  0.00  0.00    +0.000 OA
ATOM     17  C   UNL     1       2.410   3.780  19.707  0.00  0.00    +0.000 C 
BRANCH  17  18
ATOM     18  C   UNL     1       2.168   5.245  19.475  0.00  0.00    +0.000 A 
ATOM     19  C   UNL     1       2.097   5.724  18.150  0.00  0.00    +0.000 A 
ATOM     20  C   UNL     1       1.935   7.093  17.878  0.00  0.00    +0.000 A 
ATOM     21  C   UNL     1       1.822   7.994  18.942  0.00  0.00    +0.000 A 
ATOM     22  C   UNL     1       1.843   7.530  20.264  0.00  0.00    +0.000 A 
ATOM     23  C   UNL     1       2.017   6.160  20.527  0.00  0.00    +0.000 A 
BRANCH  21  24
ATOM     24  N   UNL     1       1.698   9.438  18.676  0.00  0.00    +0.000 N 
ATOM     25  O   UNL     1       1.131  10.135  19.530  0.00  0.00    +0.000 OA
ATOM     26  O   UNL     1       2.159   9.868  17.609  0.00  0.00    +0.000 OA
ENDBRANCH  21  24
ENDBRANCH  17  18
ENDBRANCH  15  17
ENDBRANCH   1  15
TORSDOF 5
ENDMDL
MODEL 8
REMARK VINA RESULT:      -8.2      5.011      9.695
REMARK  Name = 
REMARK  5 active torsions:
REMARK  status: ('A' for Active; 'I' for Inactive)
REMARK    1  A    between atoms: C_2  and  O_3
REMARK    2  A    between atoms: C_2  and  C_18
REMARK    3  A    between atoms: O_3  and  N_4
REMARK    4  A    between atoms: C_11  and  C_12
REMARK    5  A    between atoms: C_21  and  N_22
REMARK                            x       y       z     vdW  Elec       q    Type
REMARK                         _______ _______ _______ _____ _____    ______ ____
ROOT
ATOM      1  N   UNL     1       1.950   8.071  19.138  0.00  0.00    +0.000 NA
ATOM      2  C   UNL     1       2.227   6.821  19.374  0.00  0.00    +0.000 C 
ATOM      3  C   UNL     1       1.881   6.086  20.661  0.00  0.00    +0.000 C 
ATOM      4  C   UNL     1       1.090   4.819  20.349  0.00  0.00    +0.000 C 
ATOM      5  C   UNL     1       1.831   3.925  19.356  0.00  0.00    +0.000 C 
ATOM      6  C   UNL     1       2.137   4.674  18.057  0.00  0.00    +0.000 C 
ATOM      7  C   UNL     1       2.899   5.945  18.336  0.00  0.00    +0.000 C 
ATOM      8  C   UNL     1       4.082   6.303  17.803  0.00  0.00    +0.000 C 
ENDROOT
BRANCH   8   9
ATOM      9  C   UNL     1       4.800   5.514  16.786  0.00  0.00    +0.000 A 
ATOM     10  C   UNL     1       5.165   6.104  15.569  0.00  0.00    +0.000 A 
ATOM     11  C   UNL     1       5.831   5.356  14.588  0.00  0.00    +0.000 A 
ATOM     12  C   UNL     1       6.140   4.015  14.820  0.00  0.00    +0.000 A 
ATOM     13  C   UNL     1       5.782   3.422  16.027  0.00  0.00    +0.000 A 
ATOM     14  C   UNL     1       5.111   4.166  17.007  0.00  0.00    +0.000 A 
ENDBRANCH   8   9
BRANCH   1  15
ATOM     15  O   UNL     1       1.201   8.678  20.185  0.00  0.00    +0.000 OA
BRANCH  15  17
ATOM     16  O   UNL     1       1.340  10.644  18.945  0.00  0.00    +0.000 OA
ATOM     17  C   UNL     1       0.894   9.979  19.876  0.00  0.00    +0.000 C 
BRANCH  17  18
ATOM     18  C   UNL     1      -0.092  10.569  20.844  0.00  0.00    +0.000 A 
ATOM     19  C   UNL     1      -0.966  11.582  20.396  0.00  0.00    +0.000 A 
ATOM     20  C   UNL     1      -1.865  12.210  21.275  0.00  0.00    +0.000 A 
ATOM     21  C   UNL     1      -1.905  11.809  22.615  0.00  0.00    +0.000 A 
ATOM     22  C   UNL     1      -1.077  10.772  23.066  0.00  0.00    +0.000 A 
ATOM     23  C   UNL     1      -0.174  10.157  22.182  0.00  0.00    +0.000 A 
BRANCH  21  24
ATOM     24  N   UNL     1      -2.808  12.488  23.561  0.00  0.00    +0.000 N 
ATOM     25  O   UNL     1      -2.544  13.658  23.873  0.00  0.00    +0.000 OA
ATOM     26  O   UNL     1      -3.774  11.844  23.995  0.00  0.00    +0.000 OA
ENDBRANCH  21  24
ENDBRANCH  17  18
ENDBRANCH  15  17
ENDBRANCH   1  15
TORSDOF 5
ENDMDL
MODEL 9
REMARK VINA RESULT:      -8.2      3.073      7.887
REMARK  Name = 
REMARK  5 active torsions:
REMARK  status: ('A' for Active; 'I' for Inactive)
REMARK    1  A    between atoms: C_2  and  O_3
REMARK    2  A    between atoms: C_2  and  C_18
REMARK    3  A    between atoms: O_3  and  N_4
REMARK    4  A    between atoms: C_11  and  C_12
REMARK    5  A    between atoms: C_21  and  N_22
REMARK                            x       y       z     vdW  Elec       q    Type
REMARK                         _______ _______ _______ _____ _____    ______ ____
ROOT
ATOM      1  N   UNL     1       4.139   3.570  18.384  0.00  0.00    +0.000 NA
ATOM      2  C   UNL     1       5.081   4.440  18.152  0.00  0.00    +0.000 C 
ATOM      3  C   UNL     1       5.497   5.542  19.116  0.00  0.00    +0.000 C 
ATOM      4  C   UNL     1       6.998   5.473  19.381  0.00  0.00    +0.000 C 
ATOM      5  C   UNL     1       7.799   5.511  18.079  0.00  0.00    +0.000 C 
ATOM      6  C   UNL     1       7.389   4.373  17.143  0.00  0.00    +0.000 C 
ATOM      7  C   UNL     1       5.904   4.401  16.881  0.00  0.00    +0.000 C 
ATOM      8  C   UNL     1       5.303   4.447  15.677  0.00  0.00    +0.000 C 
ENDROOT
BRANCH   8   9
ATOM      9  C   UNL     1       6.027   4.409  14.394  0.00  0.00    +0.000 A 
ATOM     10  C   UNL     1       5.620   3.525  13.385  0.00  0.00    +0.000 A 
ATOM     11  C   UNL     1       6.314   3.468  12.169  0.00  0.00    +0.000 A 
ATOM     12  C   UNL     1       7.415   4.297  11.950  0.00  0.00    +0.000 A 
ATOM     13  C   UNL     1       7.824   5.179  12.947  0.00  0.00    +0.000 A 
ATOM     14  C   UNL     1       7.136   5.234  14.166  0.00  0.00    +0.000 A 
ENDBRANCH   8   9
BRANCH   1  15
ATOM     15  O   UNL     1       3.580   3.696  19.687  0.00  0.00    +0.000 OA
BRANCH  15  17
ATOM     16  O   UNL     1       1.280   3.338  19.656  0.00  0.00    +0.000 OA
ATOM     17  C   UNL     1       2.263   4.073  19.620  0.00  0.00    +0.000 C 
BRANCH  17  18
ATOM     18  C   UNL     1       2.111   5.561  19.477  0.00  0.00    +0.000 A 
ATOM     19  C   UNL     1       1.855   6.335  20.629  0.00  0.00    +0.000 A 
ATOM     20  C   UNL     1       1.643   7.721  20.543  0.00  0.00    +0.000 A 
ATOM     21  C   UNL     1       1.706   8.347  19.293  0.00  0.00    +0.000 A 
ATOM     22  C   UNL     1       2.007   7.602  18.145  0.00  0.00    +0.000 A 
ATOM     23  C   UNL     1       2.206   6.214  18.239  0.00  0.00    +0.000 A 
BRANCH  21  24
ATOM     24  N   UNL     1       1.442   9.792  19.178  0.00  0.00    +0.000 N 
ATOM     25  O   UNL     1       1.780  10.359  18.129  0.00  0.00    +0.000 OA
ATOM     26  O   UNL     1       0.904  10.356  20.142  0.00  0.00    +0.000 OA
ENDBRANCH  21  24
ENDBRANCH  17  18
ENDBRANCH  15  17
ENDBRANCH   1  15
TORSDOF 5
ENDMDL
