MODEL 1
REMARK VINA RESULT:      -8.7      0.000      0.000
REMARK  Name = 
REMARK  6 active torsions:
REMARK  status: ('A' for Active; 'I' for Inactive)
REMARK    1  A    between atoms: C_1  and  O_2
REMARK    2  A    between atoms: O_2  and  C_3
REMARK    3  A    between atoms: C_7  and  N_8
REMARK    4  A    between atoms: N_8  and  C_9
REMARK    5  A    between atoms: C_22  and  O_23
REMARK    6  A    between atoms: O_23  and  C_24
REMARK                            x       y       z     vdW  Elec       q    Type
REMARK                         _______ _______ _______ _____ _____    ______ ____
ROOT
ATOM      1  C   UNL     1       4.795   4.952  17.764  0.00  0.00    +0.000 A 
ATOM      2  N   UNL     1       5.006   4.768  19.114  0.00  0.00    +0.000 NA
ATOM      3  C   UNL     1       3.890   4.539  19.824  0.00  0.00    +0.000 A 
ATOM      4  C   UNL     1       3.797   3.356  20.538  0.00  0.00    +0.000 A 
ATOM      5  C   UNL     1       2.555   2.863  20.946  0.00  0.00    +0.000 A 
ATOM      6  C   UNL     1       1.412   3.643  20.784  0.00  0.00    +0.000 A 
ATOM      7  C   UNL     1       1.479   4.836  20.064  0.00  0.00    +0.000 A 
ATOM      8  C   UNL     1       2.688   5.183  19.454  0.00  0.00    +0.000 A 
ATOM      9  C   UNL     1       2.660   5.621  18.142  0.00  0.00    +0.000 A 
ATOM     10  C   UNL     1       3.443   4.774  17.435  0.00  0.00    +0.000 A 
ATOM     11  C   UNL     1       4.042   4.853  16.252  0.00  0.00    +0.000 A 
ATOM     12  C   UNL     1       5.300   3.479  16.505  0.00  0.00    +0.000 A 
ATOM     13  C   UNL     1       6.730   3.946  17.498  0.00  0.00    +0.000 A 
ATOM     14  C   UNL     1       6.951   5.655  18.056  0.00  0.00    +0.000 A 
ATOM     15  C   UNL     1       5.802   6.954  17.617  0.00  0.00    +0.000 A 
ATOM     16  C   UNL     1       4.315   6.644  16.678  0.00  0.00    +0.000 A 
ATOM     17  C   UNL     1       3.154   6.950  17.638  0.00  0.00    +0.000 C 
ATOM     18  O   UNL     1       2.794   8.046  18.010  0.00  0.00    +0.000 OA
ENDROOT
BRANCH   1  19
ATOM     19  N   UNL     1       5.901   5.401  16.171  0.00  0.00    +0.000 N 
ATOM     20  H   UNL     1       6.743   5.952  16.319  0.00  0.00    +0.000 HD
BRANCH  19  25
ATOM     21  C   UNL     1       5.953   3.648  12.664  0.00  0.00    +0.000 A 
ATOM     22  C   UNL     1       7.145   4.175  12.181  0.00  0.00    +0.000 A 
ATOM     23  C   UNL     1       7.880   5.084  12.942  0.00  0.00    +0.000 A 
ATOM     24  C   UNL     1       7.427   5.472  14.204  0.00  0.00    +0.000 A 
ATOM     25  C   UNL     1       6.232   4.944  14.733  0.00  0.00    +0.000 A 
ATOM     26  C   UNL     1       5.491   4.053  13.917  0.00  0.00    +0.000 A 
BRANCH  21  28
ATOM     27  C   UNL     1       4.126   3.129  11.213  0.00  0.00    +0.000 C 
ATOM     28  O   UNL     1       5.341   2.736  11.846  0.00  0.00    +0.000 OA
ENDBRANCH  21  28
ENDBRANCH  19  25
ENDBRANCH   1  19
BRANCH  14  29
ATOM     29  O   UNL     1       8.072   6.143  18.668  0.00  0.00    +0.000 OA
ATOM     30  C   UNL     1       8.281   5.718  19.999  0.00  0.00    +0.000 C 
ENDBRANCH  14  29
TORSDOF 4
ENDMDL
MODEL 2
REMARK VINA RESULT:      -7.7      7.406     11.141
REMARK  Name = 
REMARK  6 active torsions:
REMARK  status: ('A' for Active; 'I' for Inactive)
REMARK    1  A    between atoms: C_1  and  O_2
REMARK    2  A    between atoms: O_2  and  C_3
REMARK    3  A    between atoms: C_7  and  N_8
REMARK    4  A    between atoms: N_8  and  C_9
REMARK    5  A    between atoms: C_22  and  O_23
REMARK    6  A    between atoms: O_23  and  C_24
REMARK                            x       y       z     vdW  Elec       q    Type
REMARK                         _______ _______ _______ _____ _____    ______ ____
ROOT
ATOM      1  C   UNL     1      -0.175  11.211  19.688  0.00  0.00    +0.000 A 
ATOM      2  N   UNL     1       1.104  11.243  19.173  0.00  0.00    +0.000 NA
ATOM      3  C   UNL     1       1.704  10.045  19.102  0.00  0.00    +0.000 A 
ATOM      4  C   UNL     1       2.125   9.594  17.862  0.00  0.00    +0.000 A 
ATOM      5  C   UNL     1       2.368   8.237  17.639  0.00  0.00    +0.000 A 
ATOM      6  C   UNL     1       2.349   7.344  18.709  0.00  0.00    +0.000 A 
ATOM      7  C   UNL     1       1.923   7.773  19.966  0.00  0.00    +0.000 A 
ATOM      8  C   UNL     1       1.450   9.081  20.104  0.00  0.00    +0.000 A 
ATOM      9  C   UNL     1       0.272   9.284  20.801  0.00  0.00    +0.000 A 
ATOM     10  C   UNL     1      -0.582   9.893  19.947  0.00  0.00    +0.000 A 
ATOM     11  C   UNL     1      -1.695  10.600  20.113  0.00  0.00    +0.000 A 
ATOM     12  C   UNL     1      -1.720  11.446  18.435  0.00  0.00    +0.000 A 
ATOM     13  C   UNL     1      -0.598  12.849  18.287  0.00  0.00    +0.000 A 
ATOM     14  C   UNL     1       0.343  13.437  19.719  0.00  0.00    +0.000 A 
ATOM     15  C   UNL     1       0.173  12.694  21.337  0.00  0.00    +0.000 A 
ATOM     16  C   UNL     1      -0.862  11.270  21.636  0.00  0.00    +0.000 A 
ATOM     17  C   UNL     1       0.102  10.139  22.028  0.00  0.00    +0.000 C 
ATOM     18  O   UNL     1       0.703  10.030  23.075  0.00  0.00    +0.000 OA
ENDROOT
BRANCH   1  19
ATOM     19  N   UNL     1      -1.585  12.535  20.156  0.00  0.00    +0.000 N 
ATOM     20  H   UNL     1      -1.544  13.449  19.709  0.00  0.00    +0.000 HD
BRANCH  19  25
ATOM     21  C   UNL     1      -4.794  12.712  22.403  0.00  0.00    +0.000 A 
ATOM     22  C   UNL     1      -5.754  12.763  21.399  0.00  0.00    +0.000 A 
ATOM     23  C   UNL     1      -5.377  12.777  20.056  0.00  0.00    +0.000 A 
ATOM     24  C   UNL     1      -4.026  12.733  19.704  0.00  0.00    +0.000 A 
ATOM     25  C   UNL     1      -3.027  12.661  20.695  0.00  0.00    +0.000 A 
ATOM     26  C   UNL     1      -3.443  12.689  22.050  0.00  0.00    +0.000 A 
BRANCH  21  28
ATOM     27  C   UNL     1      -4.356  12.417  24.734  0.00  0.00    +0.000 C 
ATOM     28  O   UNL     1      -5.284  12.663  23.680  0.00  0.00    +0.000 OA
ENDBRANCH  21  28
ENDBRANCH  19  25
ENDBRANCH   1  19
BRANCH  14  29
ATOM     29  O   UNL     1       1.088  14.583  19.753  0.00  0.00    +0.000 OA
ATOM     30  C   UNL     1       2.341  14.522  19.104  0.00  0.00    +0.000 C 
ENDBRANCH  14  29
TORSDOF 4
ENDMDL
MODEL 3
REMARK VINA RESULT:      -7.7      7.619     11.027
REMARK  Name = 
REMARK  6 active torsions:
REMARK  status: ('A' for Active; 'I' for Inactive)
REMARK    1  A    between atoms: C_1  and  O_2
REMARK    2  A    between atoms: O_2  and  C_3
REMARK    3  A    between atoms: C_7  and  N_8
REMARK    4  A    between atoms: N_8  and  C_9
REMARK    5  A    between atoms: C_22  and  O_23
REMARK    6  A    between atoms: O_23  and  C_24
REMARK                            x       y       z     vdW  Elec       q    Type
REMARK                         _______ _______ _______ _____ _____    ______ ____
ROOT
ATOM      1  C   UNL     1      -0.315  11.459  19.521  0.00  0.00    +0.000 A 
ATOM      2  N   UNL     1       1.000  11.481  19.106  0.00  0.00    +0.000 NA
ATOM      3  C   UNL     1       1.599  10.281  19.095  0.00  0.00    +0.000 A 
ATOM      4  C   UNL     1       2.113   9.815  17.895  0.00  0.00    +0.000 A 
ATOM      5  C   UNL     1       2.366   8.454  17.706  0.00  0.00    +0.000 A 
ATOM      6  C   UNL     1       2.262   7.573  18.781  0.00  0.00    +0.000 A 
ATOM      7  C   UNL     1       1.741   8.017  19.997  0.00  0.00    +0.000 A 
ATOM      8  C   UNL     1       1.264   9.328  20.084  0.00  0.00    +0.000 A 
ATOM      9  C   UNL     1       0.037   9.543  20.685  0.00  0.00    +0.000 A 
ATOM     10  C   UNL     1      -0.746  10.146  19.761  0.00  0.00    +0.000 A 
ATOM     11  C   UNL     1      -1.865  10.858  19.833  0.00  0.00    +0.000 A 
ATOM     12  C   UNL     1      -1.756  11.686  18.149  0.00  0.00    +0.000 A 
ATOM     13  C   UNL     1      -0.620  13.084  18.074  0.00  0.00    +0.000 A 
ATOM     14  C   UNL     1       0.209  13.684  19.569  0.00  0.00    +0.000 A 
ATOM     15  C   UNL     1      -0.089  12.958  21.176  0.00  0.00    +0.000 A 
ATOM     16  C   UNL     1      -1.150  11.542  21.409  0.00  0.00    +0.000 A 
ATOM     17  C   UNL     1      -0.224  10.411  21.886  0.00  0.00    +0.000 C 
ATOM     18  O   UNL     1       0.293  10.312  22.978  0.00  0.00    +0.000 OA
ENDROOT
BRANCH   1  19
ATOM     19  N   UNL     1      -1.751  12.794  19.864  0.00  0.00    +0.000 N 
ATOM     20  H   UNL     1      -1.641  13.722  19.461  0.00  0.00    +0.000 HD
BRANCH  19  25
ATOM     21  C   UNL     1      -5.669  12.653  19.925  0.00  0.00    +0.000 A 
ATOM     22  C   UNL     1      -5.893  13.449  21.042  0.00  0.00    +0.000 A 
ATOM     23  C   UNL     1      -4.822  13.977  21.764  0.00  0.00    +0.000 A 
ATOM     24  C   UNL     1      -3.509  13.715  21.367  0.00  0.00    +0.000 A 
ATOM     25  C   UNL     1      -3.246  12.928  20.228  0.00  0.00    +0.000 A 
ATOM     26  C   UNL     1      -4.356  12.376  19.541  0.00  0.00    +0.000 A 
BRANCH  21  28
ATOM     27  C   UNL     1      -6.717  10.995  18.559  0.00  0.00    +0.000 C 
ATOM     28  O   UNL     1      -6.796  12.225  19.275  0.00  0.00    +0.000 OA
ENDBRANCH  21  28
ENDBRANCH  19  25
ENDBRANCH   1  19
BRANCH  14  29
ATOM     29  O   UNL     1       0.954  14.828  19.648  0.00  0.00    +0.000 OA
ATOM     30  C   UNL     1       2.285  14.728  19.184  0.00  0.00    +0.000 C 
ENDBRANCH  14  29
TORSDOF 4
ENDMDL
MODEL 4
REMARK VINA RESULT:      -7.6      8.603     10.813
REMARK  Name = 
REMARK  6 active torsions:
REMARK  status: ('A' for Active; 'I' for Inactive)
REMARK    1  A    between atoms: C_1  and  O_2
REMARK    2  A    between atoms: O_2  and  C_3
REMARK    3  A    between atoms: C_7  and  N_8
REMARK    4  A    between atoms: N_8  and  C_9
REMARK    5  A    between atoms: C_22  and  O_23
REMARK    6  A    between atoms: O_23  and  C_24
REMARK                            x       y       z     vdW  Elec       q    Type
REMARK                         _______ _______ _______ _____ _____    ______ ____
ROOT
ATOM      1  C   UNL     1       0.303  13.174  20.385  0.00  0.00    +0.000 A 
ATOM      2  N   UNL     1       1.143  13.446  21.445  0.00  0.00    +0.000 NA
ATOM      3  C   UNL     1       1.972  14.481  21.245  0.00  0.00    +0.000 A 
ATOM      4  C   UNL     1       1.905  15.554  22.119  0.00  0.00    +0.000 A 
ATOM      5  C   UNL     1       2.412  16.805  21.756  0.00  0.00    +0.000 A 
ATOM      6  C   UNL     1       3.140  16.942  20.575  0.00  0.00    +0.000 A 
ATOM      7  C   UNL     1       3.215  15.878  19.676  0.00  0.00    +0.000 A 
ATOM      8  C   UNL     1       2.491  14.715  19.951  0.00  0.00    +0.000 A 
ATOM      9  C   UNL     1       1.749  14.146  18.932  0.00  0.00    +0.000 A 
ATOM     10  C   UNL     1       0.465  14.115  19.358  0.00  0.00    +0.000 A 
ATOM     11  C   UNL     1      -0.608  13.429  18.983  0.00  0.00    +0.000 A 
ATOM     12  C   UNL     1      -1.630  13.670  20.542  0.00  0.00    +0.000 A 
ATOM     13  C   UNL     1      -1.165  12.601  21.916  0.00  0.00    +0.000 A 
ATOM     14  C   UNL     1       0.096  11.318  21.705  0.00  0.00    +0.000 A 
ATOM     15  C   UNL     1       0.896  11.023  20.132  0.00  0.00    +0.000 A 
ATOM     16  C   UNL     1       0.578  12.025  18.690  0.00  0.00    +0.000 A 
ATOM     17  C   UNL     1       1.902  12.749  18.394  0.00  0.00    +0.000 C 
ATOM     18  O   UNL     1       2.909  12.255  17.936  0.00  0.00    +0.000 OA
ENDROOT
BRANCH   1  19
ATOM     19  N   UNL     1      -1.069  11.804  19.936  0.00  0.00    +0.000 N 
ATOM     20  H   UNL     1      -1.505  11.299  20.706  0.00  0.00    +0.000 HD
BRANCH  19  25
ATOM     21  C   UNL     1      -2.822  10.373  16.734  0.00  0.00    +0.000 A 
ATOM     22  C   UNL     1      -4.098  10.884  16.944  0.00  0.00    +0.000 A 
ATOM     23  C   UNL     1      -4.386  11.627  18.088  0.00  0.00    +0.000 A 
ATOM     24  C   UNL     1      -3.391  11.872  19.037  0.00  0.00    +0.000 A 
ATOM     25  C   UNL     1      -2.082  11.385  18.847  0.00  0.00    +0.000 A 
ATOM     26  C   UNL     1      -1.834  10.601  17.693  0.00  0.00    +0.000 A 
BRANCH  21  28
ATOM     27  C   UNL     1      -3.350  10.170  14.412  0.00  0.00    +0.000 C 
ATOM     28  O   UNL     1      -2.649   9.694  15.558  0.00  0.00    +0.000 OA
ENDBRANCH  21  28
ENDBRANCH  19  25
ENDBRANCH   1  19
BRANCH  14  29
ATOM     29  O   UNL     1       0.400  10.356  22.628  0.00  0.00    +0.000 OA
ATOM     30  C   UNL     1      -0.534   9.303  22.750  0.00  0.00    +0.000 C 
ENDBRANCH  14  29
TORSDOF 4
ENDMDL
MODEL 5
REMARK VINA RESULT:      -7.4      6.673     10.469
REMARK  Name = 
REMARK  6 active torsions:
REMARK  status: ('A' for Active; 'I' for Inactive)
REMARK    1  A    between atoms: C_1  and  O_2
REMARK    2  A    between atoms: O_2  and  C_3
REMARK    3  A    between atoms: C_7  and  N_8
REMARK    4  A    between atoms: N_8  and  C_9
REMARK    5  A    between atoms: C_22  and  O_23
REMARK    6  A    between atoms: O_23  and  C_24
REMARK                            x       y       z     vdW  Elec       q    Type
REMARK                         _______ _______ _______ _____ _____    ______ ____
ROOT
ATOM      1  C   UNL     1       0.442  10.240  19.714  0.00  0.00    +0.000 A 
ATOM      2  N   UNL     1       1.567  10.016  18.949  0.00  0.00    +0.000 NA
ATOM      3  C   UNL     1       2.015   8.751  18.977  0.00  0.00    +0.000 A 
ATOM      4  C   UNL     1       2.097   8.057  17.781  0.00  0.00    +0.000 A 
ATOM      5  C   UNL     1       2.148   6.661  17.767  0.00  0.00    +0.000 A 
ATOM      6  C   UNL     1       2.286   5.959  18.964  0.00  0.00    +0.000 A 
ATOM      7  C   UNL     1       2.200   6.636  20.181  0.00  0.00    +0.000 A 
ATOM      8  C   UNL     1       1.902   8.002  20.170  0.00  0.00    +0.000 A 
ATOM      9  C   UNL     1       0.939   8.471  21.045  0.00  0.00    +0.000 A 
ATOM     10  C   UNL     1      -0.023   9.048  20.289  0.00  0.00    +0.000 A 
ATOM     11  C   UNL     1      -0.994   9.917  20.549  0.00  0.00    +0.000 A 
ATOM     12  C   UNL     1      -1.316  10.482  18.785  0.00  0.00    +0.000 A 
ATOM     13  C   UNL     1      -0.125  11.678  18.153  0.00  0.00    +0.000 A 
ATOM     14  C   UNL     1       1.169  12.352  19.226  0.00  0.00    +0.000 A 
ATOM     15  C   UNL     1       1.299  11.904  20.953  0.00  0.00    +0.000 A 
ATOM     16  C   UNL     1       0.225  10.700  21.717  0.00  0.00    +0.000 A 
ATOM     17  C   UNL     1       1.137   9.524  22.102  0.00  0.00    +0.000 C 
ATOM     18  O   UNL     1       1.946   9.502  23.004  0.00  0.00    +0.000 OA
ENDROOT
BRANCH   1  19
ATOM     19  N   UNL     1      -0.688  11.802  20.210  0.00  0.00    +0.000 N 
ATOM     20  H   UNL     1      -0.657  12.620  19.605  0.00  0.00    +0.000 HD
BRANCH  19  25
ATOM     21  C   UNL     1      -3.373  12.471  22.988  0.00  0.00    +0.000 A 
ATOM     22  C   UNL     1      -4.423  12.880  22.175  0.00  0.00    +0.000 A 
ATOM     23  C   UNL     1      -4.257  12.970  20.793  0.00  0.00    +0.000 A 
ATOM     24  C   UNL     1      -3.032  12.643  20.209  0.00  0.00    +0.000 A 
ATOM     25  C   UNL     1      -1.952  12.206  21.001  0.00  0.00    +0.000 A 
ATOM     26  C   UNL     1      -2.143  12.164  22.405  0.00  0.00    +0.000 A 
BRANCH  21  28
ATOM     27  C   UNL     1      -5.039  12.299  24.693  0.00  0.00    +0.000 C 
ATOM     28  O   UNL     1      -3.665  12.383  24.323  0.00  0.00    +0.000 OA
ENDBRANCH  21  28
ENDBRANCH  19  25
ENDBRANCH   1  19
BRANCH  14  29
ATOM     29  O   UNL     1       2.011  13.377  18.894  0.00  0.00    +0.000 OA
ATOM     30  C   UNL     1       1.430  14.664  18.861  0.00  0.00    +0.000 C 
ENDBRANCH  14  29
TORSDOF 4
ENDMDL
MODEL 6
REMARK VINA RESULT:      -7.4      8.725     11.169
REMARK  Name = 
REMARK  6 active torsions:
REMARK  status: ('A' for Active; 'I' for Inactive)
REMARK    1  A    between atoms: C_1  and  O_2
REMARK    2  A    between atoms: O_2  and  C_3
REMARK    3  A    between atoms: C_7  and  N_8
REMARK    4  A    between atoms: N_8  and  C_9
REMARK    5  A    between atoms: C_22  and  O_23
REMARK    6  A    between atoms: O_23  and  C_24
REMARK                            x       y       z     vdW  Elec       q    Type
REMARK                         _______ _______ _______ _____ _____    ______ ____
ROOT
ATOM      1  C   UNL     1       0.096  13.323  20.486  0.00  0.00    +0.000 A 
ATOM      2  N   UNL     1       0.797  13.686  21.617  0.00  0.00    +0.000 NA
ATOM      3  C   UNL     1       1.514  14.812  21.488  0.00  0.00    +0.000 A 
ATOM      4  C   UNL     1       1.244  15.865  22.346  0.00  0.00    +0.000 A 
ATOM      5  C   UNL     1       1.632  17.168  22.024  0.00  0.00    +0.000 A 
ATOM      6  C   UNL     1       2.445  17.396  20.914  0.00  0.00    +0.000 A 
ATOM      7  C   UNL     1       2.726  16.352  20.032  0.00  0.00    +0.000 A 
ATOM      8  C   UNL     1       2.119  15.111  20.246  0.00  0.00    +0.000 A 
ATOM      9  C   UNL     1       1.546  14.465  19.166  0.00  0.00    +0.000 A 
ATOM     10  C   UNL     1       0.240  14.283  19.473  0.00  0.00    +0.000 A 
ATOM     11  C   UNL     1      -0.706  13.478  19.004  0.00  0.00    +0.000 A 
ATOM     12  C   UNL     1      -1.889  13.591  20.461  0.00  0.00    +0.000 A 
ATOM     13  C   UNL     1      -1.431  12.576  21.879  0.00  0.00    +0.000 A 
ATOM     14  C   UNL     1      -0.015  11.449  21.791  0.00  0.00    +0.000 A 
ATOM     15  C   UNL     1       0.956  11.258  20.301  0.00  0.00    +0.000 A 
ATOM     16  C   UNL     1       0.657  12.223  18.829  0.00  0.00    +0.000 A 
ATOM     17  C   UNL     1       1.909  13.098  18.653  0.00  0.00    +0.000 C 
ATOM     18  O   UNL     1       3.005  12.727  18.291  0.00  0.00    +0.000 OA
ENDROOT
BRANCH   1  19
ATOM     19  N   UNL     1      -1.061  11.805  19.920  0.00  0.00    +0.000 N 
ATOM     20  H   UNL     1      -1.433  11.197  20.646  0.00  0.00    +0.000 HD
BRANCH  19  25
ATOM     21  C   UNL     1      -4.085  11.115  17.521  0.00  0.00    +0.000 A 
ATOM     22  C   UNL     1      -3.492  10.163  16.700  0.00  0.00    +0.000 A 
ATOM     23  C   UNL     1      -2.162   9.789  16.893  0.00  0.00    +0.000 A 
ATOM     24  C   UNL     1      -1.411  10.364  17.919  0.00  0.00    +0.000 A 
ATOM     25  C   UNL     1      -1.986  11.319  18.783  0.00  0.00    +0.000 A 
ATOM     26  C   UNL     1      -3.327  11.704  18.534  0.00  0.00    +0.000 A 
BRANCH  21  28
ATOM     27  C   UNL     1      -6.336  11.174  18.323  0.00  0.00    +0.000 C 
ATOM     28  O   UNL     1      -5.405  11.372  17.262  0.00  0.00    +0.000 OA
ENDBRANCH  21  28
ENDBRANCH  19  25
ENDBRANCH   1  19
BRANCH  14  29
ATOM     29  O   UNL     1       0.313  10.525  22.743  0.00  0.00    +0.000 OA
ATOM     30  C   UNL     1      -0.466   9.346  22.751  0.00  0.00    +0.000 C 
ENDBRANCH  14  29
TORSDOF 4
ENDMDL
MODEL 7
REMARK VINA RESULT:      -7.4      7.691     10.783
REMARK  Name = 
REMARK  6 active torsions:
REMARK  status: ('A' for Active; 'I' for Inactive)
REMARK    1  A    between atoms: C_1  and  O_2
REMARK    2  A    between atoms: O_2  and  C_3
REMARK    3  A    between atoms: C_7  and  N_8
REMARK    4  A    between atoms: N_8  and  C_9
REMARK    5  A    between atoms: C_22  and  O_23
REMARK    6  A    between atoms: O_23  and  C_24
REMARK                            x       y       z     vdW  Elec       q    Type
REMARK                         _______ _______ _______ _____ _____    ______ ____
ROOT
ATOM      1  C   UNL     1       0.103  13.767  19.492  0.00  0.00    +0.000 A 
ATOM      2  N   UNL     1      -0.498  14.959  19.841  0.00  0.00    +0.000 NA
ATOM      3  C   UNL     1       0.030  16.041  19.249  0.00  0.00    +0.000 A 
ATOM      4  C   UNL     1      -0.797  16.830  18.465  0.00  0.00    +0.000 A 
ATOM      5  C   UNL     1      -0.262  17.699  17.511  0.00  0.00    +0.000 A 
ATOM      6  C   UNL     1       1.116  17.904  17.454  0.00  0.00    +0.000 A 
ATOM      7  C   UNL     1       1.969  17.117  18.229  0.00  0.00    +0.000 A 
ATOM      8  C   UNL     1       1.419  16.084  18.994  0.00  0.00    +0.000 A 
ATOM      9  C   UNL     1       2.028  14.843  18.955  0.00  0.00    +0.000 A 
ATOM     10  C   UNL     1       1.093  13.967  18.518  0.00  0.00    +0.000 A 
ATOM     11  C   UNL     1       0.979  12.646  18.577  0.00  0.00    +0.000 A 
ATOM     12  C   UNL     1      -0.870  12.530  18.254  0.00  0.00    +0.000 A 
ATOM     13  C   UNL     1      -1.905  12.895  19.683  0.00  0.00    +0.000 A 
ATOM     14  C   UNL     1      -1.164  13.200  21.308  0.00  0.00    +0.000 A 
ATOM     15  C   UNL     1       0.602  13.109  21.579  0.00  0.00    +0.000 A 
ATOM     16  C   UNL     1       1.762  12.803  20.258  0.00  0.00    +0.000 A 
ATOM     17  C   UNL     1       2.590  14.092  20.132  0.00  0.00    +0.000 C 
ATOM     18  O   UNL     1       3.439  14.484  20.903  0.00  0.00    +0.000 OA
ENDROOT
BRANCH   1  19
ATOM     19  N   UNL     1      -0.068  11.852  20.004  0.00  0.00    +0.000 N 
ATOM     20  H   UNL     1      -1.004  11.486  20.165  0.00  0.00    +0.000 HD
BRANCH  19  25
ATOM     21  C   UNL     1       1.823   8.622  18.835  0.00  0.00    +0.000 A 
ATOM     22  C   UNL     1       1.772   7.904  20.024  0.00  0.00    +0.000 A 
ATOM     23  C   UNL     1       1.185   8.455  21.162  0.00  0.00    +0.000 A 
ATOM     24  C   UNL     1       0.634   9.737  21.118  0.00  0.00    +0.000 A 
ATOM     25  C   UNL     1       0.651  10.486  19.924  0.00  0.00    +0.000 A 
ATOM     26  C   UNL     1       1.290   9.911  18.798  0.00  0.00    +0.000 A 
BRANCH  21  28
ATOM     27  C   UNL     1       3.211   6.835  18.063  0.00  0.00    +0.000 C 
ATOM     28  O   UNL     1       2.388   7.963  17.775  0.00  0.00    +0.000 OA
ENDBRANCH  21  28
ENDBRANCH  19  25
ENDBRANCH   1  19
BRANCH  14  29
ATOM     29  O   UNL     1      -1.860  13.322  22.479  0.00  0.00    +0.000 OA
ATOM     30  C   UNL     1      -2.305  12.112  23.059  0.00  0.00    +0.000 C 
ENDBRANCH  14  29
TORSDOF 4
ENDMDL
MODEL 8
REMARK VINA RESULT:      -7.2      8.374     11.121
REMARK  Name = 
REMARK  6 active torsions:
REMARK  status: ('A' for Active; 'I' for Inactive)
REMARK    1  A    between atoms: C_1  and  O_2
REMARK    2  A    between atoms: O_2  and  C_3
REMARK    3  A    between atoms: C_7  and  N_8
REMARK    4  A    between atoms: N_8  and  C_9
REMARK    5  A    between atoms: C_22  and  O_23
REMARK    6  A    between atoms: O_23  and  C_24
REMARK                            x       y       z     vdW  Elec       q    Type
REMARK                         _______ _______ _______ _____ _____    ______ ____
ROOT
ATOM      1  C   UNL     1       0.579  12.917  20.283  0.00  0.00    +0.000 A 
ATOM      2  N   UNL     1       1.528  13.159  21.253  0.00  0.00    +0.000 NA
ATOM      3  C   UNL     1       2.476  14.039  20.895  0.00  0.00    +0.000 A 
ATOM      4  C   UNL     1       2.629  15.185  21.657  0.00  0.00    +0.000 A 
ATOM      5  C   UNL     1       3.276  16.309  21.136  0.00  0.00    +0.000 A 
ATOM      6  C   UNL     1       3.921  16.229  19.903  0.00  0.00    +0.000 A 
ATOM      7  C   UNL     1       3.776  15.087  19.115  0.00  0.00    +0.000 A 
ATOM      8  C   UNL     1       2.920  14.073  19.554  0.00  0.00    +0.000 A 
ATOM      9  C   UNL     1       2.028  13.528  18.647  0.00  0.00    +0.000 A 
ATOM     10  C   UNL     1       0.790  13.726  19.156  0.00  0.00    +0.000 A 
ATOM     11  C   UNL     1      -0.395  13.173  18.923  0.00  0.00    +0.000 A 
ATOM     12  C   UNL     1      -1.248  13.704  20.511  0.00  0.00    +0.000 A 
ATOM     13  C   UNL     1      -0.831  12.710  21.955  0.00  0.00    +0.000 A 
ATOM     14  C   UNL     1       0.217  11.241  21.795  0.00  0.00    +0.000 A 
ATOM     15  C   UNL     1       0.843  10.688  20.213  0.00  0.00    +0.000 A 
ATOM     16  C   UNL     1       0.557  11.589  18.699  0.00  0.00    +0.000 A 
ATOM     17  C   UNL     1       1.942  12.080  18.247  0.00  0.00    +0.000 C 
ATOM     18  O   UNL     1       2.831  11.404  17.778  0.00  0.00    +0.000 OA
ENDROOT
BRANCH   1  19
ATOM     19  N   UNL     1      -1.003  11.728  20.065  0.00  0.00    +0.000 N 
ATOM     20  H   UNL     1      -1.294  11.174  20.868  0.00  0.00    +0.000 HD
BRANCH  19  25
ATOM     21  C   UNL     1      -4.636  11.870  18.596  0.00  0.00    +0.000 A 
ATOM     22  C   UNL     1      -4.522  10.858  17.650  0.00  0.00    +0.000 A 
ATOM     23  C   UNL     1      -3.314  10.186  17.471  0.00  0.00    +0.000 A 
ATOM     24  C   UNL     1      -2.202  10.519  18.247  0.00  0.00    +0.000 A 
ATOM     25  C   UNL     1      -2.287  11.526  19.229  0.00  0.00    +0.000 A 
ATOM     26  C   UNL     1      -3.518  12.215  19.358  0.00  0.00    +0.000 A 
BRANCH  21  28
ATOM     27  C   UNL     1      -6.920  11.898  17.891  0.00  0.00    +0.000 C 
ATOM     28  O   UNL     1      -5.881  12.429  18.710  0.00  0.00    +0.000 OA
ENDBRANCH  21  28
ENDBRANCH  19  25
ENDBRANCH   1  19
BRANCH  14  29
ATOM     29  O   UNL     1       0.455  10.334  22.791  0.00  0.00    +0.000 OA
ATOM     30  C   UNL     1      -0.612   9.458  23.092  0.00  0.00    +0.000 C 
ENDBRANCH  14  29
TORSDOF 4
ENDMDL
MODEL 9
REMARK VINA RESULT:      -7.2      9.058     11.267
REMARK  Name = 
REMARK  6 active torsions:
REMARK  status: ('A' for Active; 'I' for Inactive)
REMARK    1  A    between atoms: C_1  and  O_2
REMARK    2  A    between atoms: O_2  and  C_3
REMARK    3  A    between atoms: C_7  and  N_8
REMARK    4  A    between atoms: N_8  and  C_9
REMARK    5  A    between atoms: C_22  and  O_23
REMARK    6  A    between atoms: O_23  and  C_24
REMARK                            x       y       z     vdW  Elec       q    Type
REMARK                         _______ _______ _______ _____ _____    ______ ____
ROOT
ATOM      1  C   UNL     1      -1.253  12.634  20.748  0.00  0.00    +0.000 A 
ATOM      2  N   UNL     1      -2.550  12.285  20.436  0.00  0.00    +0.000 NA
ATOM      3  C   UNL     1      -3.433  12.487  21.425  0.00  0.00    +0.000 A 
ATOM      4  C   UNL     1      -4.501  13.337  21.188  0.00  0.00    +0.000 A 
ATOM      5  C   UNL     1      -5.206  13.913  22.248  0.00  0.00    +0.000 A 
ATOM      6  C   UNL     1      -4.946  13.507  23.556  0.00  0.00    +0.000 A 
ATOM      7  C   UNL     1      -3.872  12.657  23.820  0.00  0.00    +0.000 A 
ATOM      8  C   UNL     1      -3.031  12.291  22.766  0.00  0.00    +0.000 A 
ATOM      9  C   UNL     1      -1.663  12.356  22.963  0.00  0.00    +0.000 A 
ATOM     10  C   UNL     1      -1.178  13.205  22.028  0.00  0.00    +0.000 A 
ATOM     11  C   UNL     1       0.032  13.416  21.523  0.00  0.00    +0.000 A 
ATOM     12  C   UNL     1      -0.492  14.307  19.953  0.00  0.00    +0.000 A 
ATOM     13  C   UNL     1      -1.084  13.224  18.639  0.00  0.00    +0.000 A 
ATOM     14  C   UNL     1      -1.017  11.423  18.824  0.00  0.00    +0.000 A 
ATOM     15  C   UNL     1      -0.329  10.643  20.279  0.00  0.00    +0.000 A 
ATOM     16  C   UNL     1       0.256  11.576  21.684  0.00  0.00    +0.000 A 
ATOM     17  C   UNL     1      -0.692  11.213  22.838  0.00  0.00    +0.000 C 
ATOM     18  O   UNL     1      -0.728  10.163  23.442  0.00  0.00    +0.000 OA
ENDROOT
BRANCH   1  19
ATOM     19  N   UNL     1       0.528  12.542  19.864  0.00  0.00    +0.000 N 
ATOM     20  H   UNL     1       0.597  12.026  18.990  0.00  0.00    +0.000 HD
BRANCH  19  25
ATOM     21  C   UNL     1       3.883  14.439  20.583  0.00  0.00    +0.000 A 
ATOM     22  C   UNL     1       4.275  14.683  19.272  0.00  0.00    +0.000 A 
ATOM     23  C   UNL     1       3.505  14.222  18.204  0.00  0.00    +0.000 A 
ATOM     24  C   UNL     1       2.326  13.513  18.441  0.00  0.00    +0.000 A 
ATOM     25  C   UNL     1       1.889  13.264  19.758  0.00  0.00    +0.000 A 
ATOM     26  C   UNL     1       2.715  13.713  20.818  0.00  0.00    +0.000 A 
BRANCH  21  28
ATOM     27  C   UNL     1       5.442  14.069  22.357  0.00  0.00    +0.000 C 
ATOM     28  O   UNL     1       4.696  14.974  21.547  0.00  0.00    +0.000 OA
ENDBRANCH  21  28
ENDBRANCH  19  25
ENDBRANCH   1  19
BRANCH  14  29
ATOM     29  O   UNL     1      -1.284  10.522  17.831  0.00  0.00    +0.000 OA
ATOM     30  C   UNL     1      -2.642  10.159  17.679  0.00  0.00    +0.000 C 
ENDBRANCH  14  29
TORSDOF 4
ENDMDL
