MODEL 1
REMARK VINA RESULT:      -8.0      0.000      0.000
REMARK  Name = 
REMARK  4 active torsions:
REMARK  status: ('A' for Active; 'I' for Inactive)
REMARK    1  A    between atoms: C_5  and  C_6
REMARK    2  A    between atoms: C_6  and  N_7
REMARK    3  A    between atoms: C_10  and  N_11
REMARK    4  A    between atoms: C_23  and  C_24
REMARK                            x       y       z     vdW  Elec       q    Type
REMARK                         _______ _______ _______ _____ _____    ______ ____
ROOT
ATOM      1  N   UNL     1      -1.476  14.350  23.171  0.00  0.00    +0.000 N 
ATOM      2  N   UNL     1      -1.174  15.654  23.350  0.00  0.00    +0.000 NA
ATOM      3  C   UNL     1      -0.240  15.890  22.430  0.00  0.00    +0.000 A 
ATOM      4  C   UNL     1       0.092  14.748  21.660  0.00  0.00    +0.000 A 
ATOM      5  C   UNL     1       0.972  14.413  20.618  0.00  0.00    +0.000 A 
ATOM      6  N   UNL     1       1.925  15.249  20.018  0.00  0.00    +0.000 N 
ATOM      7  C   UNL     1       2.043  15.089  18.554  0.00  0.00    +0.000 C 
ATOM      8  C   UNL     1       3.383  15.660  18.059  0.00  0.00    +0.000 C 
ATOM      9  O   UNL     1       3.546  17.035  18.439  0.00  0.00    +0.000 OA
ATOM     10  C   UNL     1       3.524  17.144  19.869  0.00  0.00    +0.000 C 
ATOM     11  C   UNL     1       2.192  16.632  20.464  0.00  0.00    +0.000 C 
ATOM     12  N   UNL     1       0.953  13.083  20.242  0.00  0.00    +0.000 NA
ATOM     13  C   UNL     1       0.183  12.141  20.870  0.00  0.00    +0.000 A 
ATOM     14  N   UNL     1      -0.727  12.425  21.825  0.00  0.00    +0.000 NA
ATOM     15  C   UNL     1      -0.724  13.743  22.177  0.00  0.00    +0.000 A 
ENDROOT
BRANCH  13  16
ATOM     16  C   UNL     1       0.595  10.683  20.626  0.00  0.00    +0.000 A 
ATOM     17  C   UNL     1       0.568   9.626  21.576  0.00  0.00    +0.000 A 
ATOM     18  C   UNL     1       1.158   8.354  21.345  0.00  0.00    +0.000 A 
ATOM     19  C   UNL     1       1.722   8.081  20.088  0.00  0.00    +0.000 A 
ATOM     20  N   UNL     1       2.371   6.977  19.572  0.00  0.00    +0.000 N 
ATOM     21  C   UNL     1       2.509   7.103  18.213  0.00  0.00    +0.000 A 
ATOM     22  C   UNL     1       2.129   8.386  17.889  0.00  0.00    +0.000 A 
ATOM     23  C   UNL     1       1.650   9.025  19.069  0.00  0.00    +0.000 A 
ATOM     24  C   UNL     1       1.123  10.313  19.360  0.00  0.00    +0.000 A 
ATOM     25  H   UNL     1       2.668   6.162  20.101  0.00  0.00    +0.000 HD
ENDBRANCH  13  16
BRANCH   1  29
ATOM     26  N   UNL     1      -5.060  13.777  22.643  0.00  0.00    +0.000 NA
ATOM     27  C   UNL     1      -4.151  12.670  22.414  0.00  0.00    +0.000 C 
ATOM     28  C   UNL     1      -3.086  12.427  23.490  0.00  0.00    +0.000 C 
ATOM     29  C   UNL     1      -2.448  13.706  24.044  0.00  0.00    +0.000 C 
ATOM     30  C   UNL     1      -3.558  14.634  24.522  0.00  0.00    +0.000 C 
ATOM     31  C   UNL     1      -4.665  14.889  23.490  0.00  0.00    +0.000 C 
BRANCH  26  32
ATOM     32  C   UNL     1      -5.982  14.103  21.530  0.00  0.00    +0.000 C 
BRANCH  32  37
ATOM     33  C   UNL     1      -7.232  10.899  19.734  0.00  0.00    +0.000 A 
ATOM     34  C   UNL     1      -6.655  11.124  18.518  0.00  0.00    +0.000 A 
ATOM     35  N   UNL     1      -6.018  12.260  18.201  0.00  0.00    +0.000 NA
ATOM     36  C   UNL     1      -5.942  13.198  19.178  0.00  0.00    +0.000 A 
ATOM     37  C   UNL     1      -6.433  13.084  20.480  0.00  0.00    +0.000 A 
ATOM     38  C   UNL     1      -7.125  11.902  20.737  0.00  0.00    +0.000 A 
ENDBRANCH  32  37
ENDBRANCH  26  32
ENDBRANCH   1  29
TORSDOF 4
ENDMDL
MODEL 2
REMARK VINA RESULT:      -8.0      5.022      8.106
REMARK  Name = 
REMARK  4 active torsions:
REMARK  status: ('A' for Active; 'I' for Inactive)
REMARK    1  A    between atoms: C_5  and  C_6
REMARK    2  A    between atoms: C_6  and  N_7
REMARK    3  A    between atoms: C_10  and  N_11
REMARK    4  A    between atoms: C_23  and  C_24
REMARK                            x       y       z     vdW  Elec       q    Type
REMARK                         _______ _______ _______ _____ _____    ______ ____
ROOT
ATOM      1  N   UNL     1       3.504  14.616  20.070  0.00  0.00    +0.000 N 
ATOM      2  N   UNL     1       2.808  14.198  21.150  0.00  0.00    +0.000 NA
ATOM      3  C   UNL     1       3.710  14.216  22.131  0.00  0.00    +0.000 A 
ATOM      4  C   UNL     1       4.998  14.621  21.703  0.00  0.00    +0.000 A 
ATOM      5  C   UNL     1       6.274  14.801  22.263  0.00  0.00    +0.000 A 
ATOM      6  N   UNL     1       6.658  14.535  23.586  0.00  0.00    +0.000 N 
ATOM      7  C   UNL     1       7.584  15.531  24.164  0.00  0.00    +0.000 C 
ATOM      8  C   UNL     1       8.310  14.941  25.385  0.00  0.00    +0.000 C 
ATOM      9  O   UNL     1       7.383  14.467  26.374  0.00  0.00    +0.000 OA
ATOM     10  C   UNL     1       6.564  13.434  25.810  0.00  0.00    +0.000 C 
ATOM     11  C   UNL     1       5.756  13.941  24.593  0.00  0.00    +0.000 C 
ATOM     12  N   UNL     1       7.258  15.170  21.367  0.00  0.00    +0.000 NA
ATOM     13  C   UNL     1       7.034  15.297  20.021  0.00  0.00    +0.000 A 
ATOM     14  N   UNL     1       5.816  15.205  19.448  0.00  0.00    +0.000 NA
ATOM     15  C   UNL     1       4.841  14.864  20.340  0.00  0.00    +0.000 A 
ENDROOT
BRANCH  13  16
ATOM     16  C   UNL     1       8.289  15.285  19.139  0.00  0.00    +0.000 A 
ATOM     17  C   UNL     1       8.863  16.399  18.470  0.00  0.00    +0.000 A 
ATOM     18  C   UNL     1       9.899  16.281  17.503  0.00  0.00    +0.000 A 
ATOM     19  C   UNL     1      10.456  15.016  17.251  0.00  0.00    +0.000 A 
ATOM     20  N   UNL     1      11.435  14.580  16.381  0.00  0.00    +0.000 N 
ATOM     21  C   UNL     1      11.803  13.295  16.691  0.00  0.00    +0.000 A 
ATOM     22  C   UNL     1      10.909  12.838  17.631  0.00  0.00    +0.000 A 
ATOM     23  C   UNL     1      10.035  13.908  17.981  0.00  0.00    +0.000 A 
ATOM     24  C   UNL     1       8.944  14.051  18.881  0.00  0.00    +0.000 A 
ATOM     25  H   UNL     1      11.864  15.134  15.645  0.00  0.00    +0.000 HD
ENDBRANCH  13  16
BRANCH   1  29
ATOM     26  N   UNL     1       0.449  12.949  18.912  0.00  0.00    +0.000 NA
ATOM     27  C   UNL     1       0.357  14.339  19.315  0.00  0.00    +0.000 C 
ATOM     28  C   UNL     1       1.439  15.281  18.773  0.00  0.00    +0.000 C 
ATOM     29  C   UNL     1       2.850  14.683  18.770  0.00  0.00    +0.000 C 
ATOM     30  C   UNL     1       2.811  13.352  18.029  0.00  0.00    +0.000 C 
ATOM     31  C   UNL     1       1.726  12.382  18.517  0.00  0.00    +0.000 C 
BRANCH  26  32
ATOM     32  C   UNL     1      -0.503  12.019  19.562  0.00  0.00    +0.000 C 
BRANCH  32  37
ATOM     33  C   UNL     1       0.297   9.066  21.948  0.00  0.00    +0.000 A 
ATOM     34  C   UNL     1      -0.109   9.646  23.114  0.00  0.00    +0.000 A 
ATOM     35  N   UNL     1      -0.490  10.928  23.208  0.00  0.00    +0.000 NA
ATOM     36  C   UNL     1      -0.485  11.642  22.054  0.00  0.00    +0.000 A 
ATOM     37  C   UNL     1      -0.151  11.166  20.784  0.00  0.00    +0.000 A 
ATOM     38  C   UNL     1       0.282   9.843  20.757  0.00  0.00    +0.000 A 
ENDBRANCH  32  37
ENDBRANCH  26  32
ENDBRANCH   1  29
TORSDOF 4
ENDMDL
MODEL 3
REMARK VINA RESULT:      -8.0      2.017      4.168
REMARK  Name = 
REMARK  4 active torsions:
REMARK  status: ('A' for Active; 'I' for Inactive)
REMARK    1  A    between atoms: C_5  and  C_6
REMARK    2  A    between atoms: C_6  and  N_7
REMARK    3  A    between atoms: C_10  and  N_11
REMARK    4  A    between atoms: C_23  and  C_24
REMARK                            x       y       z     vdW  Elec       q    Type
REMARK                         _______ _______ _______ _____ _____    ______ ____
ROOT
ATOM      1  N   UNL     1      -2.133  13.878  20.488  0.00  0.00    +0.000 N 
ATOM      2  N   UNL     1      -1.935  15.211  20.589  0.00  0.00    +0.000 NA
ATOM      3  C   UNL     1      -0.684  15.376  20.163  0.00  0.00    +0.000 A 
ATOM      4  C   UNL     1      -0.048  14.163  19.803  0.00  0.00    +0.000 A 
ATOM      5  C   UNL     1       1.207  13.743  19.329  0.00  0.00    +0.000 A 
ATOM      6  N   UNL     1       2.334  14.547  19.105  0.00  0.00    +0.000 N 
ATOM      7  C   UNL     1       3.101  14.199  17.892  0.00  0.00    +0.000 C 
ATOM      8  C   UNL     1       4.525  14.777  17.975  0.00  0.00    +0.000 C 
ATOM      9  O   UNL     1       4.507  16.198  18.179  0.00  0.00    +0.000 OA
ATOM     10  C   UNL     1       3.841  16.498  19.413  0.00  0.00    +0.000 C 
ATOM     11  C   UNL     1       2.380  15.991  19.415  0.00  0.00    +0.000 C 
ATOM     12  N   UNL     1       1.350  12.377  19.187  0.00  0.00    +0.000 NA
ATOM     13  C   UNL     1       0.372  11.483  19.533  0.00  0.00    +0.000 A 
ATOM     14  N   UNL     1      -0.870  11.838  19.923  0.00  0.00    +0.000 NA
ATOM     15  C   UNL     1      -1.017  13.189  20.039  0.00  0.00    +0.000 A 
ENDROOT
BRANCH  13  16
ATOM     16  C   UNL     1       0.839  10.032  19.718  0.00  0.00    +0.000 A 
ATOM     17  C   UNL     1       0.653   9.226  20.873  0.00  0.00    +0.000 A 
ATOM     18  C   UNL     1       1.292   7.969  21.058  0.00  0.00    +0.000 A 
ATOM     19  C   UNL     1       2.076   7.443  20.019  0.00  0.00    +0.000 A 
ATOM     20  N   UNL     1       2.821   6.287  19.901  0.00  0.00    +0.000 N 
ATOM     21  C   UNL     1       3.200   6.100  18.595  0.00  0.00    +0.000 A 
ATOM     22  C   UNL     1       2.870   7.250  17.914  0.00  0.00    +0.000 A 
ATOM     23  C   UNL     1       2.177   8.119  18.807  0.00  0.00    +0.000 A 
ATOM     24  C   UNL     1       1.591   9.408  18.687  0.00  0.00    +0.000 A 
ATOM     25  H   UNL     1       3.028   5.634  20.652  0.00  0.00    +0.000 HD
ENDBRANCH  13  16
BRANCH   1  29
ATOM     26  N   UNL     1      -4.118  14.584  23.491  0.00  0.00    +0.000 NA
ATOM     27  C   UNL     1      -4.526  15.198  22.242  0.00  0.00    +0.000 C 
ATOM     28  C   UNL     1      -4.572  14.283  21.013  0.00  0.00    +0.000 C 
ATOM     29  C   UNL     1      -3.401  13.300  20.916  0.00  0.00    +0.000 C 
ATOM     30  C   UNL     1      -3.313  12.519  22.221  0.00  0.00    +0.000 C 
ATOM     31  C   UNL     1      -3.291  13.389  23.485  0.00  0.00    +0.000 C 
BRANCH  26  32
ATOM     32  C   UNL     1      -3.924  15.503  24.636  0.00  0.00    +0.000 C 
BRANCH  32  37
ATOM     33  C   UNL     1      -0.697  17.651  24.489  0.00  0.00    +0.000 A 
ATOM     34  C   UNL     1       0.072  16.898  25.329  0.00  0.00    +0.000 A 
ATOM     35  N   UNL     1      -0.397  15.851  26.021  0.00  0.00    +0.000 NA
ATOM     36  C   UNL     1      -1.704  15.539  25.827  0.00  0.00    +0.000 A 
ATOM     37  C   UNL     1      -2.591  16.181  24.960  0.00  0.00    +0.000 A 
ATOM     38  C   UNL     1      -2.060  17.289  24.303  0.00  0.00    +0.000 A 
ENDBRANCH  32  37
ENDBRANCH  26  32
ENDBRANCH   1  29
TORSDOF 4
ENDMDL
MODEL 4
REMARK VINA RESULT:      -8.0      2.306      4.454
REMARK  Name = 
REMARK  4 active torsions:
REMARK  status: ('A' for Active; 'I' for Inactive)
REMARK    1  A    between atoms: C_5  and  C_6
REMARK    2  A    between atoms: C_6  and  N_7
REMARK    3  A    between atoms: C_10  and  N_11
REMARK    4  A    between atoms: C_23  and  C_24
REMARK                            x       y       z     vdW  Elec       q    Type
REMARK                         _______ _______ _______ _____ _____    ______ ____
ROOT
ATOM      1  N   UNL     1      -2.143  11.244  17.866  0.00  0.00    +0.000 N 
ATOM      2  N   UNL     1      -2.635  12.385  18.396  0.00  0.00    +0.000 NA
ATOM      3  C   UNL     1      -1.597  12.901  19.052  0.00  0.00    +0.000 A 
ATOM      4  C   UNL     1      -0.431  12.100  18.977  0.00  0.00    +0.000 A 
ATOM      5  C   UNL     1       0.887  12.129  19.463  0.00  0.00    +0.000 A 
ATOM      6  N   UNL     1       1.449  13.089  20.317  0.00  0.00    +0.000 N 
ATOM      7  C   UNL     1       2.840  13.461  19.987  0.00  0.00    +0.000 C 
ATOM      8  C   UNL     1       3.520  14.120  21.199  0.00  0.00    +0.000 C 
ATOM      9  O   UNL     1       2.781  15.260  21.665  0.00  0.00    +0.000 OA
ATOM     10  C   UNL     1       1.469  14.849  22.069  0.00  0.00    +0.000 C 
ATOM     11  C   UNL     1       0.683  14.207  20.903  0.00  0.00    +0.000 C 
ATOM     12  N   UNL     1       1.653  11.024  19.141  0.00  0.00    +0.000 NA
ATOM     13  C   UNL     1       1.159   9.948  18.451  0.00  0.00    +0.000 A 
ATOM     14  N   UNL     1      -0.074   9.905  17.905  0.00  0.00    +0.000 NA
ATOM     15  C   UNL     1      -0.819  11.007  18.204  0.00  0.00    +0.000 A 
ENDROOT
BRANCH  13  16
ATOM     16  C   UNL     1       1.988   8.661  18.556  0.00  0.00    +0.000 A 
ATOM     17  C   UNL     1       3.038   8.259  17.687  0.00  0.00    +0.000 A 
ATOM     18  C   UNL     1       3.621   6.963  17.714  0.00  0.00    +0.000 A 
ATOM     19  C   UNL     1       3.212   6.051  18.702  0.00  0.00    +0.000 A 
ATOM     20  N   UNL     1       3.564   4.745  18.974  0.00  0.00    +0.000 N 
ATOM     21  C   UNL     1       3.076   4.370  20.201  0.00  0.00    +0.000 A 
ATOM     22  C   UNL     1       2.233   5.375  20.620  0.00  0.00    +0.000 A 
ATOM     23  C   UNL     1       2.291   6.437  19.672  0.00  0.00    +0.000 A 
ATOM     24  C   UNL     1       1.673   7.712  19.565  0.00  0.00    +0.000 A 
ATOM     25  H   UNL     1       4.141   4.150  18.386  0.00  0.00    +0.000 HD
ENDBRANCH  13  16
BRANCH   1  29
ATOM     26  N   UNL     1      -5.803  10.999  17.898  0.00  0.00    +0.000 NA
ATOM     27  C   UNL     1      -5.177  11.740  16.819  0.00  0.00    +0.000 C 
ATOM     28  C   UNL     1      -3.978  11.072  16.136  0.00  0.00    +0.000 C 
ATOM     29  C   UNL     1      -3.018  10.366  17.100  0.00  0.00    +0.000 C 
ATOM     30  C   UNL     1      -3.818   9.392  17.957  0.00  0.00    +0.000 C 
ATOM     31  C   UNL     1      -5.047  10.007  18.642  0.00  0.00    +0.000 C 
BRANCH  26  32
ATOM     32  C   UNL     1      -6.857  11.716  18.654  0.00  0.00    +0.000 C 
BRANCH  32  37
ATOM     33  C   UNL     1      -5.327  13.490  21.746  0.00  0.00    +0.000 A 
ATOM     34  C   UNL     1      -6.082  12.884  22.707  0.00  0.00    +0.000 A 
ATOM     35  N   UNL     1      -7.106  12.064  22.435  0.00  0.00    +0.000 NA
ATOM     36  C   UNL     1      -7.355  11.829  21.122  0.00  0.00    +0.000 A 
ATOM     37  C   UNL     1      -6.633  12.333  20.037  0.00  0.00    +0.000 A 
ATOM     38  C   UNL     1      -5.611  13.214  20.380  0.00  0.00    +0.000 A 
ENDBRANCH  32  37
ENDBRANCH  26  32
ENDBRANCH   1  29
TORSDOF 4
ENDMDL
MODEL 5
REMARK VINA RESULT:      -7.9      2.834      8.293
REMARK  Name = 
REMARK  4 active torsions:
REMARK  status: ('A' for Active; 'I' for Inactive)
REMARK    1  A    between atoms: C_5  and  C_6
REMARK    2  A    between atoms: C_6  and  N_7
REMARK    3  A    between atoms: C_10  and  N_11
REMARK    4  A    between atoms: C_23  and  C_24
REMARK                            x       y       z     vdW  Elec       q    Type
REMARK                         _______ _______ _______ _____ _____    ______ ____
ROOT
ATOM      1  N   UNL     1       0.794  11.675  19.883  0.00  0.00    +0.000 N 
ATOM      2  N   UNL     1       1.844  11.915  19.068  0.00  0.00    +0.000 NA
ATOM      3  C   UNL     1       2.353  13.053  19.539  0.00  0.00    +0.000 A 
ATOM      4  C   UNL     1       1.636  13.575  20.643  0.00  0.00    +0.000 A 
ATOM      5  C   UNL     1       1.696  14.694  21.490  0.00  0.00    +0.000 A 
ATOM      6  N   UNL     1       2.598  15.765  21.408  0.00  0.00    +0.000 N 
ATOM      7  C   UNL     1       3.084  16.255  22.714  0.00  0.00    +0.000 C 
ATOM      8  C   UNL     1       3.659  17.675  22.574  0.00  0.00    +0.000 C 
ATOM      9  O   UNL     1       4.700  17.729  21.585  0.00  0.00    +0.000 OA
ATOM     10  C   UNL     1       4.172  17.342  20.310  0.00  0.00    +0.000 C 
ATOM     11  C   UNL     1       3.604  15.904  20.336  0.00  0.00    +0.000 C 
ATOM     12  N   UNL     1       0.678  14.778  22.420  0.00  0.00    +0.000 NA
ATOM     13  C   UNL     1      -0.352  13.876  22.484  0.00  0.00    +0.000 A 
ATOM     14  N   UNL     1      -0.415  12.751  21.742  0.00  0.00    +0.000 NA
ATOM     15  C   UNL     1       0.605  12.659  20.841  0.00  0.00    +0.000 A 
ENDROOT
BRANCH  13  16
ATOM     16  C   UNL     1      -1.591  14.343  23.260  0.00  0.00    +0.000 A 
ATOM     17  C   UNL     1      -2.723  13.554  23.599  0.00  0.00    +0.000 A 
ATOM     18  C   UNL     1      -3.923  14.099  24.132  0.00  0.00    +0.000 A 
ATOM     19  C   UNL     1      -3.976  15.471  24.429  0.00  0.00    +0.000 A 
ATOM     20  N   UNL     1      -4.976  16.284  24.925  0.00  0.00    +0.000 N 
ATOM     21  C   UNL     1      -4.459  17.504  25.280  0.00  0.00    +0.000 A 
ATOM     22  C   UNL     1      -3.163  17.541  24.817  0.00  0.00    +0.000 A 
ATOM     23  C   UNL     1      -2.850  16.269  24.256  0.00  0.00    +0.000 A 
ATOM     24  C   UNL     1      -1.695  15.706  23.647  0.00  0.00    +0.000 A 
ATOM     25  H   UNL     1      -5.947  16.017  25.058  0.00  0.00    +0.000 HD
ENDBRANCH  13  16
BRANCH   1  29
ATOM     26  N   UNL     1       1.720   8.298  18.790  0.00  0.00    +0.000 NA
ATOM     27  C   UNL     1       1.469   8.513  20.202  0.00  0.00    +0.000 C 
ATOM     28  C   UNL     1       0.208   9.310  20.558  0.00  0.00    +0.000 C 
ATOM     29  C   UNL     1      -0.055  10.514  19.646  0.00  0.00    +0.000 C 
ATOM     30  C   UNL     1      -0.056  10.036  18.199  0.00  0.00    +0.000 C 
ATOM     31  C   UNL     1       1.174   9.209  17.799  0.00  0.00    +0.000 C 
BRANCH  26  32
ATOM     32  C   UNL     1       3.016   7.667  18.449  0.00  0.00    +0.000 C 
BRANCH  32  37
ATOM     33  C   UNL     1       2.389   3.867  17.985  0.00  0.00    +0.000 A 
ATOM     34  C   UNL     1       3.643   3.426  18.295  0.00  0.00    +0.000 A 
ATOM     35  N   UNL     1       4.681   4.246  18.511  0.00  0.00    +0.000 NA
ATOM     36  C   UNL     1       4.423   5.576  18.435  0.00  0.00    +0.000 A 
ATOM     37  C   UNL     1       3.183   6.168  18.185  0.00  0.00    +0.000 A 
ATOM     38  C   UNL     1       2.153   5.268  17.924  0.00  0.00    +0.000 A 
ENDBRANCH  32  37
ENDBRANCH  26  32
ENDBRANCH   1  29
TORSDOF 4
ENDMDL
MODEL 6
REMARK VINA RESULT:      -7.8      5.350      7.995
REMARK  Name = 
REMARK  4 active torsions:
REMARK  status: ('A' for Active; 'I' for Inactive)
REMARK    1  A    between atoms: C_5  and  C_6
REMARK    2  A    between atoms: C_6  and  N_7
REMARK    3  A    between atoms: C_10  and  N_11
REMARK    4  A    between atoms: C_23  and  C_24
REMARK                            x       y       z     vdW  Elec       q    Type
REMARK                         _______ _______ _______ _____ _____    ______ ____
ROOT
ATOM      1  N   UNL     1       3.763  14.939  20.228  0.00  0.00    +0.000 N 
ATOM      2  N   UNL     1       2.930  14.888  21.291  0.00  0.00    +0.000 NA
ATOM      3  C   UNL     1       3.757  14.834  22.334  0.00  0.00    +0.000 A 
ATOM      4  C   UNL     1       5.125  14.826  21.968  0.00  0.00    +0.000 A 
ATOM      5  C   UNL     1       6.375  14.764  22.607  0.00  0.00    +0.000 A 
ATOM      6  N   UNL     1       6.612  14.624  23.982  0.00  0.00    +0.000 N 
ATOM      7  C   UNL     1       7.739  15.432  24.492  0.00  0.00    +0.000 C 
ATOM      8  C   UNL     1       8.225  14.880  25.843  0.00  0.00    +0.000 C 
ATOM      9  O   UNL     1       7.159  14.821  26.805  0.00  0.00    +0.000 OA
ATOM     10  C   UNL     1       6.125  13.952  26.323  0.00  0.00    +0.000 C 
ATOM     11  C   UNL     1       5.538  14.447  24.981  0.00  0.00    +0.000 C 
ATOM     12  N   UNL     1       7.463  14.724  21.757  0.00  0.00    +0.000 NA
ATOM     13  C   UNL     1       7.345  14.688  20.392  0.00  0.00    +0.000 A 
ATOM     14  N   UNL     1       6.174  14.817  19.734  0.00  0.00    +0.000 NA
ATOM     15  C   UNL     1       5.103  14.880  20.576  0.00  0.00    +0.000 A 
ENDROOT
BRANCH  13  16
ATOM     16  C   UNL     1       8.593  14.217  19.634  0.00  0.00    +0.000 A 
ATOM     17  C   UNL     1       9.024  14.664  18.355  0.00  0.00    +0.000 A 
ATOM     18  C   UNL     1      10.068  14.038  17.621  0.00  0.00    +0.000 A 
ATOM     19  C   UNL     1      10.779  12.981  18.212  0.00  0.00    +0.000 A 
ATOM     20  N   UNL     1      11.807  12.176  17.762  0.00  0.00    +0.000 N 
ATOM     21  C   UNL     1      12.333  11.455  18.804  0.00  0.00    +0.000 A 
ATOM     22  C   UNL     1      11.501  11.647  19.884  0.00  0.00    +0.000 A 
ATOM     23  C   UNL     1      10.500  12.594  19.519  0.00  0.00    +0.000 A 
ATOM     24  C   UNL     1       9.398  13.189  20.192  0.00  0.00    +0.000 A 
ATOM     25  H   UNL     1      12.164  12.146  16.812  0.00  0.00    +0.000 HD
ENDBRANCH  13  16
BRANCH   1  29
ATOM     26  N   UNL     1       0.749  13.310  18.916  0.00  0.00    +0.000 NA
ATOM     27  C   UNL     1       0.674  14.721  19.244  0.00  0.00    +0.000 C 
ATOM     28  C   UNL     1       1.826  15.601  18.744  0.00  0.00    +0.000 C 
ATOM     29  C   UNL     1       3.212  14.961  18.879  0.00  0.00    +0.000 C 
ATOM     30  C   UNL     1       3.184  13.596  18.201  0.00  0.00    +0.000 C 
ATOM     31  C   UNL     1       2.032  12.685  18.649  0.00  0.00    +0.000 C 
BRANCH  26  32
ATOM     32  C   UNL     1      -0.282  12.443  19.534  0.00  0.00    +0.000 C 
BRANCH  32  37
ATOM     33  C   UNL     1       0.395   9.296  21.699  0.00  0.00    +0.000 A 
ATOM     34  C   UNL     1      -0.083   9.774  22.885  0.00  0.00    +0.000 A 
ATOM     35  N   UNL     1      -0.477  11.041  23.066  0.00  0.00    +0.000 NA
ATOM     36  C   UNL     1      -0.408  11.853  21.981  0.00  0.00    +0.000 A 
ATOM     37  C   UNL     1       0.004  11.489  20.696  0.00  0.00    +0.000 A 
ATOM     38  C   UNL     1       0.445  10.173  20.580  0.00  0.00    +0.000 A 
ENDBRANCH  32  37
ENDBRANCH  26  32
ENDBRANCH   1  29
TORSDOF 4
ENDMDL
MODEL 7
REMARK VINA RESULT:      -7.8      5.128      8.506
REMARK  Name = 
REMARK  4 active torsions:
REMARK  status: ('A' for Active; 'I' for Inactive)
REMARK    1  A    between atoms: C_5  and  C_6
REMARK    2  A    between atoms: C_6  and  N_7
REMARK    3  A    between atoms: C_10  and  N_11
REMARK    4  A    between atoms: C_23  and  C_24
REMARK                            x       y       z     vdW  Elec       q    Type
REMARK                         _______ _______ _______ _____ _____    ______ ____
ROOT
ATOM      1  N   UNL     1       3.586  14.802  20.321  0.00  0.00    +0.000 N 
ATOM      2  N   UNL     1       2.902  14.296  21.371  0.00  0.00    +0.000 NA
ATOM      3  C   UNL     1       3.838  14.124  22.303  0.00  0.00    +0.000 A 
ATOM      4  C   UNL     1       5.136  14.490  21.871  0.00  0.00    +0.000 A 
ATOM      5  C   UNL     1       6.442  14.506  22.389  0.00  0.00    +0.000 A 
ATOM      6  N   UNL     1       6.854  14.044  23.647  0.00  0.00    +0.000 N 
ATOM      7  C   UNL     1       7.873  14.889  24.304  0.00  0.00    +0.000 C 
ATOM      8  C   UNL     1       8.598  14.095  25.404  0.00  0.00    +0.000 C 
ATOM      9  O   UNL     1       7.675  13.562  26.368  0.00  0.00    +0.000 OA
ATOM     10  C   UNL     1       6.761  12.671  25.715  0.00  0.00    +0.000 C 
ATOM     11  C   UNL     1       5.948  13.388  24.612  0.00  0.00    +0.000 C 
ATOM     12  N   UNL     1       7.417  14.919  21.502  0.00  0.00    +0.000 NA
ATOM     13  C   UNL     1       7.153  15.237  20.195  0.00  0.00    +0.000 A 
ATOM     14  N   UNL     1       5.911  15.305  19.673  0.00  0.00    +0.000 NA
ATOM     15  C   UNL     1       4.947  14.920  20.558  0.00  0.00    +0.000 A 
ENDROOT
BRANCH  13  16
ATOM     16  C   UNL     1       8.370  15.252  19.261  0.00  0.00    +0.000 A 
ATOM     17  C   UNL     1       8.959  16.396  18.658  0.00  0.00    +0.000 A 
ATOM     18  C   UNL     1       9.949  16.321  17.641  0.00  0.00    +0.000 A 
ATOM     19  C   UNL     1      10.446  15.062  17.265  0.00  0.00    +0.000 A 
ATOM     20  N   UNL     1      11.372  14.664  16.322  0.00  0.00    +0.000 N 
ATOM     21  C   UNL     1      11.703  13.346  16.511  0.00  0.00    +0.000 A 
ATOM     22  C   UNL     1      10.830  12.845  17.450  0.00  0.00    +0.000 A 
ATOM     23  C   UNL     1      10.013  13.914  17.922  0.00  0.00    +0.000 A 
ATOM     24  C   UNL     1       8.966  14.021  18.877  0.00  0.00    +0.000 A 
ATOM     25  H   UNL     1      11.792  15.260  15.614  0.00  0.00    +0.000 HD
ENDBRANCH  13  16
BRANCH   1  29
ATOM     26  N   UNL     1       1.071  12.801  18.554  0.00  0.00    +0.000 NA
ATOM     27  C   UNL     1       0.613  13.918  19.358  0.00  0.00    +0.000 C 
ATOM     28  C   UNL     1       1.371  15.240  19.186  0.00  0.00    +0.000 C 
ATOM     29  C   UNL     1       2.891  15.084  19.072  0.00  0.00    +0.000 C 
ATOM     30  C   UNL     1       3.195  14.089  17.959  0.00  0.00    +0.000 C 
ATOM     31  C   UNL     1       2.440  12.757  18.070  0.00  0.00    +0.000 C 
BRANCH  26  32
ATOM     32  C   UNL     1       0.439  11.491  18.839  0.00  0.00    +0.000 C 
BRANCH  32  37
ATOM     33  C   UNL     1       2.263   8.149  18.095  0.00  0.00    +0.000 A 
ATOM     34  C   UNL     1       2.106   7.569  19.320  0.00  0.00    +0.000 A 
ATOM     35  N   UNL     1       1.585   8.205  20.378  0.00  0.00    +0.000 NA
ATOM     36  C   UNL     1       1.179   9.483  20.170  0.00  0.00    +0.000 A 
ATOM     37  C   UNL     1       1.225  10.183  18.962  0.00  0.00    +0.000 A 
ATOM     38  C   UNL     1       1.818   9.488  17.911  0.00  0.00    +0.000 A 
ENDBRANCH  32  37
ENDBRANCH  26  32
ENDBRANCH   1  29
TORSDOF 4
ENDMDL
MODEL 8
REMARK VINA RESULT:      -7.8      2.816      8.438
REMARK  Name = 
REMARK  4 active torsions:
REMARK  status: ('A' for Active; 'I' for Inactive)
REMARK    1  A    between atoms: C_5  and  C_6
REMARK    2  A    between atoms: C_6  and  N_7
REMARK    3  A    between atoms: C_10  and  N_11
REMARK    4  A    between atoms: C_23  and  C_24
REMARK                            x       y       z     vdW  Elec       q    Type
REMARK                         _______ _______ _______ _____ _____    ______ ____
ROOT
ATOM      1  N   UNL     1       1.119  11.269  19.418  0.00  0.00    +0.000 N 
ATOM      2  N   UNL     1       2.120  11.573  18.564  0.00  0.00    +0.000 NA
ATOM      3  C   UNL     1       2.598  12.723  19.037  0.00  0.00    +0.000 A 
ATOM      4  C   UNL     1       1.907  13.191  20.181  0.00  0.00    +0.000 A 
ATOM      5  C   UNL     1       1.953  14.295  21.049  0.00  0.00    +0.000 A 
ATOM      6  N   UNL     1       2.802  15.408  20.951  0.00  0.00    +0.000 N 
ATOM      7  C   UNL     1       3.323  15.894  22.245  0.00  0.00    +0.000 C 
ATOM      8  C   UNL     1       3.827  17.341  22.110  0.00  0.00    +0.000 C 
ATOM      9  O   UNL     1       4.820  17.462  21.080  0.00  0.00    +0.000 OA
ATOM     10  C   UNL     1       4.254  17.075  19.820  0.00  0.00    +0.000 C 
ATOM     11  C   UNL     1       3.753  15.613  19.839  0.00  0.00    +0.000 C 
ATOM     12  N   UNL     1       0.974  14.314  22.023  0.00  0.00    +0.000 NA
ATOM     13  C   UNL     1      -0.010  13.365  22.112  0.00  0.00    +0.000 A 
ATOM     14  N   UNL     1      -0.055  12.253  21.350  0.00  0.00    +0.000 NA
ATOM     15  C   UNL     1       0.928  12.225  20.404  0.00  0.00    +0.000 A 
ENDROOT
BRANCH  13  16
ATOM     16  C   UNL     1      -1.233  13.760  22.950  0.00  0.00    +0.000 A 
ATOM     17  C   UNL     1      -2.276  12.896  23.383  0.00  0.00    +0.000 A 
ATOM     18  C   UNL     1      -3.481  13.363  23.974  0.00  0.00    +0.000 A 
ATOM     19  C   UNL     1      -3.628  14.736  24.232  0.00  0.00    +0.000 A 
ATOM     20  N   UNL     1      -4.658  15.485  24.764  0.00  0.00    +0.000 N 
ATOM     21  C   UNL     1      -4.222  16.754  25.049  0.00  0.00    +0.000 A 
ATOM     22  C   UNL     1      -2.964  16.877  24.504  0.00  0.00    +0.000 A 
ATOM     23  C   UNL     1      -2.582  15.614  23.963  0.00  0.00    +0.000 A 
ATOM     24  C   UNL     1      -1.424  15.123  23.300  0.00  0.00    +0.000 A 
ATOM     25  H   UNL     1      -5.594  15.146  24.967  0.00  0.00    +0.000 HD
ENDBRANCH  13  16
BRANCH   1  29
ATOM     26  N   UNL     1       2.194   7.805  18.873  0.00  0.00    +0.000 NA
ATOM     27  C   UNL     1       1.734   8.176  20.197  0.00  0.00    +0.000 C 
ATOM     28  C   UNL     1       0.435   8.988  20.267  0.00  0.00    +0.000 C 
ATOM     29  C   UNL     1       0.314  10.075  19.193  0.00  0.00    +0.000 C 
ATOM     30  C   UNL     1       0.529   9.435  17.827  0.00  0.00    +0.000 C 
ATOM     31  C   UNL     1       1.804   8.587  17.713  0.00  0.00    +0.000 C 
BRANCH  26  32
ATOM     32  C   UNL     1       3.525   7.159  18.804  0.00  0.00    +0.000 C 
BRANCH  32  37
ATOM     33  C   UNL     1       4.479   4.169  16.523  0.00  0.00    +0.000 A 
ATOM     34  C   UNL     1       5.373   4.818  15.721  0.00  0.00    +0.000 A 
ATOM     35  N   UNL     1       5.590   6.139  15.775  0.00  0.00    +0.000 NA
ATOM     36  C   UNL     1       4.885   6.827  16.708  0.00  0.00    +0.000 A 
ATOM     37  C   UNL     1       3.983   6.290  17.630  0.00  0.00    +0.000 A 
ATOM     38  C   UNL     1       3.764   4.921  17.496  0.00  0.00    +0.000 A 
ENDBRANCH  32  37
ENDBRANCH  26  32
ENDBRANCH   1  29
TORSDOF 4
ENDMDL
MODEL 9
REMARK VINA RESULT:      -7.7      5.428      8.104
REMARK  Name = 
REMARK  4 active torsions:
REMARK  status: ('A' for Active; 'I' for Inactive)
REMARK    1  A    between atoms: C_5  and  C_6
REMARK    2  A    between atoms: C_6  and  N_7
REMARK    3  A    between atoms: C_10  and  N_11
REMARK    4  A    between atoms: C_23  and  C_24
REMARK                            x       y       z     vdW  Elec       q    Type
REMARK                         _______ _______ _______ _____ _____    ______ ____
ROOT
ATOM      1  N   UNL     1       4.083  15.984  20.688  0.00  0.00    +0.000 N 
ATOM      2  N   UNL     1       3.256  15.969  21.757  0.00  0.00    +0.000 NA
ATOM      3  C   UNL     1       3.999  15.426  22.721  0.00  0.00    +0.000 A 
ATOM      4  C   UNL     1       5.299  15.064  22.292  0.00  0.00    +0.000 A 
ATOM      5  C   UNL     1       6.449  14.468  22.837  0.00  0.00    +0.000 A 
ATOM      6  N   UNL     1       6.599  13.961  24.136  0.00  0.00    +0.000 N 
ATOM      7  C   UNL     1       7.914  14.235  24.750  0.00  0.00    +0.000 C 
ATOM      8  C   UNL     1       8.168  13.274  25.924  0.00  0.00    +0.000 C 
ATOM      9  O   UNL     1       7.120  13.347  26.904  0.00  0.00    +0.000 OA
ATOM     10  C   UNL     1       5.872  12.981  26.300  0.00  0.00    +0.000 C 
ATOM     11  C   UNL     1       5.504  13.919  25.127  0.00  0.00    +0.000 C 
ATOM     12  N   UNL     1       7.484  14.271  21.944  0.00  0.00    +0.000 NA
ATOM     13  C   UNL     1       7.389  14.576  20.612  0.00  0.00    +0.000 A 
ATOM     14  N   UNL     1       6.337  15.213  20.057  0.00  0.00    +0.000 NA
ATOM     15  C   UNL     1       5.326  15.427  20.947  0.00  0.00    +0.000 A 
ENDROOT
BRANCH  13  16
ATOM     16  C   UNL     1       8.436  13.912  19.707  0.00  0.00    +0.000 A 
ATOM     17  C   UNL     1       8.346  13.733  18.300  0.00  0.00    +0.000 A 
ATOM     18  C   UNL     1       9.250  12.926  17.556  0.00  0.00    +0.000 A 
ATOM     19  C   UNL     1      10.344  12.341  18.215  0.00  0.00    +0.000 A 
ATOM     20  N   UNL     1      11.361  11.512  17.788  0.00  0.00    +0.000 N 
ATOM     21  C   UNL     1      12.333  11.420  18.752  0.00  0.00    +0.000 A 
ATOM     22  C   UNL     1      11.835  12.030  19.882  0.00  0.00    +0.000 A 
ATOM     23  C   UNL     1      10.567  12.599  19.565  0.00  0.00    +0.000 A 
ATOM     24  C   UNL     1       9.600  13.345  20.292  0.00  0.00    +0.000 A 
ATOM     25  H   UNL     1      11.419  11.065  16.878  0.00  0.00    +0.000 HD
ENDBRANCH  13  16
BRANCH   1  29
ATOM     26  N   UNL     1       1.308  14.763  18.624  0.00  0.00    +0.000 NA
ATOM     27  C   UNL     1       1.081  15.934  19.449  0.00  0.00    +0.000 C 
ATOM     28  C   UNL     1       2.164  17.019  19.409  0.00  0.00    +0.000 C 
ATOM     29  C   UNL     1       3.598  16.477  19.406  0.00  0.00    +0.000 C 
ATOM     30  C   UNL     1       3.735  15.473  18.267  0.00  0.00    +0.000 C 
ATOM     31  C   UNL     1       2.657  14.380  18.247  0.00  0.00    +0.000 C 
BRANCH  26  32
ATOM     32  C   UNL     1       0.339  13.655  18.787  0.00  0.00    +0.000 C 
BRANCH  32  37
ATOM     33  C   UNL     1       0.719   9.896  19.669  0.00  0.00    +0.000 A 
ATOM     34  C   UNL     1       0.768  10.022  21.027  0.00  0.00    +0.000 A 
ATOM     35  N   UNL     1       0.817  11.203  21.658  0.00  0.00    +0.000 NA
ATOM     36  C   UNL     1       0.785  12.307  20.870  0.00  0.00    +0.000 A 
ATOM     37  C   UNL     1       0.677  12.331  19.477  0.00  0.00    +0.000 A 
ATOM     38  C   UNL     1       0.677  11.075  18.875  0.00  0.00    +0.000 A 
ENDBRANCH  32  37
ENDBRANCH  26  32
ENDBRANCH   1  29
TORSDOF 4
ENDMDL
