MODEL 1
REMARK VINA RESULT:      -7.3      0.000      0.000
REMARK  Name = 
REMARK  6 active torsions:
REMARK  status: ('A' for Active; 'I' for Inactive)
REMARK    1  A    between atoms: C_1  and  C_2
REMARK    2  A    between atoms: C_2  and  C_3
REMARK    3  A    between atoms: C_2  and  C_4
REMARK    4  A    between atoms: N_6  and  C_7
REMARK    5  A    between atoms: C_8  and  C_9
REMARK    6  A    between atoms: N_24  and  C_25
REMARK                            x       y       z     vdW  Elec       q    Type
REMARK                         _______ _______ _______ _____ _____    ______ ____
ROOT
ATOM      1  C   UNL     1       2.245   6.948  19.906  0.00  0.00    +0.000 A 
ATOM      2  C   UNL     1       2.791   7.199  18.677  0.00  0.00    +0.000 A 
ATOM      3  C   UNL     1       2.453   8.517  18.042  0.00  0.00    +0.000 A 
ATOM      4  O   UNL     1       2.884   8.840  16.936  0.00  0.00    +0.000 OA
ATOM      5  C   UNL     1       1.568   9.451  18.760  0.00  0.00    +0.000 A 
ATOM      6  C   UNL     1       1.312  10.707  18.172  0.00  0.00    +0.000 A 
ATOM      7  C   UNL     1       0.464  11.613  18.793  0.00  0.00    +0.000 A 
ATOM      8  C   UNL     1      -0.119  11.266  20.003  0.00  0.00    +0.000 A 
ATOM      9  C   UNL     1       0.145  10.020  20.582  0.00  0.00    +0.000 A 
ATOM     10  C   UNL     1       0.996   9.068  19.980  0.00  0.00    +0.000 A 
ATOM     11  N   UNL     1       1.295   7.795  20.526  0.00  0.00    +0.000 N 
ATOM     12  C   UNL     1       0.694   7.420  21.814  0.00  0.00    +0.000 C 
ENDROOT
BRANCH   2  13
ATOM     13  C   UNL     1       3.655   6.236  17.913  0.00  0.00    +0.000 A 
ATOM     14  C   UNL     1       4.969   6.574  17.529  0.00  0.00    +0.000 A 
ATOM     15  C   UNL     1       5.707   5.754  16.669  0.00  0.00    +0.000 A 
ATOM     16  C   UNL     1       5.176   4.539  16.251  0.00  0.00    +0.000 A 
ATOM     17 CL   UNL     1       6.062   3.551  15.156  0.00  0.00    +0.000 Cl
ATOM     18  C   UNL     1       3.928   4.128  16.705  0.00  0.00    +0.000 A 
ATOM     19  C   UNL     1       3.170   4.978  17.520  0.00  0.00    +0.000 A 
ENDBRANCH   2  13
BRANCH   1  22
ATOM     20  C   UNL     1       1.811   4.626  20.601  0.00  0.00    +0.000 C 
ATOM     21  O   UNL     1       0.797   4.457  19.937  0.00  0.00    +0.000 OA
ATOM     22  N   UNL     1       2.593   5.775  20.580  0.00  0.00    +0.000 N 
ATOM     23  H   UNL     1       3.577   5.623  20.736  0.00  0.00    +0.000 HD
BRANCH  20  25
ATOM     24  C   UNL     1       1.302   2.558  21.924  0.00  0.00    +0.000 C 
ATOM     25  C   UNL     1       2.395   3.535  21.496  0.00  0.00    +0.000 C 
ATOM     26  C   UNL     1       3.516   2.814  20.755  0.00  0.00    +0.000 C 
ENDBRANCH  20  25
ENDBRANCH   1  22
TORSDOF 3
ENDMDL
MODEL 2
REMARK VINA RESULT:      -7.2      0.368      1.027
REMARK  Name = 
REMARK  6 active torsions:
REMARK  status: ('A' for Active; 'I' for Inactive)
REMARK    1  A    between atoms: C_1  and  C_2
REMARK    2  A    between atoms: C_2  and  C_3
REMARK    3  A    between atoms: C_2  and  C_4
REMARK    4  A    between atoms: N_6  and  C_7
REMARK    5  A    between atoms: C_8  and  C_9
REMARK    6  A    between atoms: N_24  and  C_25
REMARK                            x       y       z     vdW  Elec       q    Type
REMARK                         _______ _______ _______ _____ _____    ______ ____
ROOT
ATOM      1  C   UNL     1       2.092   7.150  19.966  0.00  0.00    +0.000 A 
ATOM      2  C   UNL     1       2.542   7.446  18.709  0.00  0.00    +0.000 A 
ATOM      3  C   UNL     1       2.151   8.783  18.147  0.00  0.00    +0.000 A 
ATOM      4  O   UNL     1       2.495   9.147  17.024  0.00  0.00    +0.000 OA
ATOM      5  C   UNL     1       1.319   9.685  18.962  0.00  0.00    +0.000 A 
ATOM      6  C   UNL     1       1.013  10.959  18.440  0.00  0.00    +0.000 A 
ATOM      7  C   UNL     1       0.211  11.837  19.154  0.00  0.00    +0.000 A 
ATOM      8  C   UNL     1      -0.277  11.445  20.392  0.00  0.00    +0.000 A 
ATOM      9  C   UNL     1       0.036  10.182  20.906  0.00  0.00    +0.000 A 
ATOM     10  C   UNL     1       0.843   9.257  20.209  0.00  0.00    +0.000 A 
ATOM     11  N   UNL     1       1.188   7.969  20.685  0.00  0.00    +0.000 N 
ATOM     12  C   UNL     1       0.690   7.545  22.002  0.00  0.00    +0.000 C 
ENDROOT
BRANCH   2  13
ATOM     13  C   UNL     1       3.350   6.517  17.849  0.00  0.00    +0.000 A 
ATOM     14  C   UNL     1       2.919   5.201  17.583  0.00  0.00    +0.000 A 
ATOM     15  C   UNL     1       3.751   4.282  16.935  0.00  0.00    +0.000 A 
ATOM     16  C   UNL     1       4.993   4.691  16.462  0.00  0.00    +0.000 A 
ATOM     17 CL   UNL     1       6.036   3.551  15.705  0.00  0.00    +0.000 Cl
ATOM     18  C   UNL     1       5.396   6.013  16.609  0.00  0.00    +0.000 A 
ATOM     19  C   UNL     1       4.585   6.914  17.310  0.00  0.00    +0.000 A 
ENDBRANCH   2  13
BRANCH   1  22
ATOM     20  C   UNL     1       1.718   4.807  20.625  0.00  0.00    +0.000 C 
ATOM     21  O   UNL     1       0.650   4.657  20.046  0.00  0.00    +0.000 OA
ATOM     22  N   UNL     1       2.496   5.957  20.571  0.00  0.00    +0.000 N 
ATOM     23  H   UNL     1       3.490   5.802  20.636  0.00  0.00    +0.000 HD
BRANCH  20  25
ATOM     24  C   UNL     1       1.331   2.666  21.870  0.00  0.00    +0.000 C 
ATOM     25  C   UNL     1       2.376   3.689  21.431  0.00  0.00    +0.000 C 
ATOM     26  C   UNL     1       3.469   3.034  20.595  0.00  0.00    +0.000 C 
ENDBRANCH  20  25
ENDBRANCH   1  22
TORSDOF 3
ENDMDL
MODEL 3
REMARK VINA RESULT:      -6.9      2.691      5.932
REMARK  Name = 
REMARK  6 active torsions:
REMARK  status: ('A' for Active; 'I' for Inactive)
REMARK    1  A    between atoms: C_1  and  C_2
REMARK    2  A    between atoms: C_2  and  C_3
REMARK    3  A    between atoms: C_2  and  C_4
REMARK    4  A    between atoms: N_6  and  C_7
REMARK    5  A    between atoms: C_8  and  C_9
REMARK    6  A    between atoms: N_24  and  C_25
REMARK                            x       y       z     vdW  Elec       q    Type
REMARK                         _______ _______ _______ _____ _____    ______ ____
ROOT
ATOM      1  C   UNL     1       3.145   4.893  17.893  0.00  0.00    +0.000 A 
ATOM      2  C   UNL     1       3.336   6.241  17.768  0.00  0.00    +0.000 A 
ATOM      3  C   UNL     1       4.402   6.688  16.808  0.00  0.00    +0.000 A 
ATOM      4  O   UNL     1       4.661   7.877  16.625  0.00  0.00    +0.000 OA
ATOM      5  C   UNL     1       5.170   5.672  16.070  0.00  0.00    +0.000 A 
ATOM      6  C   UNL     1       6.125   6.113  15.130  0.00  0.00    +0.000 A 
ATOM      7  C   UNL     1       6.895   5.198  14.427  0.00  0.00    +0.000 A 
ATOM      8  C   UNL     1       6.704   3.844  14.658  0.00  0.00    +0.000 A 
ATOM      9  C   UNL     1       5.751   3.413  15.587  0.00  0.00    +0.000 A 
ATOM     10  C   UNL     1       4.952   4.311  16.327  0.00  0.00    +0.000 A 
ATOM     11  N   UNL     1       3.975   3.926  17.278  0.00  0.00    +0.000 N 
ATOM     12  C   UNL     1       3.753   2.493  17.522  0.00  0.00    +0.000 C 
ENDROOT
BRANCH   2  13
ATOM     13  C   UNL     1       2.593   7.287  18.550  0.00  0.00    +0.000 A 
ATOM     14  C   UNL     1       2.424   7.178  19.946  0.00  0.00    +0.000 A 
ATOM     15  C   UNL     1       1.584   8.052  20.645  0.00  0.00    +0.000 A 
ATOM     16  C   UNL     1       0.971   9.104  19.974  0.00  0.00    +0.000 A 
ATOM     17 CL   UNL     1      -0.097  10.152  20.822  0.00  0.00    +0.000 Cl
ATOM     18  C   UNL     1       1.211   9.303  18.619  0.00  0.00    +0.000 A 
ATOM     19  C   UNL     1       2.005   8.392  17.912  0.00  0.00    +0.000 A 
ENDBRANCH   2  13
BRANCH   1  22
ATOM     20  C   UNL     1       2.291   3.937  19.996  0.00  0.00    +0.000 C 
ATOM     21  O   UNL     1       3.345   3.976  20.618  0.00  0.00    +0.000 OA
ATOM     22  N   UNL     1       2.110   4.424  18.707  0.00  0.00    +0.000 N 
ATOM     23  H   UNL     1       1.190   4.786  18.514  0.00  0.00    +0.000 HD
BRANCH  20  25
ATOM     24  C   UNL     1       0.231   2.568  19.590  0.00  0.00    +0.000 C 
ATOM     25  C   UNL     1       0.998   3.404  20.610  0.00  0.00    +0.000 C 
ATOM     26  C   UNL     1       1.326   2.587  21.856  0.00  0.00    +0.000 C 
ENDBRANCH  20  25
ENDBRANCH   1  22
TORSDOF 3
ENDMDL
MODEL 4
REMARK VINA RESULT:      -6.9      6.859      9.231
REMARK  Name = 
REMARK  6 active torsions:
REMARK  status: ('A' for Active; 'I' for Inactive)
REMARK    1  A    between atoms: C_1  and  C_2
REMARK    2  A    between atoms: C_2  and  C_3
REMARK    3  A    between atoms: C_2  and  C_4
REMARK    4  A    between atoms: N_6  and  C_7
REMARK    5  A    between atoms: C_8  and  C_9
REMARK    6  A    between atoms: N_24  and  C_25
REMARK                            x       y       z     vdW  Elec       q    Type
REMARK                         _______ _______ _______ _____ _____    ______ ____
ROOT
ATOM      1  C   UNL     1      -3.751  12.656  20.014  0.00  0.00    +0.000 A 
ATOM      2  C   UNL     1      -4.578  11.857  19.274  0.00  0.00    +0.000 A 
ATOM      3  C   UNL     1      -5.919  11.534  19.869  0.00  0.00    +0.000 A 
ATOM      4  O   UNL     1      -6.736  10.819  19.292  0.00  0.00    +0.000 OA
ATOM      5  C   UNL     1      -6.264  12.081  21.192  0.00  0.00    +0.000 A 
ATOM      6  C   UNL     1      -7.549  11.815  21.707  0.00  0.00    +0.000 A 
ATOM      7  C   UNL     1      -7.916  12.284  22.960  0.00  0.00    +0.000 A 
ATOM      8  C   UNL     1      -7.001  13.024  23.693  0.00  0.00    +0.000 A 
ATOM      9  C   UNL     1      -5.730  13.290  23.174  0.00  0.00    +0.000 A 
ATOM     10  C   UNL     1      -5.315  12.826  21.906  0.00  0.00    +0.000 A 
ATOM     11  N   UNL     1      -4.041  13.068  21.337  0.00  0.00    +0.000 N 
ATOM     12  C   UNL     1      -3.066  13.863  22.097  0.00  0.00    +0.000 C 
ENDROOT
BRANCH   2  13
ATOM     13  C   UNL     1      -4.220  11.253  17.945  0.00  0.00    +0.000 A 
ATOM     14  C   UNL     1      -3.361  10.139  17.852  0.00  0.00    +0.000 A 
ATOM     15  C   UNL     1      -2.886   9.690  16.615  0.00  0.00    +0.000 A 
ATOM     16  C   UNL     1      -3.337  10.291  15.445  0.00  0.00    +0.000 A 
ATOM     17 CL   UNL     1      -2.720   9.770  13.926  0.00  0.00    +0.000 Cl
ATOM     18  C   UNL     1      -4.272  11.317  15.502  0.00  0.00    +0.000 A 
ATOM     19  C   UNL     1      -4.699  11.802  16.744  0.00  0.00    +0.000 A 
ENDBRANCH   2  13
BRANCH   1  22
ATOM     20  C   UNL     1      -1.320  12.411  19.707  0.00  0.00    +0.000 C 
ATOM     21  O   UNL     1      -1.199  11.349  20.305  0.00  0.00    +0.000 OA
ATOM     22  N   UNL     1      -2.527  13.057  19.472  0.00  0.00    +0.000 N 
ATOM     23  H   UNL     1      -2.569  13.582  18.612  0.00  0.00    +0.000 HD
BRANCH  20  25
ATOM     24  C   UNL     1       0.271  14.338  19.901  0.00  0.00    +0.000 C 
ATOM     25  C   UNL     1      -0.134  13.127  19.064  0.00  0.00    +0.000 C 
ATOM     26  C   UNL     1       1.028  12.151  18.911  0.00  0.00    +0.000 C 
ENDBRANCH  20  25
ENDBRANCH   1  22
TORSDOF 3
ENDMDL
MODEL 5
REMARK VINA RESULT:      -6.8      8.123     10.962
REMARK  Name = 
REMARK  6 active torsions:
REMARK  status: ('A' for Active; 'I' for Inactive)
REMARK    1  A    between atoms: C_1  and  C_2
REMARK    2  A    between atoms: C_2  and  C_3
REMARK    3  A    between atoms: C_2  and  C_4
REMARK    4  A    between atoms: N_6  and  C_7
REMARK    5  A    between atoms: C_8  and  C_9
REMARK    6  A    between atoms: N_24  and  C_25
REMARK                            x       y       z     vdW  Elec       q    Type
REMARK                         _______ _______ _______ _____ _____    ______ ____
ROOT
ATOM      1  C   UNL     1      -5.006  12.814  19.855  0.00  0.00    +0.000 A 
ATOM      2  C   UNL     1      -3.734  12.784  20.357  0.00  0.00    +0.000 A 
ATOM      3  C   UNL     1      -2.681  12.144  19.498  0.00  0.00    +0.000 A 
ATOM      4  O   UNL     1      -1.508  12.057  19.857  0.00  0.00    +0.000 OA
ATOM      5  C   UNL     1      -3.066  11.594  18.187  0.00  0.00    +0.000 A 
ATOM      6  C   UNL     1      -2.051  11.052  17.371  0.00  0.00    +0.000 A 
ATOM      7  C   UNL     1      -2.363  10.496  16.139  0.00  0.00    +0.000 A 
ATOM      8  C   UNL     1      -3.685  10.490  15.721  0.00  0.00    +0.000 A 
ATOM      9  C   UNL     1      -4.685  11.034  16.533  0.00  0.00    +0.000 A 
ATOM     10  C   UNL     1      -4.411  11.604  17.795  0.00  0.00    +0.000 A 
ATOM     11  N   UNL     1      -5.387  12.168  18.654  0.00  0.00    +0.000 N 
ATOM     12  C   UNL     1      -6.790  12.181  18.217  0.00  0.00    +0.000 C 
ENDROOT
BRANCH   2  13
ATOM     13  C   UNL     1      -3.338  13.298  21.712  0.00  0.00    +0.000 A 
ATOM     14  C   UNL     1      -3.484  12.506  22.870  0.00  0.00    +0.000 A 
ATOM     15  C   UNL     1      -3.285  13.044  24.146  0.00  0.00    +0.000 A 
ATOM     16  C   UNL     1      -2.849  14.357  24.281  0.00  0.00    +0.000 A 
ATOM     17 CL   UNL     1      -2.648  15.034  25.850  0.00  0.00    +0.000 Cl
ATOM     18  C   UNL     1      -2.587  15.126  23.152  0.00  0.00    +0.000 A 
ATOM     19  C   UNL     1      -2.844  14.602  21.879  0.00  0.00    +0.000 A 
ENDBRANCH   2  13
BRANCH   1  22
ATOM     20  C   UNL     1      -6.859  12.846  21.476  0.00  0.00    +0.000 C 
ATOM     21  O   UNL     1      -6.756  11.683  21.845  0.00  0.00    +0.000 OA
ATOM     22  N   UNL     1      -6.007  13.472  20.574  0.00  0.00    +0.000 N 
ATOM     23  H   UNL     1      -5.873  14.458  20.729  0.00  0.00    +0.000 HD
BRANCH  20  25
ATOM     24  C   UNL     1      -7.754  13.930  23.552  0.00  0.00    +0.000 C 
ATOM     25  C   UNL     1      -7.917  13.792  22.040  0.00  0.00    +0.000 C 
ATOM     26  C   UNL     1      -7.806  15.147  21.350  0.00  0.00    +0.000 C 
ENDBRANCH  20  25
ENDBRANCH   1  22
TORSDOF 3
ENDMDL
MODEL 6
REMARK VINA RESULT:      -6.6      5.027      8.182
REMARK  Name = 
REMARK  6 active torsions:
REMARK  status: ('A' for Active; 'I' for Inactive)
REMARK    1  A    between atoms: C_1  and  C_2
REMARK    2  A    between atoms: C_2  and  C_3
REMARK    3  A    between atoms: C_2  and  C_4
REMARK    4  A    between atoms: N_6  and  C_7
REMARK    5  A    between atoms: C_8  and  C_9
REMARK    6  A    between atoms: N_24  and  C_25
REMARK                            x       y       z     vdW  Elec       q    Type
REMARK                         _______ _______ _______ _____ _____    ______ ____
ROOT
ATOM      1  C   UNL     1      -1.975  11.534  18.465  0.00  0.00    +0.000 A 
ATOM      2  C   UNL     1      -1.957  12.579  19.347  0.00  0.00    +0.000 A 
ATOM      3  C   UNL     1      -3.278  12.999  19.927  0.00  0.00    +0.000 A 
ATOM      4  O   UNL     1      -3.376  13.931  20.723  0.00  0.00    +0.000 OA
ATOM      5  C   UNL     1      -4.497  12.278  19.522  0.00  0.00    +0.000 A 
ATOM      6  C   UNL     1      -5.718  12.649  20.123  0.00  0.00    +0.000 A 
ATOM      7  C   UNL     1      -6.900  12.021  19.759  0.00  0.00    +0.000 A 
ATOM      8  C   UNL     1      -6.860  11.020  18.800  0.00  0.00    +0.000 A 
ATOM      9  C   UNL     1      -5.644  10.653  18.212  0.00  0.00    +0.000 A 
ATOM     10  C   UNL     1      -4.421  11.271  18.551  0.00  0.00    +0.000 A 
ATOM     11  N   UNL     1      -3.166  10.936  17.986  0.00  0.00    +0.000 N 
ATOM     12  C   UNL     1      -3.106   9.867  16.979  0.00  0.00    +0.000 C 
ENDROOT
BRANCH   2  13
ATOM     13  C   UNL     1      -0.728  13.353  19.731  0.00  0.00    +0.000 A 
ATOM     14  C   UNL     1      -0.229  14.391  18.917  0.00  0.00    +0.000 A 
ATOM     15  C   UNL     1       1.008  14.988  19.180  0.00  0.00    +0.000 A 
ATOM     16  C   UNL     1       1.724  14.621  20.315  0.00  0.00    +0.000 A 
ATOM     17 CL   UNL     1       3.266  15.321  20.616  0.00  0.00    +0.000 Cl
ATOM     18  C   UNL     1       1.201  13.681  21.196  0.00  0.00    +0.000 A 
ATOM     19  C   UNL     1      -0.009  13.044  20.897  0.00  0.00    +0.000 A 
ENDBRANCH   2  13
BRANCH   1  22
ATOM     20  C   UNL     1       0.071  10.175  18.645  0.00  0.00    +0.000 C 
ATOM     21  O   UNL     1      -0.204   9.630  19.707  0.00  0.00    +0.000 OA
ATOM     22  N   UNL     1      -0.766  11.048  17.960  0.00  0.00    +0.000 N 
ATOM     23  H   UNL     1      -0.677  11.023  16.957  0.00  0.00    +0.000 HD
BRANCH  20  25
ATOM     24  C   UNL     1       2.328  11.069  18.023  0.00  0.00    +0.000 C 
ATOM     25  C   UNL     1       1.368   9.890  17.892  0.00  0.00    +0.000 C 
ATOM     26  C   UNL     1       1.996   8.607  18.426  0.00  0.00    +0.000 C 
ENDBRANCH  20  25
ENDBRANCH   1  22
TORSDOF 3
ENDMDL
MODEL 7
REMARK VINA RESULT:      -6.6      6.772     10.739
REMARK  Name = 
REMARK  6 active torsions:
REMARK  status: ('A' for Active; 'I' for Inactive)
REMARK    1  A    between atoms: C_1  and  C_2
REMARK    2  A    between atoms: C_2  and  C_3
REMARK    3  A    between atoms: C_2  and  C_4
REMARK    4  A    between atoms: N_6  and  C_7
REMARK    5  A    between atoms: C_8  and  C_9
REMARK    6  A    between atoms: N_24  and  C_25
REMARK                            x       y       z     vdW  Elec       q    Type
REMARK                         _______ _______ _______ _____ _____    ______ ____
ROOT
ATOM      1  C   UNL     1      -3.679  12.181  19.084  0.00  0.00    +0.000 A 
ATOM      2  C   UNL     1      -3.179  12.608  20.283  0.00  0.00    +0.000 A 
ATOM      3  C   UNL     1      -1.793  12.154  20.640  0.00  0.00    +0.000 A 
ATOM      4  O   UNL     1      -1.251  12.474  21.697  0.00  0.00    +0.000 OA
ATOM      5  C   UNL     1      -1.060  11.289  19.699  0.00  0.00    +0.000 A 
ATOM      6  C   UNL     1       0.262  10.923  20.026  0.00  0.00    +0.000 A 
ATOM      7  C   UNL     1       0.988  10.088  19.188  0.00  0.00    +0.000 A 
ATOM      8  C   UNL     1       0.394   9.627  18.023  0.00  0.00    +0.000 A 
ATOM      9  C   UNL     1      -0.916   9.999  17.702  0.00  0.00    +0.000 A 
ATOM     10  C   UNL     1      -1.690  10.841  18.530  0.00  0.00    +0.000 A 
ATOM     11  N   UNL     1      -3.018  11.247  18.251  0.00  0.00    +0.000 N 
ATOM     12  C   UNL     1      -3.655  10.777  17.012  0.00  0.00    +0.000 C 
ENDROOT
BRANCH   2  13
ATOM     13  C   UNL     1      -3.934  13.450  21.273  0.00  0.00    +0.000 A 
ATOM     14  C   UNL     1      -4.732  12.866  22.278  0.00  0.00    +0.000 A 
ATOM     15  C   UNL     1      -5.572  13.644  23.081  0.00  0.00    +0.000 A 
ATOM     16  C   UNL     1      -5.558  15.029  22.955  0.00  0.00    +0.000 A 
ATOM     17 CL   UNL     1      -6.623  15.984  23.910  0.00  0.00    +0.000 Cl
ATOM     18  C   UNL     1      -4.697  15.639  22.050  0.00  0.00    +0.000 A 
ATOM     19  C   UNL     1      -3.901  14.853  21.207  0.00  0.00    +0.000 A 
ENDBRANCH   2  13
BRANCH   1  22
ATOM     20  C   UNL     1      -6.131  11.998  18.938  0.00  0.00    +0.000 C 
ATOM     21  O   UNL     1      -6.254  11.032  19.679  0.00  0.00    +0.000 OA
ATOM     22  N   UNL     1      -4.929  12.642  18.664  0.00  0.00    +0.000 N 
ATOM     23  H   UNL     1      -5.007  13.631  18.490  0.00  0.00    +0.000 HD
BRANCH  20  25
ATOM     24  C   UNL     1      -7.914  13.742  19.193  0.00  0.00    +0.000 C 
ATOM     25  C   UNL     1      -7.326  12.676  18.271  0.00  0.00    +0.000 C 
ATOM     26  C   UNL     1      -6.892  13.279  16.940  0.00  0.00    +0.000 C 
ENDBRANCH  20  25
ENDBRANCH   1  22
TORSDOF 3
ENDMDL
MODEL 8
REMARK VINA RESULT:      -6.6      7.437     10.804
REMARK  Name = 
REMARK  6 active torsions:
REMARK  status: ('A' for Active; 'I' for Inactive)
REMARK    1  A    between atoms: C_1  and  C_2
REMARK    2  A    between atoms: C_2  and  C_3
REMARK    3  A    between atoms: C_2  and  C_4
REMARK    4  A    between atoms: N_6  and  C_7
REMARK    5  A    between atoms: C_8  and  C_9
REMARK    6  A    between atoms: N_24  and  C_25
REMARK                            x       y       z     vdW  Elec       q    Type
REMARK                         _______ _______ _______ _____ _____    ______ ____
ROOT
ATOM      1  C   UNL     1      -4.608  12.702  20.020  0.00  0.00    +0.000 A 
ATOM      2  C   UNL     1      -3.411  12.763  20.680  0.00  0.00    +0.000 A 
ATOM      3  C   UNL     1      -2.255  12.037  20.055  0.00  0.00    +0.000 A 
ATOM      4  O   UNL     1      -1.137  12.020  20.569  0.00  0.00    +0.000 OA
ATOM      5  C   UNL     1      -2.466  11.310  18.791  0.00  0.00    +0.000 A 
ATOM      6  C   UNL     1      -1.354  10.684  18.191  0.00  0.00    +0.000 A 
ATOM      7  C   UNL     1      -1.503   9.964  17.014  0.00  0.00    +0.000 A 
ATOM      8  C   UNL     1      -2.760   9.878  16.436  0.00  0.00    +0.000 A 
ATOM      9  C   UNL     1      -3.858  10.505  17.034  0.00  0.00    +0.000 A 
ATOM     10  C   UNL     1      -3.750  11.242  18.233  0.00  0.00    +0.000 A 
ATOM     11  N   UNL     1      -4.829  11.896  18.878  0.00  0.00    +0.000 N 
ATOM     12  C   UNL     1      -6.165  11.823  18.268  0.00  0.00    +0.000 C 
ENDROOT
BRANCH   2  13
ATOM     13  C   UNL     1      -3.194  13.460  21.993  0.00  0.00    +0.000 A 
ATOM     14  C   UNL     1      -2.702  14.780  22.053  0.00  0.00    +0.000 A 
ATOM     15  C   UNL     1      -2.332  15.362  23.269  0.00  0.00    +0.000 A 
ATOM     16  C   UNL     1      -2.533  14.667  24.456  0.00  0.00    +0.000 A 
ATOM     17 CL   UNL     1      -2.035  15.362  25.949  0.00  0.00    +0.000 Cl
ATOM     18  C   UNL     1      -3.122  13.408  24.437  0.00  0.00    +0.000 A 
ATOM     19  C   UNL     1      -3.437  12.805  23.212  0.00  0.00    +0.000 A 
ENDBRANCH   2  13
BRANCH   1  22
ATOM     20  C   UNL     1      -6.613  12.936  21.430  0.00  0.00    +0.000 C 
ATOM     21  O   UNL     1      -6.513  11.863  22.013  0.00  0.00    +0.000 OA
ATOM     22  N   UNL     1      -5.694  13.430  20.511  0.00  0.00    +0.000 N 
ATOM     23  H   UNL     1      -5.606  14.433  20.496  0.00  0.00    +0.000 HD
BRANCH  20  25
ATOM     24  C   UNL     1      -7.917  14.117  23.216  0.00  0.00    +0.000 C 
ATOM     25  C   UNL     1      -7.749  13.916  21.712  0.00  0.00    +0.000 C 
ATOM     26  C   UNL     1      -7.465  15.239  21.009  0.00  0.00    +0.000 C 
ENDBRANCH  20  25
ENDBRANCH   1  22
TORSDOF 3
ENDMDL
MODEL 9
REMARK VINA RESULT:      -6.4      6.772     10.735
REMARK  Name = 
REMARK  6 active torsions:
REMARK  status: ('A' for Active; 'I' for Inactive)
REMARK    1  A    between atoms: C_1  and  C_2
REMARK    2  A    between atoms: C_2  and  C_3
REMARK    3  A    between atoms: C_2  and  C_4
REMARK    4  A    between atoms: N_6  and  C_7
REMARK    5  A    between atoms: C_8  and  C_9
REMARK    6  A    between atoms: N_24  and  C_25
REMARK                            x       y       z     vdW  Elec       q    Type
REMARK                         _______ _______ _______ _____ _____    ______ ____
ROOT
ATOM      1  C   UNL     1      -3.721  12.329  19.388  0.00  0.00    +0.000 A 
ATOM      2  C   UNL     1      -3.081  12.877  20.465  0.00  0.00    +0.000 A 
ATOM      3  C   UNL     1      -1.648  12.480  20.676  0.00  0.00    +0.000 A 
ATOM      4  O   UNL     1      -0.982  12.908  21.618  0.00  0.00    +0.000 OA
ATOM      5  C   UNL     1      -1.020  11.540  19.732  0.00  0.00    +0.000 A 
ATOM      6  C   UNL     1       0.343  11.227  19.914  0.00  0.00    +0.000 A 
ATOM      7  C   UNL     1       0.976  10.326  19.069  0.00  0.00    +0.000 A 
ATOM      8  C   UNL     1       0.248   9.747  18.040  0.00  0.00    +0.000 A 
ATOM      9  C   UNL     1      -1.102  10.066  17.862  0.00  0.00    +0.000 A 
ATOM     10  C   UNL     1      -1.784  10.973  18.703  0.00  0.00    +0.000 A 
ATOM     11  N   UNL     1      -3.148  11.330  18.565  0.00  0.00    +0.000 N 
ATOM     12  C   UNL     1      -3.928  10.733  17.470  0.00  0.00    +0.000 C 
ENDROOT
BRANCH   2  13
ATOM     13  C   UNL     1      -3.723  13.799  21.463  0.00  0.00    +0.000 A 
ATOM     14  C   UNL     1      -3.755  15.194  21.260  0.00  0.00    +0.000 A 
ATOM     15  C   UNL     1      -4.189  16.064  22.266  0.00  0.00    +0.000 A 
ATOM     16  C   UNL     1      -4.684  15.547  23.458  0.00  0.00    +0.000 A 
ATOM     17 CL   UNL     1      -5.176  16.615  24.713  0.00  0.00    +0.000 Cl
ATOM     18  C   UNL     1      -4.771  14.171  23.641  0.00  0.00    +0.000 A 
ATOM     19  C   UNL     1      -4.280  13.306  22.655  0.00  0.00    +0.000 A 
ENDBRANCH   2  13
BRANCH   1  22
ATOM     20  C   UNL     1      -6.163  12.140  19.639  0.00  0.00    +0.000 C 
ATOM     21  O   UNL     1      -6.158  11.296  20.526  0.00  0.00    +0.000 OA
ATOM     22  N   UNL     1      -5.027  12.729  19.096  0.00  0.00    +0.000 N 
ATOM     23  H   UNL     1      -5.146  13.681  18.789  0.00  0.00    +0.000 HD
BRANCH  20  25
ATOM     24  C   UNL     1      -7.840  13.996  19.805  0.00  0.00    +0.000 C 
ATOM     25  C   UNL     1      -7.456  12.717  19.066  0.00  0.00    +0.000 C 
ATOM     26  C   UNL     1      -7.279  12.976  17.573  0.00  0.00    +0.000 C 
ENDBRANCH  20  25
ENDBRANCH   1  22
TORSDOF 3
ENDMDL
