MODEL 1
REMARK VINA RESULT:      -6.9      0.000      0.000
REMARK  Name = 
REMARK  4 active torsions:
REMARK  status: ('A' for Active; 'I' for Inactive)
REMARK    1  A    between atoms: N_3  and  C_4
REMARK    2  A    between atoms: C_4  and  C_5
REMARK    3  A    between atoms: C_14  and  O_15
REMARK    4  A    between atoms: O_15  and  C_16
REMARK                            x       y       z     vdW  Elec       q    Type
REMARK                         _______ _______ _______ _____ _____    ______ ____
ROOT
ATOM      1  O   UNL     1       6.435   5.816  18.104  0.00  0.00    +0.000 OA
ATOM      2  C   UNL     1       5.662   4.995  17.615  0.00  0.00    +0.000 C 
ATOM      3  N   UNL     1       5.870   4.472  16.366  0.00  0.00    +0.000 N 
ATOM      4  N   UNL     1       4.537   4.535  18.269  0.00  0.00    +0.000 N 
ATOM      5  C   UNL     1       3.668   3.437  17.847  0.00  0.00    +0.000 C 
ATOM      6  C   UNL     1       2.219   3.910  17.759  0.00  0.00    +0.000 C 
ATOM      7  C   UNL     1       1.768   4.554  19.074  0.00  0.00    +0.000 C 
ATOM      8  C   UNL     1       2.720   5.677  19.512  0.00  0.00    +0.000 C 
ATOM      9  C   UNL     1       4.167   5.154  19.546  0.00  0.00    +0.000 C 
ATOM     10  H   UNL     1       5.028   4.328  15.832  0.00  0.00    +0.000 HD
ENDROOT
BRANCH   3  11
ATOM     11  C   UNL     1       6.998   4.952  15.604  0.00  0.00    +0.000 C 
BRANCH  11  12
ATOM     12  C   UNL     1       6.838   4.525  14.181  0.00  0.00    +0.000 A 
ATOM     13  C   UNL     1       5.905   3.657  13.648  0.00  0.00    +0.000 A 
ATOM     14  C   UNL     1       6.091   3.453  12.249  0.00  0.00    +0.000 A 
ATOM     15  C   UNL     1       7.150   4.184  11.759  0.00  0.00    +0.000 A 
ATOM     16  S   UNL     1       7.906   5.114  12.976  0.00  0.00    +0.000 S 
ENDBRANCH  11  12
ENDBRANCH   3  11
BRANCH   8  17
ATOM     17  O   UNL     1       2.677   6.752  18.559  0.00  0.00    +0.000 OA
BRANCH  17  18
ATOM     18  C   UNL     1       2.057   7.902  18.987  0.00  0.00    +0.000 A 
ATOM     19  C   UNL     1       1.872   8.914  18.055  0.00  0.00    +0.000 A 
ATOM     20  N   UNL     1       1.281  10.096  18.363  0.00  0.00    +0.000 NA
ATOM     21  C   UNL     1       0.887  10.216  19.649  0.00  0.00    +0.000 A 
ATOM     22  C   UNL     1       1.063   9.202  20.579  0.00  0.00    +0.000 A 
ATOM     23  N   UNL     1       1.646   8.020  20.270  0.00  0.00    +0.000 NA
ENDBRANCH  17  18
ENDBRANCH   8  17
TORSDOF 4
ENDMDL
MODEL 2
REMARK VINA RESULT:      -6.9      4.422      6.681
REMARK  Name = 
REMARK  4 active torsions:
REMARK  status: ('A' for Active; 'I' for Inactive)
REMARK    1  A    between atoms: N_3  and  C_4
REMARK    2  A    between atoms: C_4  and  C_5
REMARK    3  A    between atoms: C_14  and  O_15
REMARK    4  A    between atoms: O_15  and  C_16
REMARK                            x       y       z     vdW  Elec       q    Type
REMARK                         _______ _______ _______ _____ _____    ______ ____
ROOT
ATOM      1  O   UNL     1       1.929   8.954  17.428  0.00  0.00    +0.000 OA
ATOM      2  C   UNL     1       1.797   8.767  18.636  0.00  0.00    +0.000 C 
ATOM      3  N   UNL     1       2.195   7.597  19.226  0.00  0.00    +0.000 N 
ATOM      4  N   UNL     1       1.247   9.703  19.488  0.00  0.00    +0.000 N 
ATOM      5  C   UNL     1       1.217   9.643  20.949  0.00  0.00    +0.000 C 
ATOM      6  C   UNL     1      -0.216   9.787  21.456  0.00  0.00    +0.000 C 
ATOM      7  C   UNL     1      -0.875  11.053  20.899  0.00  0.00    +0.000 C 
ATOM      8  C   UNL     1      -0.793  11.107  19.366  0.00  0.00    +0.000 C 
ATOM      9  C   UNL     1       0.665  10.919  18.912  0.00  0.00    +0.000 C 
ATOM     10  H   UNL     1       1.588   7.278  19.964  0.00  0.00    +0.000 HD
ENDROOT
BRANCH   3  11
ATOM     11  C   UNL     1       2.728   6.553  18.383  0.00  0.00    +0.000 C 
BRANCH  11  12
ATOM     12  C   UNL     1       2.111   5.251  18.777  0.00  0.00    +0.000 A 
ATOM     13  C   UNL     1       1.715   4.209  17.961  0.00  0.00    +0.000 A 
ATOM     14  C   UNL     1       1.121   3.141  18.694  0.00  0.00    +0.000 A 
ATOM     15  C   UNL     1       1.097   3.396  20.047  0.00  0.00    +0.000 A 
ATOM     16  S   UNL     1       1.794   4.909  20.427  0.00  0.00    +0.000 S 
ENDBRANCH  11  12
ENDBRANCH   3  11
BRANCH   8  17
ATOM     17  O   UNL     1      -1.559  10.031  18.799  0.00  0.00    +0.000 OA
BRANCH  17  18
ATOM     18  C   UNL     1      -2.387  10.375  17.756  0.00  0.00    +0.000 A 
ATOM     19  C   UNL     1      -2.093   9.848  16.506  0.00  0.00    +0.000 A 
ATOM     20  N   UNL     1      -2.832  10.122  15.402  0.00  0.00    +0.000 NA
ATOM     21  C   UNL     1      -3.879  10.951  15.611  0.00  0.00    +0.000 A 
ATOM     22  C   UNL     1      -4.179  11.469  16.861  0.00  0.00    +0.000 A 
ATOM     23  N   UNL     1      -3.446  11.189  17.964  0.00  0.00    +0.000 NA
ENDBRANCH  17  18
ENDBRANCH   8  17
TORSDOF 4
ENDMDL
MODEL 3
REMARK VINA RESULT:      -6.9      4.493      6.722
REMARK  Name = 
REMARK  4 active torsions:
REMARK  status: ('A' for Active; 'I' for Inactive)
REMARK    1  A    between atoms: N_3  and  C_4
REMARK    2  A    between atoms: C_4  and  C_5
REMARK    3  A    between atoms: C_14  and  O_15
REMARK    4  A    between atoms: O_15  and  C_16
REMARK                            x       y       z     vdW  Elec       q    Type
REMARK                         _______ _______ _______ _____ _____    ______ ____
ROOT
ATOM      1  O   UNL     1       2.199   8.617  18.017  0.00  0.00    +0.000 OA
ATOM      2  C   UNL     1       1.936   8.467  19.208  0.00  0.00    +0.000 C 
ATOM      3  N   UNL     1       2.218   7.297  19.861  0.00  0.00    +0.000 N 
ATOM      4  N   UNL     1       1.346   9.447  19.979  0.00  0.00    +0.000 N 
ATOM      5  C   UNL     1       1.163   9.427  21.430  0.00  0.00    +0.000 C 
ATOM      6  C   UNL     1      -0.306   9.645  21.784  0.00  0.00    +0.000 C 
ATOM      7  C   UNL     1      -0.846  10.924  21.134  0.00  0.00    +0.000 C 
ATOM      8  C   UNL     1      -0.605  10.935  19.617  0.00  0.00    +0.000 C 
ATOM      9  C   UNL     1       0.881  10.673  19.320  0.00  0.00    +0.000 C 
ATOM     10  H   UNL     1       1.525   7.023  20.539  0.00  0.00    +0.000 HD
ENDROOT
BRANCH   3  11
ATOM     11  C   UNL     1       2.786   6.209  19.100  0.00  0.00    +0.000 C 
BRANCH  11  12
ATOM     12  C   UNL     1       2.030   4.957  19.407  0.00  0.00    +0.000 A 
ATOM     13  C   UNL     1       1.554   4.522  20.628  0.00  0.00    +0.000 A 
ATOM     14  C   UNL     1       0.917   3.250  20.541  0.00  0.00    +0.000 A 
ATOM     15  C   UNL     1       0.913   2.764  19.252  0.00  0.00    +0.000 A 
ATOM     16  S   UNL     1       1.665   3.840  18.158  0.00  0.00    +0.000 S 
ENDBRANCH  11  12
ENDBRANCH   3  11
BRANCH   8  17
ATOM     17  O   UNL     1      -1.358   9.879  18.997  0.00  0.00    +0.000 OA
BRANCH  17  18
ATOM     18  C   UNL     1      -2.147  10.255  17.936  0.00  0.00    +0.000 A 
ATOM     19  C   UNL     1      -3.185  11.140  18.193  0.00  0.00    +0.000 A 
ATOM     20  N   UNL     1      -4.034  11.575  17.228  0.00  0.00    +0.000 NA
ATOM     21  C   UNL     1      -3.794  11.079  15.994  0.00  0.00    +0.000 A 
ATOM     22  C   UNL     1      -2.751  10.202  15.735  0.00  0.00    +0.000 A 
ATOM     23  N   UNL     1      -1.900   9.774  16.696  0.00  0.00    +0.000 NA
ENDBRANCH  17  18
ENDBRANCH   8  17
TORSDOF 4
ENDMDL
MODEL 4
REMARK VINA RESULT:      -6.9      0.557      1.030
REMARK  Name = 
REMARK  4 active torsions:
REMARK  status: ('A' for Active; 'I' for Inactive)
REMARK    1  A    between atoms: N_3  and  C_4
REMARK    2  A    between atoms: C_4  and  C_5
REMARK    3  A    between atoms: C_14  and  O_15
REMARK    4  A    between atoms: O_15  and  C_16
REMARK                            x       y       z     vdW  Elec       q    Type
REMARK                         _______ _______ _______ _____ _____    ______ ____
ROOT
ATOM      1  O   UNL     1       6.380   5.850  18.137  0.00  0.00    +0.000 OA
ATOM      2  C   UNL     1       5.608   5.028  17.647  0.00  0.00    +0.000 C 
ATOM      3  N   UNL     1       5.825   4.496  16.404  0.00  0.00    +0.000 N 
ATOM      4  N   UNL     1       4.476   4.578  18.294  0.00  0.00    +0.000 N 
ATOM      5  C   UNL     1       3.606   3.480  17.872  0.00  0.00    +0.000 C 
ATOM      6  C   UNL     1       2.160   3.958  17.767  0.00  0.00    +0.000 C 
ATOM      7  C   UNL     1       1.699   4.614  19.073  0.00  0.00    +0.000 C 
ATOM      8  C   UNL     1       2.652   5.736  19.512  0.00  0.00    +0.000 C 
ATOM      9  C   UNL     1       4.096   5.207  19.563  0.00  0.00    +0.000 C 
ATOM     10  H   UNL     1       4.988   4.351  15.863  0.00  0.00    +0.000 HD
ENDROOT
BRANCH   3  11
ATOM     11  C   UNL     1       6.963   4.966  15.648  0.00  0.00    +0.000 C 
BRANCH  11  12
ATOM     12  C   UNL     1       6.812   4.532  14.227  0.00  0.00    +0.000 A 
ATOM     13  C   UNL     1       5.877   3.669  13.689  0.00  0.00    +0.000 A 
ATOM     14  C   UNL     1       6.073   3.456  12.294  0.00  0.00    +0.000 A 
ATOM     15  C   UNL     1       7.142   4.177  11.809  0.00  0.00    +0.000 A 
ATOM     16  S   UNL     1       7.895   5.108  13.028  0.00  0.00    +0.000 S 
ENDBRANCH  11  12
ENDBRANCH   3  11
BRANCH   8  17
ATOM     17  O   UNL     1       2.622   6.804  18.551  0.00  0.00    +0.000 OA
BRANCH  17  18
ATOM     18  C   UNL     1       2.012   7.964  18.969  0.00  0.00    +0.000 A 
ATOM     19  C   UNL     1       1.661   8.053  20.309  0.00  0.00    +0.000 A 
ATOM     20  N   UNL     1       1.047   9.144  20.834  0.00  0.00    +0.000 NA
ATOM     21  C   UNL     1       0.802  10.138  19.953  0.00  0.00    +0.000 A 
ATOM     22  C   UNL     1       1.162  10.053  18.617  0.00  0.00    +0.000 A 
ATOM     23  N   UNL     1       1.781   8.968  18.094  0.00  0.00    +0.000 NA
ENDBRANCH  17  18
ENDBRANCH   8  17
TORSDOF 4
ENDMDL
MODEL 5
REMARK VINA RESULT:      -6.6      3.553      7.902
REMARK  Name = 
REMARK  4 active torsions:
REMARK  status: ('A' for Active; 'I' for Inactive)
REMARK    1  A    between atoms: N_3  and  C_4
REMARK    2  A    between atoms: C_4  and  C_5
REMARK    3  A    between atoms: C_14  and  O_15
REMARK    4  A    between atoms: O_15  and  C_16
REMARK                            x       y       z     vdW  Elec       q    Type
REMARK                         _______ _______ _______ _____ _____    ______ ____
ROOT
ATOM      1  O   UNL     1       2.481   7.284  18.579  0.00  0.00    +0.000 OA
ATOM      2  C   UNL     1       2.050   6.705  19.575  0.00  0.00    +0.000 C 
ATOM      3  N   UNL     1       1.714   7.390  20.711  0.00  0.00    +0.000 N 
ATOM      4  N   UNL     1       1.870   5.338  19.632  0.00  0.00    +0.000 N 
ATOM      5  C   UNL     1       1.201   4.589  20.696  0.00  0.00    +0.000 C 
ATOM      6  C   UNL     1       2.122   3.500  21.239  0.00  0.00    +0.000 C 
ATOM      7  C   UNL     1       2.639   2.600  20.112  0.00  0.00    +0.000 C 
ATOM      8  C   UNL     1       3.301   3.417  18.992  0.00  0.00    +0.000 C 
ATOM      9  C   UNL     1       2.343   4.520  18.511  0.00  0.00    +0.000 C 
ATOM     10  H   UNL     1       1.943   6.911  21.567  0.00  0.00    +0.000 HD
ENDROOT
BRANCH   3  11
ATOM     11  C   UNL     1       1.930   8.818  20.738  0.00  0.00    +0.000 C 
BRANCH  11  12
ATOM     12  C   UNL     1       0.865   9.453  21.571  0.00  0.00    +0.000 A 
ATOM     13  C   UNL     1       0.239   8.946  22.693  0.00  0.00    +0.000 A 
ATOM     14  C   UNL     1      -0.765   9.823  23.197  0.00  0.00    +0.000 A 
ATOM     15  C   UNL     1      -0.862  10.977  22.452  0.00  0.00    +0.000 A 
ATOM     16  S   UNL     1       0.258  11.004  21.162  0.00  0.00    +0.000 S 
ENDBRANCH  11  12
ENDBRANCH   3  11
BRANCH   8  17
ATOM     17  O   UNL     1       4.482   4.064  19.495  0.00  0.00    +0.000 OA
BRANCH  17  18
ATOM     18  C   UNL     1       5.478   4.285  18.573  0.00  0.00    +0.000 A 
ATOM     19  C   UNL     1       5.208   3.963  17.250  0.00  0.00    +0.000 A 
ATOM     20  N   UNL     1       6.115   4.129  16.256  0.00  0.00    +0.000 NA
ATOM     21  C   UNL     1       7.306   4.632  16.650  0.00  0.00    +0.000 A 
ATOM     22  C   UNL     1       7.572   4.963  17.970  0.00  0.00    +0.000 A 
ATOM     23  N   UNL     1       6.664   4.805  18.961  0.00  0.00    +0.000 NA
ENDBRANCH  17  18
ENDBRANCH   8  17
TORSDOF 4
ENDMDL
MODEL 6
REMARK VINA RESULT:      -6.5      0.947      1.120
REMARK  Name = 
REMARK  4 active torsions:
REMARK  status: ('A' for Active; 'I' for Inactive)
REMARK    1  A    between atoms: N_3  and  C_4
REMARK    2  A    between atoms: C_4  and  C_5
REMARK    3  A    between atoms: C_14  and  O_15
REMARK    4  A    between atoms: O_15  and  C_16
REMARK                            x       y       z     vdW  Elec       q    Type
REMARK                         _______ _______ _______ _____ _____    ______ ____
ROOT
ATOM      1  O   UNL     1       6.488   4.847  18.580  0.00  0.00    +0.000 OA
ATOM      2  C   UNL     1       5.581   4.472  17.841  0.00  0.00    +0.000 C 
ATOM      3  N   UNL     1       5.755   4.381  16.485  0.00  0.00    +0.000 N 
ATOM      4  N   UNL     1       4.331   4.114  18.302  0.00  0.00    +0.000 N 
ATOM      5  C   UNL     1       3.259   3.490  17.528  0.00  0.00    +0.000 C 
ATOM      6  C   UNL     1       1.979   4.315  17.632  0.00  0.00    +0.000 C 
ATOM      7  C   UNL     1       1.593   4.554  19.096  0.00  0.00    +0.000 C 
ATOM      8  C   UNL     1       2.751   5.174  19.893  0.00  0.00    +0.000 C 
ATOM      9  C   UNL     1       4.021   4.323  19.720  0.00  0.00    +0.000 C 
ATOM     10  H   UNL     1       4.948   4.649  15.945  0.00  0.00    +0.000 HD
ENDROOT
BRANCH   3  11
ATOM     11  C   UNL     1       7.023   4.793  15.929  0.00  0.00    +0.000 C 
BRANCH  11  12
ATOM     12  C   UNL     1       6.989   4.594  14.449  0.00  0.00    +0.000 A 
ATOM     13  C   UNL     1       7.795   5.175  13.489  0.00  0.00    +0.000 A 
ATOM     14  C   UNL     1       7.436   4.779  12.168  0.00  0.00    +0.000 A 
ATOM     15  C   UNL     1       6.380   3.896  12.164  0.00  0.00    +0.000 A 
ATOM     16  S   UNL     1       5.833   3.543  13.744  0.00  0.00    +0.000 S 
ENDBRANCH  11  12
ENDBRANCH   3  11
BRANCH   8  17
ATOM     17  O   UNL     1       3.043   6.487  19.386  0.00  0.00    +0.000 OA
BRANCH  17  18
ATOM     18  C   UNL     1       2.155   7.474  19.742  0.00  0.00    +0.000 A 
ATOM     19  C   UNL     1       1.906   8.475  18.813  0.00  0.00    +0.000 A 
ATOM     20  N   UNL     1       1.056   9.504  19.056  0.00  0.00    +0.000 NA
ATOM     21  C   UNL     1       0.471   9.484  20.273  0.00  0.00    +0.000 A 
ATOM     22  C   UNL     1       0.712   8.479  21.197  0.00  0.00    +0.000 A 
ATOM     23  N   UNL     1       1.554   7.448  20.953  0.00  0.00    +0.000 NA
ENDBRANCH  17  18
ENDBRANCH   8  17
TORSDOF 4
ENDMDL
MODEL 7
REMARK VINA RESULT:      -6.5      3.443      6.724
REMARK  Name = 
REMARK  4 active torsions:
REMARK  status: ('A' for Active; 'I' for Inactive)
REMARK    1  A    between atoms: N_3  and  C_4
REMARK    2  A    between atoms: C_4  and  C_5
REMARK    3  A    between atoms: C_14  and  O_15
REMARK    4  A    between atoms: O_15  and  C_16
REMARK                            x       y       z     vdW  Elec       q    Type
REMARK                         _______ _______ _______ _____ _____    ______ ____
ROOT
ATOM      1  O   UNL     1       2.545   7.087  19.724  0.00  0.00    +0.000 OA
ATOM      2  C   UNL     1       3.003   7.233  18.593  0.00  0.00    +0.000 C 
ATOM      3  N   UNL     1       2.392   8.044  17.673  0.00  0.00    +0.000 N 
ATOM      4  N   UNL     1       4.152   6.606  18.158  0.00  0.00    +0.000 N 
ATOM      5  C   UNL     1       4.864   6.857  16.905  0.00  0.00    +0.000 C 
ATOM      6  C   UNL     1       5.037   5.558  16.122  0.00  0.00    +0.000 C 
ATOM      7  C   UNL     1       5.706   4.480  16.981  0.00  0.00    +0.000 C 
ATOM      8  C   UNL     1       4.958   4.266  18.306  0.00  0.00    +0.000 C 
ATOM      9  C   UNL     1       4.781   5.610  19.032  0.00  0.00    +0.000 C 
ATOM     10  H   UNL     1       2.421   7.695  16.729  0.00  0.00    +0.000 HD
ENDROOT
BRANCH   3  11
ATOM     11  C   UNL     1       1.154   8.688  18.045  0.00  0.00    +0.000 C 
BRANCH  11  12
ATOM     12  C   UNL     1       1.438  10.109  18.408  0.00  0.00    +0.000 A 
ATOM     13  C   UNL     1       2.268  11.008  17.766  0.00  0.00    +0.000 A 
ATOM     14  C   UNL     1       2.324  12.266  18.433  0.00  0.00    +0.000 A 
ATOM     15  C   UNL     1       1.523  12.292  19.553  0.00  0.00    +0.000 A 
ATOM     16  S   UNL     1       0.705  10.811  19.791  0.00  0.00    +0.000 S 
ENDBRANCH  11  12
ENDBRANCH   3  11
BRANCH   8  17
ATOM     17  O   UNL     1       3.645   3.744  18.045  0.00  0.00    +0.000 OA
BRANCH  17  18
ATOM     18  C   UNL     1       2.898   3.429  19.156  0.00  0.00    +0.000 A 
ATOM     19  C   UNL     1       1.551   3.762  19.135  0.00  0.00    +0.000 A 
ATOM     20  N   UNL     1       0.717   3.509  20.175  0.00  0.00    +0.000 NA
ATOM     21  C   UNL     1       1.298   2.908  21.236  0.00  0.00    +0.000 A 
ATOM     22  C   UNL     1       2.642   2.565  21.253  0.00  0.00    +0.000 A 
ATOM     23  N   UNL     1       3.472   2.811  20.213  0.00  0.00    +0.000 NA
ENDBRANCH  17  18
ENDBRANCH   8  17
TORSDOF 4
ENDMDL
MODEL 8
REMARK VINA RESULT:      -6.5      3.461      7.738
REMARK  Name = 
REMARK  4 active torsions:
REMARK  status: ('A' for Active; 'I' for Inactive)
REMARK    1  A    between atoms: N_3  and  C_4
REMARK    2  A    between atoms: C_4  and  C_5
REMARK    3  A    between atoms: C_14  and  O_15
REMARK    4  A    between atoms: O_15  and  C_16
REMARK                            x       y       z     vdW  Elec       q    Type
REMARK                         _______ _______ _______ _____ _____    ______ ____
ROOT
ATOM      1  O   UNL     1       2.579   7.153  18.399  0.00  0.00    +0.000 OA
ATOM      2  C   UNL     1       2.134   6.631  19.419  0.00  0.00    +0.000 C 
ATOM      3  N   UNL     1       1.725   7.383  20.488  0.00  0.00    +0.000 N 
ATOM      4  N   UNL     1       2.010   5.266  19.574  0.00  0.00    +0.000 N 
ATOM      5  C   UNL     1       1.331   4.569  20.666  0.00  0.00    +0.000 C 
ATOM      6  C   UNL     1       2.275   3.566  21.324  0.00  0.00    +0.000 C 
ATOM      7  C   UNL     1       2.873   2.608  20.287  0.00  0.00    +0.000 C 
ATOM      8  C   UNL     1       3.543   3.368  19.133  0.00  0.00    +0.000 C 
ATOM      9  C   UNL     1       2.560   4.389  18.536  0.00  0.00    +0.000 C 
ATOM     10  H   UNL     1       1.940   6.980  21.385  0.00  0.00    +0.000 HD
ENDROOT
BRANCH   3  11
ATOM     11  C   UNL     1       1.880   8.817  20.414  0.00  0.00    +0.000 C 
BRANCH  11  12
ATOM     12  C   UNL     1       0.916   9.458  21.357  0.00  0.00    +0.000 A 
ATOM     13  C   UNL     1       0.384   8.939  22.522  0.00  0.00    +0.000 A 
ATOM     14  C   UNL     1      -0.545   9.827  23.138  0.00  0.00    +0.000 A 
ATOM     15  C   UNL     1      -0.679  11.002  22.432  0.00  0.00    +0.000 A 
ATOM     16  S   UNL     1       0.315  11.033  21.042  0.00  0.00    +0.000 S 
ENDBRANCH  11  12
ENDBRANCH   3  11
BRANCH   8  17
ATOM     17  O   UNL     1       4.675   4.104  19.627  0.00  0.00    +0.000 OA
BRANCH  17  18
ATOM     18  C   UNL     1       5.532   4.592  18.670  0.00  0.00    +0.000 A 
ATOM     19  C   UNL     1       6.399   5.609  19.047  0.00  0.00    +0.000 A 
ATOM     20  N   UNL     1       7.283   6.175  18.187  0.00  0.00    +0.000 NA
ATOM     21  C   UNL     1       7.255   5.675  16.933  0.00  0.00    +0.000 A 
ATOM     22  C   UNL     1       6.396   4.653  16.558  0.00  0.00    +0.000 A 
ATOM     23  N   UNL     1       5.519   4.083  17.418  0.00  0.00    +0.000 NA
ENDBRANCH  17  18
ENDBRANCH   8  17
TORSDOF 4
ENDMDL
MODEL 9
REMARK VINA RESULT:      -6.5      3.500      5.736
REMARK  Name = 
REMARK  4 active torsions:
REMARK  status: ('A' for Active; 'I' for Inactive)
REMARK    1  A    between atoms: N_3  and  C_4
REMARK    2  A    between atoms: C_4  and  C_5
REMARK    3  A    between atoms: C_14  and  O_15
REMARK    4  A    between atoms: O_15  and  C_16
REMARK                            x       y       z     vdW  Elec       q    Type
REMARK                         _______ _______ _______ _____ _____    ______ ____
ROOT
ATOM      1  O   UNL     1       2.298   8.734  17.274  0.00  0.00    +0.000 OA
ATOM      2  C   UNL     1       2.081   8.344  18.419  0.00  0.00    +0.000 C 
ATOM      3  N   UNL     1       2.394   7.070  18.812  0.00  0.00    +0.000 N 
ATOM      4  N   UNL     1       1.517   9.141  19.393  0.00  0.00    +0.000 N 
ATOM      5  C   UNL     1       1.390   8.826  20.816  0.00  0.00    +0.000 C 
ATOM      6  C   UNL     1      -0.065   8.950  21.260  0.00  0.00    +0.000 C 
ATOM      7  C   UNL     1      -0.636  10.327  20.903  0.00  0.00    +0.000 C 
ATOM      8  C   UNL     1      -0.454  10.647  19.411  0.00  0.00    +0.000 C 
ATOM      9  C   UNL     1       1.021  10.468  19.013  0.00  0.00    +0.000 C 
ATOM     10  H   UNL     1       1.729   6.657  19.445  0.00  0.00    +0.000 HD
ENDROOT
BRANCH   3  11
ATOM     11  C   UNL     1       2.937   6.165  17.826  0.00  0.00    +0.000 C 
BRANCH  11  12
ATOM     12  C   UNL     1       4.424   6.134  17.965  0.00  0.00    +0.000 A 
ATOM     13  C   UNL     1       5.369   6.809  17.216  0.00  0.00    +0.000 A 
ATOM     14  C   UNL     1       6.701   6.495  17.612  0.00  0.00    +0.000 A 
ATOM     15  C   UNL     1       6.730   5.602  18.661  0.00  0.00    +0.000 A 
ATOM     16  S   UNL     1       5.160   5.157  19.167  0.00  0.00    +0.000 S 
ENDBRANCH  11  12
ENDBRANCH   3  11
BRANCH   8  17
ATOM     17  O   UNL     1      -1.225   9.729  18.618  0.00  0.00    +0.000 OA
BRANCH  17  18
ATOM     18  C   UNL     1      -2.231  10.289  17.868  0.00  0.00    +0.000 A 
ATOM     19  C   UNL     1      -2.272   9.973  16.516  0.00  0.00    +0.000 A 
ATOM     20  N   UNL     1      -3.212  10.472  15.675  0.00  0.00    +0.000 NA
ATOM     21  C   UNL     1      -4.107  11.304  16.252  0.00  0.00    +0.000 A 
ATOM     22  C   UNL     1      -4.072  11.612  17.603  0.00  0.00    +0.000 A 
ATOM     23  N   UNL     1      -3.139  11.108  18.444  0.00  0.00    +0.000 NA
ENDBRANCH  17  18
ENDBRANCH   8  17
TORSDOF 4
ENDMDL
