MODEL 1
REMARK VINA RESULT:      -8.3      0.000      0.000
REMARK  Name = 
REMARK  2 active torsions:
REMARK  status: ('A' for Active; 'I' for Inactive)
REMARK    1  A    between atoms: C_5  and  N_6
REMARK    2  A    between atoms: N_7  and  C_8
REMARK                            x       y       z     vdW  Elec       q    Type
REMARK                         _______ _______ _______ _____ _____    ______ ____
ROOT
ATOM      1  N   UNL     1       1.810   7.021  20.323  0.00  0.00    +0.000 NA
ATOM      2  N   UNL     1       1.699   8.202  19.932  0.00  0.00    +0.000 NA
ENDROOT
BRANCH   1   7
ATOM      3  C   UNL     1       1.450   2.112  18.832  0.00  0.00    +0.000 A 
ATOM      4  C   UNL     1       0.844   2.843  19.845  0.00  0.00    +0.000 A 
ATOM      5  C   UNL     1       1.163   4.193  20.022  0.00  0.00    +0.000 A 
ATOM      6  C   UNL     1       2.098   4.844  19.190  0.00  0.00    +0.000 A 
ATOM      7  C   UNL     1       2.445   6.216  19.338  0.00  0.00    +0.000 A 
ATOM      8  C   UNL     1       3.384   6.779  18.448  0.00  0.00    +0.000 A 
ATOM      9  C   UNL     1       3.986   6.021  17.449  0.00  0.00    +0.000 A 
ATOM     10  C   UNL     1       3.648   4.679  17.306  0.00  0.00    +0.000 A 
ATOM     11  C   UNL     1       2.713   4.081  18.159  0.00  0.00    +0.000 A 
ATOM     12  C   UNL     1       2.379   2.727  17.994  0.00  0.00    +0.000 A 
ENDBRANCH   1   7
BRANCH   2  13
ATOM     13  C   UNL     1       1.006   9.090  20.717  0.00  0.00    +0.000 C 
ATOM     14  C   UNL     1       0.147   9.970  20.167  0.00  0.00    +0.000 C 
ATOM     15  C   UNL     1      -0.106  10.155  18.701  0.00  0.00    +0.000 C 
ATOM     16  C   UNL     1      -1.167  11.264  18.640  0.00  0.00    +0.000 C 
ATOM     17  C   UNL     1      -1.444  11.726  20.076  0.00  0.00    +0.000 C 
ATOM     18  N   UNL     1      -0.646  10.836  20.888  0.00  0.00    +0.000 N 
ATOM     19  C   UNL     1      -0.578  10.965  22.329  0.00  0.00    +0.000 C 
ATOM     20  C   UNL     1      -0.151   9.621  22.925  0.00  0.00    +0.000 C 
ATOM     21  C   UNL     1       1.105   9.058  22.232  0.00  0.00    +0.000 C 
ENDBRANCH   2  13
TORSDOF 2
ENDMDL
MODEL 2
REMARK VINA RESULT:      -7.9      1.525      6.997
REMARK  Name = 
REMARK  2 active torsions:
REMARK  status: ('A' for Active; 'I' for Inactive)
REMARK    1  A    between atoms: C_5  and  N_6
REMARK    2  A    between atoms: N_7  and  C_8
REMARK                            x       y       z     vdW  Elec       q    Type
REMARK                         _______ _______ _______ _____ _____    ______ ____
ROOT
ATOM      1  N   UNL     1       2.089   7.807  20.132  0.00  0.00    +0.000 NA
ATOM      2  N   UNL     1       2.108   7.049  19.139  0.00  0.00    +0.000 NA
ENDROOT
BRANCH   1   7
ATOM      3  C   UNL     1      -0.966  10.735  23.054  0.00  0.00    +0.000 A 
ATOM      4  C   UNL     1      -0.196   9.610  23.316  0.00  0.00    +0.000 A 
ATOM      5  C   UNL     1       0.533   9.006  22.288  0.00  0.00    +0.000 A 
ATOM      6  C   UNL     1       0.510   9.512  20.972  0.00  0.00    +0.000 A 
ATOM      7  C   UNL     1       1.242   8.925  19.902  0.00  0.00    +0.000 A 
ATOM      8  C   UNL     1       1.162   9.513  18.622  0.00  0.00    +0.000 A 
ATOM      9  C   UNL     1       0.374  10.634  18.382  0.00  0.00    +0.000 A 
ATOM     10  C   UNL     1      -0.344  11.206  19.429  0.00  0.00    +0.000 A 
ATOM     11  C   UNL     1      -0.286  10.664  20.718  0.00  0.00    +0.000 A 
ATOM     12  C   UNL     1      -1.010  11.259  21.762  0.00  0.00    +0.000 A 
ENDBRANCH   1   7
BRANCH   2  13
ATOM     13  C   UNL     1       2.966   5.976  19.150  0.00  0.00    +0.000 C 
ATOM     14  C   UNL     1       2.649   4.850  19.816  0.00  0.00    +0.000 C 
ATOM     15  C   UNL     1       1.427   4.637  20.659  0.00  0.00    +0.000 C 
ATOM     16  C   UNL     1       1.566   3.194  21.165  0.00  0.00    +0.000 C 
ATOM     17  C   UNL     1       2.899   2.642  20.646  0.00  0.00    +0.000 C 
ATOM     18  N   UNL     1       3.413   3.703  19.809  0.00  0.00    +0.000 N 
ATOM     19  C   UNL     1       4.702   3.608  19.156  0.00  0.00    +0.000 C 
ATOM     20  C   UNL     1       4.718   4.561  17.958  0.00  0.00    +0.000 C 
ATOM     21  C   UNL     1       4.252   5.979  18.344  0.00  0.00    +0.000 C 
ENDBRANCH   2  13
TORSDOF 2
ENDMDL
MODEL 3
REMARK VINA RESULT:      -7.7      0.992      7.249
REMARK  Name = 
REMARK  2 active torsions:
REMARK  status: ('A' for Active; 'I' for Inactive)
REMARK    1  A    between atoms: C_5  and  N_6
REMARK    2  A    between atoms: N_7  and  C_8
REMARK                            x       y       z     vdW  Elec       q    Type
REMARK                         _______ _______ _______ _____ _____    ______ ____
ROOT
ATOM      1  N   UNL     1       1.748   8.156  19.814  0.00  0.00    +0.000 NA
ATOM      2  N   UNL     1       1.947   7.032  20.321  0.00  0.00    +0.000 NA
ENDROOT
BRANCH   1   7
ATOM      3  C   UNL     1      -1.607  12.008  19.215  0.00  0.00    +0.000 A 
ATOM      4  C   UNL     1      -0.849  11.262  18.322  0.00  0.00    +0.000 A 
ATOM      5  C   UNL     1       0.010  10.266  18.795  0.00  0.00    +0.000 A 
ATOM      6  C   UNL     1       0.134   9.992  20.173  0.00  0.00    +0.000 A 
ATOM      7  C   UNL     1       0.994   8.984  20.690  0.00  0.00    +0.000 A 
ATOM      8  C   UNL     1       1.039   8.779  22.085  0.00  0.00    +0.000 A 
ATOM      9  C   UNL     1       0.279   9.549  22.960  0.00  0.00    +0.000 A 
ATOM     10  C   UNL     1      -0.562  10.536  22.454  0.00  0.00    +0.000 A 
ATOM     11  C   UNL     1      -0.647  10.767  21.076  0.00  0.00    +0.000 A 
ATOM     12  C   UNL     1      -1.507  11.762  20.584  0.00  0.00    +0.000 A 
ENDBRANCH   1   7
BRANCH   2  13
ATOM     13  C   UNL     1       2.563   6.070  19.559  0.00  0.00    +0.000 C 
ATOM     14  C   UNL     1       2.188   4.779  19.648  0.00  0.00    +0.000 C 
ATOM     15  C   UNL     1       1.162   4.221  20.589  0.00  0.00    +0.000 C 
ATOM     16  C   UNL     1       1.127   2.722  20.260  0.00  0.00    +0.000 C 
ATOM     17  C   UNL     1       2.183   2.454  19.181  0.00  0.00    +0.000 C 
ATOM     18  N   UNL     1       2.697   3.767  18.863  0.00  0.00    +0.000 N 
ATOM     19  C   UNL     1       3.769   3.961  17.909  0.00  0.00    +0.000 C 
ATOM     20  C   UNL     1       3.707   5.398  17.383  0.00  0.00    +0.000 C 
ATOM     21  C   UNL     1       3.618   6.426  18.529  0.00  0.00    +0.000 C 
ENDBRANCH   2  13
TORSDOF 2
ENDMDL
MODEL 4
REMARK VINA RESULT:      -7.7      1.442      7.057
REMARK  Name = 
REMARK  2 active torsions:
REMARK  status: ('A' for Active; 'I' for Inactive)
REMARK    1  A    between atoms: C_5  and  N_6
REMARK    2  A    between atoms: N_7  and  C_8
REMARK                            x       y       z     vdW  Elec       q    Type
REMARK                         _______ _______ _______ _____ _____    ______ ____
ROOT
ATOM      1  N   UNL     1       2.257   7.943  19.217  0.00  0.00    +0.000 NA
ATOM      2  N   UNL     1       2.193   7.286  18.157  0.00  0.00    +0.000 NA
ENDROOT
BRANCH   1   7
ATOM      3  C   UNL     1      -0.416  10.235  22.965  0.00  0.00    +0.000 A 
ATOM      4  C   UNL     1       0.545   9.232  22.961  0.00  0.00    +0.000 A 
ATOM      5  C   UNL     1       1.093   8.793  21.753  0.00  0.00    +0.000 A 
ATOM      6  C   UNL     1       0.693   9.345  20.518  0.00  0.00    +0.000 A 
ATOM      7  C   UNL     1       1.232   8.926  19.269  0.00  0.00    +0.000 A 
ATOM      8  C   UNL     1       0.774   9.549  18.089  0.00  0.00    +0.000 A 
ATOM      9  C   UNL     1      -0.198  10.544  18.119  0.00  0.00    +0.000 A 
ATOM     10  C   UNL     1      -0.726  10.952  19.340  0.00  0.00    +0.000 A 
ATOM     11  C   UNL     1      -0.294  10.371  20.538  0.00  0.00    +0.000 A 
ATOM     12  C   UNL     1      -0.832  10.801  21.760  0.00  0.00    +0.000 A 
ENDBRANCH   1   7
BRANCH   2  13
ATOM     13  C   UNL     1       3.180   6.368  17.894  0.00  0.00    +0.000 C 
ATOM     14  C   UNL     1       2.917   5.048  17.923  0.00  0.00    +0.000 C 
ATOM     15  C   UNL     1       1.610   4.417  18.300  0.00  0.00    +0.000 C 
ATOM     16  C   UNL     1       1.864   2.910  18.153  0.00  0.00    +0.000 C 
ATOM     17  C   UNL     1       3.332   2.719  17.754  0.00  0.00    +0.000 C 
ATOM     18  N   UNL     1       3.827   4.067  17.592  0.00  0.00    +0.000 N 
ATOM     19  C   UNL     1       5.211   4.343  17.262  0.00  0.00    +0.000 C 
ATOM     20  C   UNL     1       5.299   5.733  16.627  0.00  0.00    +0.000 C 
ATOM     21  C   UNL     1       4.573   6.798  17.473  0.00  0.00    +0.000 C 
ENDBRANCH   2  13
TORSDOF 2
ENDMDL
MODEL 5
REMARK VINA RESULT:      -7.7      1.176      2.464
REMARK  Name = 
REMARK  2 active torsions:
REMARK  status: ('A' for Active; 'I' for Inactive)
REMARK    1  A    between atoms: C_5  and  N_6
REMARK    2  A    between atoms: N_7  and  C_8
REMARK                            x       y       z     vdW  Elec       q    Type
REMARK                         _______ _______ _______ _____ _____    ______ ____
ROOT
ATOM      1  N   UNL     1       2.136   7.319  17.911  0.00  0.00    +0.000 NA
ATOM      2  N   UNL     1       2.241   7.968  18.973  0.00  0.00    +0.000 NA
ENDROOT
BRANCH   1   7
ATOM      3  C   UNL     1       2.422   2.188  18.096  0.00  0.00    +0.000 A 
ATOM      4  C   UNL     1       1.379   3.087  18.272  0.00  0.00    +0.000 A 
ATOM      5  C   UNL     1       1.616   4.461  18.176  0.00  0.00    +0.000 A 
ATOM      6  C   UNL     1       2.903   4.970  17.903  0.00  0.00    +0.000 A 
ATOM      7  C   UNL     1       3.181   6.362  17.795  0.00  0.00    +0.000 A 
ATOM      8  C   UNL     1       4.500   6.770  17.507  0.00  0.00    +0.000 A 
ATOM      9  C   UNL     1       5.530   5.850  17.347  0.00  0.00    +0.000 A 
ATOM     10  C   UNL     1       5.258   4.489  17.454  0.00  0.00    +0.000 A 
ATOM     11  C   UNL     1       3.962   4.037  17.727  0.00  0.00    +0.000 A 
ATOM     12  C   UNL     1       3.706   2.660  17.824  0.00  0.00    +0.000 A 
ENDBRANCH   1   7
BRANCH   2  13
ATOM     13  C   UNL     1       1.376   9.013  19.191  0.00  0.00    +0.000 C 
ATOM     14  C   UNL     1       0.924   9.284  20.431  0.00  0.00    +0.000 C 
ATOM     15  C   UNL     1       1.214   8.490  21.669  0.00  0.00    +0.000 C 
ATOM     16  C   UNL     1       0.467   9.240  22.780  0.00  0.00    +0.000 C 
ATOM     17  C   UNL     1      -0.282  10.411  22.133  0.00  0.00    +0.000 C 
ATOM     18  N   UNL     1       0.123  10.360  20.746  0.00  0.00    +0.000 N 
ATOM     19  C   UNL     1      -0.406  11.277  19.758  0.00  0.00    +0.000 C 
ATOM     20  C   UNL     1       0.573  11.354  18.583  0.00  0.00    +0.000 C 
ATOM     21  C   UNL     1       0.969   9.954  18.072  0.00  0.00    +0.000 C 
ENDBRANCH   2  13
TORSDOF 2
ENDMDL
MODEL 6
REMARK VINA RESULT:      -7.5      1.338      2.409
REMARK  Name = 
REMARK  2 active torsions:
REMARK  status: ('A' for Active; 'I' for Inactive)
REMARK    1  A    between atoms: C_5  and  N_6
REMARK    2  A    between atoms: N_7  and  C_8
REMARK                            x       y       z     vdW  Elec       q    Type
REMARK                         _______ _______ _______ _____ _____    ______ ____
ROOT
ATOM      1  N   UNL     1       2.170   7.094  18.569  0.00  0.00    +0.000 NA
ATOM      2  N   UNL     1       2.189   7.848  19.564  0.00  0.00    +0.000 NA
ENDROOT
BRANCH   1   7
ATOM      3  C   UNL     1       2.163   2.562  20.999  0.00  0.00    +0.000 A 
ATOM      4  C   UNL     1       1.246   3.602  20.927  0.00  0.00    +0.000 A 
ATOM      5  C   UNL     1       1.542   4.746  20.182  0.00  0.00    +0.000 A 
ATOM      6  C   UNL     1       2.764   4.880  19.490  0.00  0.00    +0.000 A 
ATOM      7  C   UNL     1       3.098   6.028  18.719  0.00  0.00    +0.000 A 
ATOM      8  C   UNL     1       4.342   6.061  18.054  0.00  0.00    +0.000 A 
ATOM      9  C   UNL     1       5.249   5.012  18.152  0.00  0.00    +0.000 A 
ATOM     10  C   UNL     1       4.923   3.890  18.908  0.00  0.00    +0.000 A 
ATOM     11  C   UNL     1       3.695   3.808  19.575  0.00  0.00    +0.000 A 
ATOM     12  C   UNL     1       3.381   2.664  20.326  0.00  0.00    +0.000 A 
ENDBRANCH   1   7
BRANCH   2  13
ATOM     13  C   UNL     1       1.433   8.994  19.534  0.00  0.00    +0.000 C 
ATOM     14  C   UNL     1       0.776   9.413  20.633  0.00  0.00    +0.000 C 
ATOM     15  C   UNL     1       0.711   8.697  21.948  0.00  0.00    +0.000 C 
ATOM     16  C   UNL     1      -0.147   9.613  22.833  0.00  0.00    +0.000 C 
ATOM     17  C   UNL     1      -0.603  10.800  21.975  0.00  0.00    +0.000 C 
ATOM     18  N   UNL     1       0.065  10.591  20.710  0.00  0.00    +0.000 N 
ATOM     19  C   UNL     1      -0.138  11.475  19.580  0.00  0.00    +0.000 C 
ATOM     20  C   UNL     1       1.059  11.349  18.635  0.00  0.00    +0.000 C 
ATOM     21  C   UNL     1       1.377   9.878  18.302  0.00  0.00    +0.000 C 
ENDBRANCH   2  13
TORSDOF 2
ENDMDL
MODEL 7
REMARK VINA RESULT:      -7.5      1.417      1.749
REMARK  Name = 
REMARK  2 active torsions:
REMARK  status: ('A' for Active; 'I' for Inactive)
REMARK    1  A    between atoms: C_5  and  N_6
REMARK    2  A    between atoms: N_7  and  C_8
REMARK                            x       y       z     vdW  Elec       q    Type
REMARK                         _______ _______ _______ _____ _____    ______ ____
ROOT
ATOM      1  N   UNL     1       1.549   8.303  19.778  0.00  0.00    +0.000 NA
ATOM      2  N   UNL     1       1.325   9.313  19.077  0.00  0.00    +0.000 NA
ENDROOT
BRANCH   1   7
ATOM      3  C   UNL     1       2.621   3.295  20.242  0.00  0.00    +0.000 A 
ATOM      4  C   UNL     1       1.831   4.169  20.978  0.00  0.00    +0.000 A 
ATOM      5  C   UNL     1       1.747   5.515  20.610  0.00  0.00    +0.000 A 
ATOM      6  C   UNL     1       2.452   6.021  19.498  0.00  0.00    +0.000 A 
ATOM      7  C   UNL     1       2.387   7.383  19.092  0.00  0.00    +0.000 A 
ATOM      8  C   UNL     1       3.121   7.789  17.957  0.00  0.00    +0.000 A 
ATOM      9  C   UNL     1       3.914   6.896  17.245  0.00  0.00    +0.000 A 
ATOM     10  C   UNL     1       3.979   5.565  17.643  0.00  0.00    +0.000 A 
ATOM     11  C   UNL     1       3.259   5.114  18.755  0.00  0.00    +0.000 A 
ATOM     12  C   UNL     1       3.330   3.765  19.137  0.00  0.00    +0.000 A 
ENDBRANCH   1   7
BRANCH   2  13
ATOM     13  C   UNL     1       0.439  10.252  19.545  0.00  0.00    +0.000 C 
ATOM     14  C   UNL     1      -0.715  10.493  18.894  0.00  0.00    +0.000 C 
ATOM     15  C   UNL     1      -1.144   9.870  17.600  0.00  0.00    +0.000 C 
ATOM     16  C   UNL     1      -2.524  10.487  17.325  0.00  0.00    +0.000 C 
ATOM     17  C   UNL     1      -2.817  11.496  18.442  0.00  0.00    +0.000 C 
ATOM     18  N   UNL     1      -1.692  11.358  19.340  0.00  0.00    +0.000 N 
ATOM     19  C   UNL     1      -1.547  12.183  20.521  0.00  0.00    +0.000 C 
ATOM     20  C   UNL     1      -0.631  11.464  21.515  0.00  0.00    +0.000 C 
ATOM     21  C   UNL     1       0.676  10.987  20.852  0.00  0.00    +0.000 C 
ENDBRANCH   2  13
TORSDOF 2
ENDMDL
MODEL 8
REMARK VINA RESULT:      -7.4      1.750      3.752
REMARK  Name = 
REMARK  2 active torsions:
REMARK  status: ('A' for Active; 'I' for Inactive)
REMARK    1  A    between atoms: C_5  and  N_6
REMARK    2  A    between atoms: N_7  and  C_8
REMARK                            x       y       z     vdW  Elec       q    Type
REMARK                         _______ _______ _______ _____ _____    ______ ____
ROOT
ATOM      1  N   UNL     1       2.606   7.487  17.809  0.00  0.00    +0.000 NA
ATOM      2  N   UNL     1       2.038   7.742  18.892  0.00  0.00    +0.000 NA
ENDROOT
BRANCH   1   7
ATOM      3  C   UNL     1       7.330   5.511  17.340  0.00  0.00    +0.000 A 
ATOM      4  C   UNL     1       6.831   6.805  17.266  0.00  0.00    +0.000 A 
ATOM      5  C   UNL     1       5.462   7.036  17.422  0.00  0.00    +0.000 A 
ATOM      6  C   UNL     1       4.557   5.978  17.653  0.00  0.00    +0.000 A 
ATOM      7  C   UNL     1       3.158   6.176  17.820  0.00  0.00    +0.000 A 
ATOM      8  C   UNL     1       2.337   5.054  18.059  0.00  0.00    +0.000 A 
ATOM      9  C   UNL     1       2.860   3.767  18.115  0.00  0.00    +0.000 A 
ATOM     10  C   UNL     1       4.228   3.574  17.950  0.00  0.00    +0.000 A 
ATOM     11  C   UNL     1       5.083   4.658  17.723  0.00  0.00    +0.000 A 
ATOM     12  C   UNL     1       6.462   4.444  17.567  0.00  0.00    +0.000 A 
ENDBRANCH   1   7
BRANCH   2  13
ATOM     13  C   UNL     1       1.548   9.008  19.093  0.00  0.00    +0.000 C 
ATOM     14  C   UNL     1       0.969   9.344  20.262  0.00  0.00    +0.000 C 
ATOM     15  C   UNL     1       0.717   8.423  21.418  0.00  0.00    +0.000 C 
ATOM     16  C   UNL     1       0.054   9.319  22.474  0.00  0.00    +0.000 C 
ATOM     17  C   UNL     1      -0.112  10.717  21.866  0.00  0.00    +0.000 C 
ATOM     18  N   UNL     1       0.527  10.612  20.573  0.00  0.00    +0.000 N 
ATOM     19  C   UNL     1       0.549  11.716  19.636  0.00  0.00    +0.000 C 
ATOM     20  C   UNL     1       1.715  11.515  18.665  0.00  0.00    +0.000 C 
ATOM     21  C   UNL     1       1.717  10.100  18.053  0.00  0.00    +0.000 C 
ENDBRANCH   2  13
TORSDOF 2
ENDMDL
MODEL 9
REMARK VINA RESULT:      -7.4      1.765      7.004
REMARK  Name = 
REMARK  2 active torsions:
REMARK  status: ('A' for Active; 'I' for Inactive)
REMARK    1  A    between atoms: C_5  and  N_6
REMARK    2  A    between atoms: N_7  and  C_8
REMARK                            x       y       z     vdW  Elec       q    Type
REMARK                         _______ _______ _______ _____ _____    ______ ____
ROOT
ATOM      1  N   UNL     1       2.165   7.386  19.383  0.00  0.00    +0.000 NA
ATOM      2  N   UNL     1       2.183   6.883  18.240  0.00  0.00    +0.000 NA
ENDROOT
BRANCH   1   7
ATOM      3  C   UNL     1      -0.431  10.438  22.606  0.00  0.00    +0.000 A 
ATOM      4  C   UNL     1      -0.038   9.108  22.668  0.00  0.00    +0.000 A 
ATOM      5  C   UNL     1       0.660   8.534  21.602  0.00  0.00    +0.000 A 
ATOM      6  C   UNL     1       0.979   9.275  20.445  0.00  0.00    +0.000 A 
ATOM      7  C   UNL     1       1.691   8.725  19.343  0.00  0.00    +0.000 A 
ATOM      8  C   UNL     1       1.973   9.553  18.235  0.00  0.00    +0.000 A 
ATOM      9  C   UNL     1       1.556  10.879  18.192  0.00  0.00    +0.000 A 
ATOM     10  C   UNL     1       0.859  11.416  19.270  0.00  0.00    +0.000 A 
ATOM     11  C   UNL     1       0.567  10.636  20.394  0.00  0.00    +0.000 A 
ATOM     12  C   UNL     1      -0.131  11.198  21.475  0.00  0.00    +0.000 A 
ENDBRANCH   1   7
BRANCH   2  13
ATOM     13  C   UNL     1       2.721   5.630  18.083  0.00  0.00    +0.000 C 
ATOM     14  C   UNL     1       3.900   5.461  17.453  0.00  0.00    +0.000 C 
ATOM     15  C   UNL     1       4.713   6.538  16.800  0.00  0.00    +0.000 C 
ATOM     16  C   UNL     1       5.945   5.802  16.256  0.00  0.00    +0.000 C 
ATOM     17  C   UNL     1       5.771   4.309  16.560  0.00  0.00    +0.000 C 
ATOM     18  N   UNL     1       4.547   4.250  17.327  0.00  0.00    +0.000 N 
ATOM     19  C   UNL     1       3.983   2.995  17.779  0.00  0.00    +0.000 C 
ATOM     20  C   UNL     1       3.069   3.268  18.976  0.00  0.00    +0.000 C 
ATOM     21  C   UNL     1       2.065   4.401  18.686  0.00  0.00    +0.000 C 
ENDBRANCH   2  13
TORSDOF 2
ENDMDL
