MODEL 1
REMARK VINA RESULT:      -8.4      0.000      0.000
REMARK  Name = 
REMARK  11 active torsions:
REMARK  status: ('A' for Active; 'I' for Inactive)
REMARK    1  A    between atoms: C_2  and  C_11
REMARK    2  A    between atoms: N_3  and  C_4
REMARK    3  A    between atoms: C_4  and  C_5
REMARK    4  A    between atoms: C_11  and  C_12
REMARK    5  A    between atoms: C_11  and  N_22
REMARK    6  A    between atoms: C_12  and  C_13
REMARK    7  A    between atoms: C_14  and  C_15
REMARK    8  A    between atoms: N_22  and  C_23
REMARK    9  A    between atoms: C_23  and  P_24
REMARK   10  A    between atoms: P_24  and  O_26
REMARK   11  A    between atoms: P_24  and  O_27
REMARK                            x       y       z     vdW  Elec       q    Type
REMARK                         _______ _______ _______ _____ _____    ______ ____
ROOT
ATOM      1  C   UNL     1       7.566   6.037  17.934  0.00  0.00    +0.000 C 
ENDROOT
BRANCH   1   3
ATOM      2  O   UNL     1       6.768   5.059  20.040  0.00  0.00    +0.000 OA
ATOM      3  C   UNL     1       6.472   5.648  19.000  0.00  0.00    +0.000 C 
ATOM      4  N   UNL     1       5.163   5.985  18.698  0.00  0.00    +0.000 N 
ATOM      5  H   UNL     1       4.948   6.192  17.732  0.00  0.00    +0.000 HD
BRANCH   4   6
ATOM      6  C   UNL     1       4.073   5.636  19.598  0.00  0.00    +0.000 C 
BRANCH   6   7
ATOM      7  C   UNL     1       3.283   4.425  19.145  0.00  0.00    +0.000 A 
ATOM      8  C   UNL     1       2.527   3.671  20.052  0.00  0.00    +0.000 A 
ATOM      9  C   UNL     1       1.735   2.599  19.617  0.00  0.00    +0.000 A 
ATOM     10  C   UNL     1       1.691   2.272  18.263  0.00  0.00    +0.000 A 
ATOM     11  C   UNL     1       2.435   3.019  17.347  0.00  0.00    +0.000 A 
ATOM     12  C   UNL     1       3.222   4.085  17.784  0.00  0.00    +0.000 A 
ENDBRANCH   6   7
ENDBRANCH   4   6
ENDBRANCH   1   3
BRANCH   1  13
ATOM     13  N   UNL     1       7.816   4.872  16.982  0.00  0.00    +0.000 NA
ATOM     14  H   UNL     1       8.200   4.112  17.560  0.00  0.00    +0.000 HD
BRANCH  13  15
ATOM     15  C   UNL     1       6.482   4.457  16.473  0.00  0.00    +0.000 C 
BRANCH  15  16
ATOM     16  P   UNL     1       6.505   4.173  14.665  0.00  0.00    +0.000 P 
ATOM     17  O   UNL     1       5.133   4.832  14.527  0.00  0.00    +0.000 OA
BRANCH  16  18
ATOM     18  O   UNL     1       7.636   5.344  14.450  0.00  0.00    +0.000 OA
ATOM     19  H   UNL     1       8.085   5.244  13.580  0.00  0.00    +0.000 HD
ENDBRANCH  16  18
BRANCH  16  20
ATOM     20  O   UNL     1       6.527   3.903  12.956  0.00  0.00    +0.000 OA
ATOM     21  H   UNL     1       6.538   4.808  12.585  0.00  0.00    +0.000 HD
ENDBRANCH  16  20
ENDBRANCH  15  16
ENDBRANCH  13  15
ENDBRANCH   1  13
BRANCH   1  22
ATOM     22  C   UNL     1       7.105   7.350  17.182  0.00  0.00    +0.000 C 
BRANCH  22  23
ATOM     23  C   UNL     1       7.924   8.421  17.885  0.00  0.00    +0.000 C 
ATOM     24  C   UNL     1       8.627   9.340  18.488  0.00  0.00    +0.000 C 
BRANCH  24  25
ATOM     25  C   UNL     1       9.375  10.372  19.134  0.00  0.00    +0.000 A 
ATOM     26  C   UNL     1       9.166  10.636  20.491  0.00  0.00    +0.000 A 
ATOM     27  C   UNL     1       9.866  11.671  21.118  0.00  0.00    +0.000 A 
ATOM     28  C   UNL     1      10.774  12.444  20.394  0.00  0.00    +0.000 A 
ATOM     29  C   UNL     1      10.994  12.175  19.043  0.00  0.00    +0.000 A 
ATOM     30  C   UNL     1      10.299  11.139  18.423  0.00  0.00    +0.000 A 
ATOM     31  F   UNL     1      10.536  10.892  17.126  0.00  0.00    +0.000 F 
ENDBRANCH  24  25
ENDBRANCH  22  23
ENDBRANCH   1  22
TORSDOF 11
ENDMDL
MODEL 2
REMARK VINA RESULT:      -8.4      1.295      1.691
REMARK  Name = 
REMARK  11 active torsions:
REMARK  status: ('A' for Active; 'I' for Inactive)
REMARK    1  A    between atoms: C_2  and  C_11
REMARK    2  A    between atoms: N_3  and  C_4
REMARK    3  A    between atoms: C_4  and  C_5
REMARK    4  A    between atoms: C_11  and  C_12
REMARK    5  A    between atoms: C_11  and  N_22
REMARK    6  A    between atoms: C_12  and  C_13
REMARK    7  A    between atoms: C_14  and  C_15
REMARK    8  A    between atoms: N_22  and  C_23
REMARK    9  A    between atoms: C_23  and  P_24
REMARK   10  A    between atoms: P_24  and  O_26
REMARK   11  A    between atoms: P_24  and  O_27
REMARK                            x       y       z     vdW  Elec       q    Type
REMARK                         _______ _______ _______ _____ _____    ______ ____
ROOT
ATOM      1  C   UNL     1       7.553   6.446  17.665  0.00  0.00    +0.000 C 
ENDROOT
BRANCH   1   3
ATOM      2  O   UNL     1       7.227   5.578  19.939  0.00  0.00    +0.000 OA
ATOM      3  C   UNL     1       6.870   5.541  18.760  0.00  0.00    +0.000 C 
ATOM      4  N   UNL     1       5.866   4.693  18.328  0.00  0.00    +0.000 N 
ATOM      5  H   UNL     1       5.819   4.495  17.337  0.00  0.00    +0.000 HD
BRANCH   4   6
ATOM      6  C   UNL     1       5.198   3.789  19.254  0.00  0.00    +0.000 C 
BRANCH   6   7
ATOM      7  C   UNL     1       3.714   3.641  18.985  0.00  0.00    +0.000 A 
ATOM      8  C   UNL     1       2.846   3.134  19.961  0.00  0.00    +0.000 A 
ATOM      9  C   UNL     1       1.464   3.073  19.738  0.00  0.00    +0.000 A 
ATOM     10  C   UNL     1       0.934   3.522  18.530  0.00  0.00    +0.000 A 
ATOM     11  C   UNL     1       1.786   4.036  17.550  0.00  0.00    +0.000 A 
ATOM     12  C   UNL     1       3.162   4.096  17.776  0.00  0.00    +0.000 A 
ENDBRANCH   6   7
ENDBRANCH   4   6
ENDBRANCH   1   3
BRANCH   1  13
ATOM     13  N   UNL     1       7.633   5.701  16.337  0.00  0.00    +0.000 NA
ATOM     14  H   UNL     1       7.870   4.727  16.574  0.00  0.00    +0.000 HD
BRANCH  13  15
ATOM     15  C   UNL     1       6.263   5.731  15.759  0.00  0.00    +0.000 C 
BRANCH  15  16
ATOM     16  P   UNL     1       6.040   4.445  14.477  0.00  0.00    +0.000 P 
ATOM     17  O   UNL     1       7.380   4.820  13.843  0.00  0.00    +0.000 OA
BRANCH  16  18
ATOM     18  O   UNL     1       6.330   3.248  15.564  0.00  0.00    +0.000 OA
ATOM     19  H   UNL     1       5.948   2.394  15.257  0.00  0.00    +0.000 HD
ENDBRANCH  16  18
BRANCH  16  20
ATOM     20  O   UNL     1       5.828   3.228  13.265  0.00  0.00    +0.000 OA
ATOM     21  H   UNL     1       6.427   3.518  12.547  0.00  0.00    +0.000 HD
ENDBRANCH  16  20
ENDBRANCH  15  16
ENDBRANCH  13  15
ENDBRANCH   1  13
BRANCH   1  22
ATOM     22  C   UNL     1       6.752   7.806  17.552  0.00  0.00    +0.000 C 
BRANCH  22  23
ATOM     23  C   UNL     1       7.802   8.825  17.965  0.00  0.00    +0.000 C 
ATOM     24  C   UNL     1       8.703   9.700  18.318  0.00  0.00    +0.000 C 
BRANCH  24  25
ATOM     25  C   UNL     1       9.666  10.685  18.700  0.00  0.00    +0.000 A 
ATOM     26  C   UNL     1      10.418  11.339  17.719  0.00  0.00    +0.000 A 
ATOM     27  C   UNL     1      11.388  12.274  18.088  0.00  0.00    +0.000 A 
ATOM     28  C   UNL     1      11.612  12.558  19.436  0.00  0.00    +0.000 A 
ATOM     29  C   UNL     1      10.854  11.918  20.417  0.00  0.00    +0.000 A 
ATOM     30  C   UNL     1       9.884  10.991  20.044  0.00  0.00    +0.000 A 
ATOM     31  F   UNL     1       9.160  10.396  21.004  0.00  0.00    +0.000 F 
ENDBRANCH  24  25
ENDBRANCH  22  23
ENDBRANCH   1  22
TORSDOF 11
ENDMDL
MODEL 3
REMARK VINA RESULT:      -8.1      4.579      7.374
REMARK  Name = 
REMARK  11 active torsions:
REMARK  status: ('A' for Active; 'I' for Inactive)
REMARK    1  A    between atoms: C_2  and  C_11
REMARK    2  A    between atoms: N_3  and  C_4
REMARK    3  A    between atoms: C_4  and  C_5
REMARK    4  A    between atoms: C_11  and  C_12
REMARK    5  A    between atoms: C_11  and  N_22
REMARK    6  A    between atoms: C_12  and  C_13
REMARK    7  A    between atoms: C_14  and  C_15
REMARK    8  A    between atoms: N_22  and  C_23
REMARK    9  A    between atoms: C_23  and  P_24
REMARK   10  A    between atoms: P_24  and  O_26
REMARK   11  A    between atoms: P_24  and  O_27
REMARK                            x       y       z     vdW  Elec       q    Type
REMARK                         _______ _______ _______ _____ _____    ______ ____
ROOT
ATOM      1  C   UNL     1       1.843   5.310  18.890  0.00  0.00    +0.000 C 
ENDROOT
BRANCH   1   3
ATOM      2  O   UNL     1       3.081   7.139  17.818  0.00  0.00    +0.000 OA
ATOM      3  C   UNL     1       2.987   5.924  17.996  0.00  0.00    +0.000 C 
ATOM      4  N   UNL     1       3.866   5.030  17.410  0.00  0.00    +0.000 N 
ATOM      5  H   UNL     1       3.574   4.063  17.351  0.00  0.00    +0.000 HD
BRANCH   4   6
ATOM      6  C   UNL     1       4.934   5.493  16.535  0.00  0.00    +0.000 C 
BRANCH   6   7
ATOM      7  C   UNL     1       6.140   6.018  17.286  0.00  0.00    +0.000 A 
ATOM      8  C   UNL     1       6.689   7.273  16.991  0.00  0.00    +0.000 A 
ATOM      9  C   UNL     1       7.756   7.790  17.740  0.00  0.00    +0.000 A 
ATOM     10  C   UNL     1       8.284   7.052  18.797  0.00  0.00    +0.000 A 
ATOM     11  C   UNL     1       7.743   5.803  19.108  0.00  0.00    +0.000 A 
ATOM     12  C   UNL     1       6.681   5.292  18.360  0.00  0.00    +0.000 A 
ENDBRANCH   6   7
ENDBRANCH   4   6
ENDBRANCH   1   3
BRANCH   1  13
ATOM     13  N   UNL     1       1.559   3.871  18.472  0.00  0.00    +0.000 NA
ATOM     14  H   UNL     1       2.122   3.706  17.627  0.00  0.00    +0.000 HD
BRANCH  13  15
ATOM     15  C   UNL     1       2.079   3.009  19.567  0.00  0.00    +0.000 C 
BRANCH  15  16
ATOM     16  P   UNL     1       3.255   1.754  18.940  0.00  0.00    +0.000 P 
ATOM     17  O   UNL     1       2.822   2.043  17.503  0.00  0.00    +0.000 OA
BRANCH  16  18
ATOM     18  O   UNL     1       4.537   2.726  19.271  0.00  0.00    +0.000 OA
ATOM     19  H   UNL     1       5.377   2.315  18.965  0.00  0.00    +0.000 HD
ENDBRANCH  16  18
BRANCH  16  20
ATOM     20  O   UNL     1       4.366   0.567  18.349  0.00  0.00    +0.000 OA
ATOM     21  H   UNL     1       5.207   0.806  18.790  0.00  0.00    +0.000 HD
ENDBRANCH  16  20
ENDBRANCH  15  16
ENDBRANCH  13  15
ENDBRANCH   1  13
BRANCH   1  22
ATOM     22  C   UNL     1       2.261   5.430  20.412  0.00  0.00    +0.000 C 
BRANCH  22  23
ATOM     23  C   UNL     1       1.615   6.746  20.814  0.00  0.00    +0.000 C 
ATOM     24  C   UNL     1       1.062   7.875  21.159  0.00  0.00    +0.000 C 
BRANCH  24  25
ATOM     25  C   UNL     1       0.431   9.110  21.509  0.00  0.00    +0.000 A 
ATOM     26  C   UNL     1      -0.151   9.260  22.771  0.00  0.00    +0.000 A 
ATOM     27  C   UNL     1      -0.804  10.450  23.104  0.00  0.00    +0.000 A 
ATOM     28  C   UNL     1      -0.877  11.493  22.179  0.00  0.00    +0.000 A 
ATOM     29  C   UNL     1      -0.284  11.352  20.924  0.00  0.00    +0.000 A 
ATOM     30  C   UNL     1       0.370  10.166  20.599  0.00  0.00    +0.000 A 
ATOM     31  F   UNL     1       0.941  10.058  19.389  0.00  0.00    +0.000 F 
ENDBRANCH  24  25
ENDBRANCH  22  23
ENDBRANCH   1  22
TORSDOF 11
ENDMDL
MODEL 4
REMARK VINA RESULT:      -8.0      4.262      5.238
REMARK  Name = 
REMARK  11 active torsions:
REMARK  status: ('A' for Active; 'I' for Inactive)
REMARK    1  A    between atoms: C_2  and  C_11
REMARK    2  A    between atoms: N_3  and  C_4
REMARK    3  A    between atoms: C_4  and  C_5
REMARK    4  A    between atoms: C_11  and  C_12
REMARK    5  A    between atoms: C_11  and  N_22
REMARK    6  A    between atoms: C_12  and  C_13
REMARK    7  A    between atoms: C_14  and  C_15
REMARK    8  A    between atoms: N_22  and  C_23
REMARK    9  A    between atoms: C_23  and  P_24
REMARK   10  A    between atoms: P_24  and  O_26
REMARK   11  A    between atoms: P_24  and  O_27
REMARK                            x       y       z     vdW  Elec       q    Type
REMARK                         _______ _______ _______ _____ _____    ______ ____
ROOT
ATOM      1  C   UNL     1       5.930   6.062  16.987  0.00  0.00    +0.000 C 
ENDROOT
BRANCH   1   3
ATOM      2  O   UNL     1       5.991   4.395  18.789  0.00  0.00    +0.000 OA
ATOM      3  C   UNL     1       5.456   4.763  17.742  0.00  0.00    +0.000 C 
ATOM      4  N   UNL     1       4.423   4.048  17.161  0.00  0.00    +0.000 N 
ATOM      5  H   UNL     1       4.228   4.225  16.184  0.00  0.00    +0.000 HD
BRANCH   4   6
ATOM      6  C   UNL     1       3.936   2.813  17.759  0.00  0.00    +0.000 C 
BRANCH   6   7
ATOM      7  C   UNL     1       3.002   3.039  18.930  0.00  0.00    +0.000 A 
ATOM      8  C   UNL     1       3.325   2.585  20.215  0.00  0.00    +0.000 A 
ATOM      9  C   UNL     1       2.496   2.864  21.311  0.00  0.00    +0.000 A 
ATOM     10  C   UNL     1       1.331   3.606  21.129  0.00  0.00    +0.000 A 
ATOM     11  C   UNL     1       0.999   4.071  19.855  0.00  0.00    +0.000 A 
ATOM     12  C   UNL     1       1.827   3.791  18.766  0.00  0.00    +0.000 A 
ENDBRANCH   6   7
ENDBRANCH   4   6
ENDBRANCH   1   3
BRANCH   1  13
ATOM     13  N   UNL     1       7.182   5.771  16.166  0.00  0.00    +0.000 NA
ATOM     14  H   UNL     1       7.977   5.894  16.809  0.00  0.00    +0.000 HD
BRANCH  13  15
ATOM     15  C   UNL     1       7.101   4.337  15.777  0.00  0.00    +0.000 C 
BRANCH  15  16
ATOM     16  P   UNL     1       6.906   4.135  13.969  0.00  0.00    +0.000 P 
ATOM     17  O   UNL     1       5.386   4.235  14.105  0.00  0.00    +0.000 OA
BRANCH  16  18
ATOM     18  O   UNL     1       7.474   5.651  13.694  0.00  0.00    +0.000 OA
ATOM     19  H   UNL     1       8.168   5.891  14.348  0.00  0.00    +0.000 HD
ENDBRANCH  16  18
BRANCH  16  20
ATOM     20  O   UNL     1       6.722   3.944  12.260  0.00  0.00    +0.000 OA
ATOM     21  H   UNL     1       7.637   4.029  11.923  0.00  0.00    +0.000 HD
ENDBRANCH  16  20
ENDBRANCH  15  16
ENDBRANCH  13  15
ENDBRANCH   1  13
BRANCH   1  22
ATOM     22  C   UNL     1       4.736   6.607  16.104  0.00  0.00    +0.000 C 
BRANCH  22  23
ATOM     23  C   UNL     1       3.788   7.155  17.157  0.00  0.00    +0.000 C 
ATOM     24  C   UNL     1       2.973   7.625  18.061  0.00  0.00    +0.000 C 
BRANCH  24  25
ATOM     25  C   UNL     1       2.101   8.124  19.079  0.00  0.00    +0.000 A 
ATOM     26  C   UNL     1       1.974   7.431  20.286  0.00  0.00    +0.000 A 
ATOM     27  C   UNL     1       1.094   7.892  21.269  0.00  0.00    +0.000 A 
ATOM     28  C   UNL     1       0.338   9.044  21.049  0.00  0.00    +0.000 A 
ATOM     29  C   UNL     1       0.473   9.746  19.851  0.00  0.00    +0.000 A 
ATOM     30  C   UNL     1       1.356   9.286  18.877  0.00  0.00    +0.000 A 
ATOM     31  F   UNL     1       1.476   9.983  17.737  0.00  0.00    +0.000 F 
ENDBRANCH  24  25
ENDBRANCH  22  23
ENDBRANCH   1  22
TORSDOF 11
ENDMDL
MODEL 5
REMARK VINA RESULT:      -8.0      1.163      1.216
REMARK  Name = 
REMARK  11 active torsions:
REMARK  status: ('A' for Active; 'I' for Inactive)
REMARK    1  A    between atoms: C_2  and  C_11
REMARK    2  A    between atoms: N_3  and  C_4
REMARK    3  A    between atoms: C_4  and  C_5
REMARK    4  A    between atoms: C_11  and  C_12
REMARK    5  A    between atoms: C_11  and  N_22
REMARK    6  A    between atoms: C_12  and  C_13
REMARK    7  A    between atoms: C_14  and  C_15
REMARK    8  A    between atoms: N_22  and  C_23
REMARK    9  A    between atoms: C_23  and  P_24
REMARK   10  A    between atoms: P_24  and  O_26
REMARK   11  A    between atoms: P_24  and  O_27
REMARK                            x       y       z     vdW  Elec       q    Type
REMARK                         _______ _______ _______ _____ _____    ______ ____
ROOT
ATOM      1  C   UNL     1       7.538   5.782  17.694  0.00  0.00    +0.000 C 
ENDROOT
BRANCH   1   3
ATOM      2  O   UNL     1       7.101   5.409  20.081  0.00  0.00    +0.000 OA
ATOM      3  C   UNL     1       6.784   5.142  18.921  0.00  0.00    +0.000 C 
ATOM      4  N   UNL     1       5.764   4.254  18.629  0.00  0.00    +0.000 N 
ATOM      5  H   UNL     1       5.744   3.859  17.698  0.00  0.00    +0.000 HD
BRANCH   4   6
ATOM      6  C   UNL     1       5.031   3.579  19.691  0.00  0.00    +0.000 C 
BRANCH   6   7
ATOM      7  C   UNL     1       3.575   3.332  19.352  0.00  0.00    +0.000 A 
ATOM      8  C   UNL     1       2.753   2.572  20.195  0.00  0.00    +0.000 A 
ATOM      9  C   UNL     1       1.388   2.410  19.920  0.00  0.00    +0.000 A 
ATOM     10  C   UNL     1       0.830   3.012  18.794  0.00  0.00    +0.000 A 
ATOM     11  C   UNL     1       1.635   3.777  17.949  0.00  0.00    +0.000 A 
ATOM     12  C   UNL     1       2.994   3.936  18.226  0.00  0.00    +0.000 A 
ENDBRANCH   6   7
ENDBRANCH   4   6
ENDBRANCH   1   3
BRANCH   1  13
ATOM     13  N   UNL     1       7.836   4.719  16.641  0.00  0.00    +0.000 NA
ATOM     14  H   UNL     1       8.195   3.904  17.157  0.00  0.00    +0.000 HD
BRANCH  13  15
ATOM     15  C   UNL     1       6.527   4.359  16.033  0.00  0.00    +0.000 C 
BRANCH  15  16
ATOM     16  P   UNL     1       6.657   4.156  14.218  0.00  0.00    +0.000 P 
ATOM     17  O   UNL     1       5.222   4.655  14.044  0.00  0.00    +0.000 OA
BRANCH  16  18
ATOM     18  O   UNL     1       7.647   5.461  14.099  0.00  0.00    +0.000 OA
ATOM     19  H   UNL     1       7.172   6.229  13.709  0.00  0.00    +0.000 HD
ENDBRANCH  16  18
BRANCH  16  20
ATOM     20  O   UNL     1       6.780   3.964  12.503  0.00  0.00    +0.000 OA
ATOM     21  H   UNL     1       6.032   4.496  12.163  0.00  0.00    +0.000 HD
ENDBRANCH  16  20
ENDBRANCH  15  16
ENDBRANCH  13  15
ENDBRANCH   1  13
BRANCH   1  22
ATOM     22  C   UNL     1       6.670   6.976  17.124  0.00  0.00    +0.000 C 
BRANCH  22  23
ATOM     23  C   UNL     1       7.460   8.190  17.585  0.00  0.00    +0.000 C 
ATOM     24  C   UNL     1       8.138   9.232  17.980  0.00  0.00    +0.000 C 
BRANCH  24  25
ATOM     25  C   UNL     1       8.854  10.382  18.437  0.00  0.00    +0.000 A 
ATOM     26  C   UNL     1       9.819  10.247  19.440  0.00  0.00    +0.000 A 
ATOM     27  C   UNL     1      10.494  11.373  19.919  0.00  0.00    +0.000 A 
ATOM     28  C   UNL     1      10.207  12.636  19.399  0.00  0.00    +0.000 A 
ATOM     29  C   UNL     1       9.255  12.772  18.388  0.00  0.00    +0.000 A 
ATOM     30  C   UNL     1       8.590  11.646  17.910  0.00  0.00    +0.000 A 
ATOM     31  F   UNL     1       7.686  11.801  16.931  0.00  0.00    +0.000 F 
ENDBRANCH  24  25
ENDBRANCH  22  23
ENDBRANCH   1  22
TORSDOF 11
ENDMDL
MODEL 6
REMARK VINA RESULT:      -7.9      6.883      9.695
REMARK  Name = 
REMARK  11 active torsions:
REMARK  status: ('A' for Active; 'I' for Inactive)
REMARK    1  A    between atoms: C_2  and  C_11
REMARK    2  A    between atoms: N_3  and  C_4
REMARK    3  A    between atoms: C_4  and  C_5
REMARK    4  A    between atoms: C_11  and  C_12
REMARK    5  A    between atoms: C_11  and  N_22
REMARK    6  A    between atoms: C_12  and  C_13
REMARK    7  A    between atoms: C_14  and  C_15
REMARK    8  A    between atoms: N_22  and  C_23
REMARK    9  A    between atoms: C_23  and  P_24
REMARK   10  A    between atoms: P_24  and  O_26
REMARK   11  A    between atoms: P_24  and  O_27
REMARK                            x       y       z     vdW  Elec       q    Type
REMARK                         _______ _______ _______ _____ _____    ______ ____
ROOT
ATOM      1  C   UNL     1       1.564   8.008  19.585  0.00  0.00    +0.000 C 
ENDROOT
BRANCH   1   3
ATOM      2  O   UNL     1       2.748   5.931  20.144  0.00  0.00    +0.000 OA
ATOM      3  C   UNL     1       2.506   6.781  19.286  0.00  0.00    +0.000 C 
ATOM      4  N   UNL     1       3.059   6.716  18.019  0.00  0.00    +0.000 N 
ATOM      5  H   UNL     1       3.064   7.566  17.470  0.00  0.00    +0.000 HD
BRANCH   4   6
ATOM      6  C   UNL     1       3.973   5.643  17.653  0.00  0.00    +0.000 C 
BRANCH   6   7
ATOM      7  C   UNL     1       5.424   5.964  17.942  0.00  0.00    +0.000 A 
ATOM      8  C   UNL     1       6.114   6.935  17.203  0.00  0.00    +0.000 A 
ATOM      9  C   UNL     1       7.433   7.286  17.524  0.00  0.00    +0.000 A 
ATOM     10  C   UNL     1       8.076   6.667  18.593  0.00  0.00    +0.000 A 
ATOM     11  C   UNL     1       7.400   5.703  19.343  0.00  0.00    +0.000 A 
ATOM     12  C   UNL     1       6.086   5.355  19.021  0.00  0.00    +0.000 A 
ENDBRANCH   6   7
ENDBRANCH   4   6
ENDBRANCH   1   3
BRANCH   1  13
ATOM     13  N   UNL     1       1.709   8.445  21.039  0.00  0.00    +0.000 NA
ATOM     14  H   UNL     1       2.041   9.419  21.009  0.00  0.00    +0.000 HD
BRANCH  13  15
ATOM     15  C   UNL     1       0.339   8.427  21.618  0.00  0.00    +0.000 C 
BRANCH  15  16
ATOM     16  P   UNL     1      -0.106  10.041  22.357  0.00  0.00    +0.000 P 
ATOM     17  O   UNL     1       0.400   9.573  23.722  0.00  0.00    +0.000 OA
BRANCH  16  18
ATOM     18  O   UNL     1       1.147  10.784  21.599  0.00  0.00    +0.000 OA
ATOM     19  H   UNL     1       1.207  10.499  20.658  0.00  0.00    +0.000 HD
ENDBRANCH  16  18
BRANCH  16  20
ATOM     20  O   UNL     1      -0.527  11.567  23.056  0.00  0.00    +0.000 OA
ATOM     21  H   UNL     1      -1.363  11.376  23.528  0.00  0.00    +0.000 HD
ENDBRANCH  16  20
ENDBRANCH  15  16
ENDBRANCH  13  15
ENDBRANCH   1  13
BRANCH   1  22
ATOM     22  C   UNL     1       1.897   9.171  18.565  0.00  0.00    +0.000 C 
BRANCH  22  23
ATOM     23  C   UNL     1       0.510   9.649  18.168  0.00  0.00    +0.000 C 
ATOM     24  C   UNL     1      -0.680  10.060  17.826  0.00  0.00    +0.000 C 
BRANCH  24  25
ATOM     25  C   UNL     1      -1.987  10.483  17.428  0.00  0.00    +0.000 A 
ATOM     26  C   UNL     1      -2.449  10.191  16.141  0.00  0.00    +0.000 A 
ATOM     27  C   UNL     1      -3.709  10.636  15.733  0.00  0.00    +0.000 A 
ATOM     28  C   UNL     1      -4.511  11.373  16.606  0.00  0.00    +0.000 A 
ATOM     29  C   UNL     1      -4.058  11.653  17.896  0.00  0.00    +0.000 A 
ATOM     30  C   UNL     1      -2.803  11.203  18.300  0.00  0.00    +0.000 A 
ATOM     31  F   UNL     1      -2.394  11.477  19.548  0.00  0.00    +0.000 F 
ENDBRANCH  24  25
ENDBRANCH  22  23
ENDBRANCH   1  22
TORSDOF 11
ENDMDL
MODEL 7
REMARK VINA RESULT:      -7.9      1.265      1.539
REMARK  Name = 
REMARK  11 active torsions:
REMARK  status: ('A' for Active; 'I' for Inactive)
REMARK    1  A    between atoms: C_2  and  C_11
REMARK    2  A    between atoms: N_3  and  C_4
REMARK    3  A    between atoms: C_4  and  C_5
REMARK    4  A    between atoms: C_11  and  C_12
REMARK    5  A    between atoms: C_11  and  N_22
REMARK    6  A    between atoms: C_12  and  C_13
REMARK    7  A    between atoms: C_14  and  C_15
REMARK    8  A    between atoms: N_22  and  C_23
REMARK    9  A    between atoms: C_23  and  P_24
REMARK   10  A    between atoms: P_24  and  O_26
REMARK   11  A    between atoms: P_24  and  O_27
REMARK                            x       y       z     vdW  Elec       q    Type
REMARK                         _______ _______ _______ _____ _____    ______ ____
ROOT
ATOM      1  C   UNL     1       7.475   6.428  17.252  0.00  0.00    +0.000 C 
ENDROOT
BRANCH   1   3
ATOM      2  O   UNL     1       7.695   4.319  18.490  0.00  0.00    +0.000 OA
ATOM      3  C   UNL     1       6.976   5.279  18.208  0.00  0.00    +0.000 C 
ATOM      4  N   UNL     1       5.686   5.394  18.698  0.00  0.00    +0.000 N 
ATOM      5  H   UNL     1       5.061   6.024  18.215  0.00  0.00    +0.000 HD
BRANCH   4   6
ATOM      6  C   UNL     1       5.117   4.367  19.559  0.00  0.00    +0.000 C 
BRANCH   6   7
ATOM      7  C   UNL     1       3.713   3.961  19.163  0.00  0.00    +0.000 A 
ATOM      8  C   UNL     1       2.954   4.740  18.280  0.00  0.00    +0.000 A 
ATOM      9  C   UNL     1       1.685   4.322  17.854  0.00  0.00    +0.000 A 
ATOM     10  C   UNL     1       1.163   3.113  18.308  0.00  0.00    +0.000 A 
ATOM     11  C   UNL     1       1.911   2.322  19.183  0.00  0.00    +0.000 A 
ATOM     12  C   UNL     1       3.174   2.742  19.605  0.00  0.00    +0.000 A 
ENDBRANCH   6   7
ENDBRANCH   4   6
ENDBRANCH   1   3
BRANCH   1  13
ATOM     13  N   UNL     1       7.595   5.912  15.821  0.00  0.00    +0.000 NA
ATOM     14  H   UNL     1       8.293   5.155  15.852  0.00  0.00    +0.000 HD
BRANCH  13  15
ATOM     15  C   UNL     1       6.272   5.327  15.477  0.00  0.00    +0.000 C 
BRANCH  15  16
ATOM     16  P   UNL     1       6.403   4.109  14.117  0.00  0.00    +0.000 P 
ATOM     17  O   UNL     1       4.938   4.339  13.748  0.00  0.00    +0.000 OA
BRANCH  16  18
ATOM     18  O   UNL     1       7.305   5.145  13.217  0.00  0.00    +0.000 OA
ATOM     19  H   UNL     1       6.735   5.817  12.777  0.00  0.00    +0.000 HD
ENDBRANCH  16  18
BRANCH  16  20
ATOM     20  O   UNL     1       6.528   2.958  12.832  0.00  0.00    +0.000 OA
ATOM     21  H   UNL     1       7.272   2.386  13.113  0.00  0.00    +0.000 HD
ENDBRANCH  16  20
ENDBRANCH  15  16
ENDBRANCH  13  15
ENDBRANCH   1  13
BRANCH   1  22
ATOM     22  C   UNL     1       6.489   7.660  17.373  0.00  0.00    +0.000 C 
BRANCH  22  23
ATOM     23  C   UNL     1       7.441   8.793  17.722  0.00  0.00    +0.000 C 
ATOM     24  C   UNL     1       8.258   9.765  18.020  0.00  0.00    +0.000 C 
BRANCH  24  25
ATOM     25  C   UNL     1       9.126  10.848  18.364  0.00  0.00    +0.000 A 
ATOM     26  C   UNL     1      10.186  10.635  19.251  0.00  0.00    +0.000 A 
ATOM     27  C   UNL     1      11.013  11.698  19.621  0.00  0.00    +0.000 A 
ATOM     28  C   UNL     1      10.784  12.976  19.110  0.00  0.00    +0.000 A 
ATOM     29  C   UNL     1       9.736  13.190  18.214  0.00  0.00    +0.000 A 
ATOM     30  C   UNL     1       8.918  12.125  17.843  0.00  0.00    +0.000 A 
ATOM     31  F   UNL     1       7.923  12.353  16.972  0.00  0.00    +0.000 F 
ENDBRANCH  24  25
ENDBRANCH  22  23
ENDBRANCH   1  22
TORSDOF 11
ENDMDL
MODEL 8
REMARK VINA RESULT:      -7.9      4.924      7.674
REMARK  Name = 
REMARK  11 active torsions:
REMARK  status: ('A' for Active; 'I' for Inactive)
REMARK    1  A    between atoms: C_2  and  C_11
REMARK    2  A    between atoms: N_3  and  C_4
REMARK    3  A    between atoms: C_4  and  C_5
REMARK    4  A    between atoms: C_11  and  C_12
REMARK    5  A    between atoms: C_11  and  N_22
REMARK    6  A    between atoms: C_12  and  C_13
REMARK    7  A    between atoms: C_14  and  C_15
REMARK    8  A    between atoms: N_22  and  C_23
REMARK    9  A    between atoms: C_23  and  P_24
REMARK   10  A    between atoms: P_24  and  O_26
REMARK   11  A    between atoms: P_24  and  O_27
REMARK                            x       y       z     vdW  Elec       q    Type
REMARK                         _______ _______ _______ _____ _____    ______ ____
ROOT
ATOM      1  C   UNL     1       1.906   5.549  19.044  0.00  0.00    +0.000 C 
ENDROOT
BRANCH   1   3
ATOM      2  O   UNL     1       3.098   7.325  17.840  0.00  0.00    +0.000 OA
ATOM      3  C   UNL     1       3.022   6.122  18.091  0.00  0.00    +0.000 C 
ATOM      4  N   UNL     1       3.899   5.204  17.539  0.00  0.00    +0.000 N 
ATOM      5  H   UNL     1       3.618   4.233  17.543  0.00  0.00    +0.000 HD
BRANCH   4   6
ATOM      6  C   UNL     1       4.943   5.627  16.616  0.00  0.00    +0.000 C 
BRANCH   6   7
ATOM      7  C   UNL     1       6.172   6.178  17.309  0.00  0.00    +0.000 A 
ATOM      8  C   UNL     1       6.672   7.449  16.998  0.00  0.00    +0.000 A 
ATOM      9  C   UNL     1       7.761   7.989  17.697  0.00  0.00    +0.000 A 
ATOM     10  C   UNL     1       8.362   7.257  18.719  0.00  0.00    +0.000 A 
ATOM     11  C   UNL     1       7.870   5.991  19.044  0.00  0.00    +0.000 A 
ATOM     12  C   UNL     1       6.785   5.457  18.347  0.00  0.00    +0.000 A 
ENDBRANCH   6   7
ENDBRANCH   4   6
ENDBRANCH   1   3
BRANCH   1  13
ATOM     13  N   UNL     1       1.717   4.055  18.802  0.00  0.00    +0.000 NA
ATOM     14  H   UNL     1       2.133   3.864  17.880  0.00  0.00    +0.000 HD
BRANCH  13  15
ATOM     15  C   UNL     1       2.522   3.360  19.841  0.00  0.00    +0.000 C 
BRANCH  15  16
ATOM     16  P   UNL     1       3.474   1.964  19.139  0.00  0.00    +0.000 P 
ATOM     17  O   UNL     1       2.951   2.289  17.740  0.00  0.00    +0.000 OA
BRANCH  16  18
ATOM     18  O   UNL     1       4.889   2.774  19.334  0.00  0.00    +0.000 OA
ATOM     19  H   UNL     1       4.739   3.746  19.354  0.00  0.00    +0.000 HD
ENDBRANCH  16  18
BRANCH  16  20
ATOM     20  O   UNL     1       4.375   0.644  18.476  0.00  0.00    +0.000 OA
ATOM     21  H   UNL     1       4.873   1.057  17.742  0.00  0.00    +0.000 HD
ENDBRANCH  16  20
ENDBRANCH  15  16
ENDBRANCH  13  15
ENDBRANCH   1  13
BRANCH   1  22
ATOM     22  C   UNL     1       2.292   5.878  20.543  0.00  0.00    +0.000 C 
BRANCH  22  23
ATOM     23  C   UNL     1       1.502   7.150  20.802  0.00  0.00    +0.000 C 
ATOM     24  C   UNL     1       0.823   8.242  21.023  0.00  0.00    +0.000 C 
BRANCH  24  25
ATOM     25  C   UNL     1       0.084   9.433  21.302  0.00  0.00    +0.000 A 
ATOM     26  C   UNL     1      -0.317  10.264  20.251  0.00  0.00    +0.000 A 
ATOM     27  C   UNL     1      -1.005  11.451  20.520  0.00  0.00    +0.000 A 
ATOM     28  C   UNL     1      -1.294  11.811  21.837  0.00  0.00    +0.000 A 
ATOM     29  C   UNL     1      -0.907  10.977  22.887  0.00  0.00    +0.000 A 
ATOM     30  C   UNL     1      -0.227   9.793  22.614  0.00  0.00    +0.000 A 
ATOM     31  F   UNL     1       0.125   9.003  23.639  0.00  0.00    +0.000 F 
ENDBRANCH  24  25
ENDBRANCH  22  23
ENDBRANCH   1  22
TORSDOF 11
ENDMDL
MODEL 9
REMARK VINA RESULT:      -7.6      1.265      1.758
REMARK  Name = 
REMARK  11 active torsions:
REMARK  status: ('A' for Active; 'I' for Inactive)
REMARK    1  A    between atoms: C_2  and  C_11
REMARK    2  A    between atoms: N_3  and  C_4
REMARK    3  A    between atoms: C_4  and  C_5
REMARK    4  A    between atoms: C_11  and  C_12
REMARK    5  A    between atoms: C_11  and  N_22
REMARK    6  A    between atoms: C_12  and  C_13
REMARK    7  A    between atoms: C_14  and  C_15
REMARK    8  A    between atoms: N_22  and  C_23
REMARK    9  A    between atoms: C_23  and  P_24
REMARK   10  A    between atoms: P_24  and  O_26
REMARK   11  A    between atoms: P_24  and  O_27
REMARK                            x       y       z     vdW  Elec       q    Type
REMARK                         _______ _______ _______ _____ _____    ______ ____
ROOT
ATOM      1  C   UNL     1       6.708   6.452  18.265  0.00  0.00    +0.000 C 
ENDROOT
BRANCH   1   3
ATOM      2  O   UNL     1       4.700   7.442  17.256  0.00  0.00    +0.000 OA
ATOM      3  C   UNL     1       5.157   6.695  18.122  0.00  0.00    +0.000 C 
ATOM      4  N   UNL     1       4.340   6.043  19.029  0.00  0.00    +0.000 N 
ATOM      5  H   UNL     1       4.771   5.692  19.874  0.00  0.00    +0.000 HD
BRANCH   4   6
ATOM      6  C   UNL     1       2.896   6.230  19.006  0.00  0.00    +0.000 C 
BRANCH   6   7
ATOM      7  C   UNL     1       2.120   4.952  19.249  0.00  0.00    +0.000 A 
ATOM      8  C   UNL     1       1.801   4.085  18.196  0.00  0.00    +0.000 A 
ATOM      9  C   UNL     1       1.152   2.865  18.434  0.00  0.00    +0.000 A 
ATOM     10  C   UNL     1       0.817   2.499  19.736  0.00  0.00    +0.000 A 
ATOM     11  C   UNL     1       1.135   3.350  20.797  0.00  0.00    +0.000 A 
ATOM     12  C   UNL     1       1.781   4.563  20.556  0.00  0.00    +0.000 A 
ENDBRANCH   6   7
ENDBRANCH   4   6
ENDBRANCH   1   3
BRANCH   1  13
ATOM     13  N   UNL     1       7.013   4.958  18.261  0.00  0.00    +0.000 NA
ATOM     14  H   UNL     1       6.100   4.484  18.304  0.00  0.00    +0.000 HD
BRANCH  13  15
ATOM     15  C   UNL     1       7.642   4.665  16.946  0.00  0.00    +0.000 C 
BRANCH  15  16
ATOM     16  P   UNL     1       6.405   4.627  15.598  0.00  0.00    +0.000 P 
ATOM     17  O   UNL     1       7.488   4.963  14.572  0.00  0.00    +0.000 OA
BRANCH  16  18
ATOM     18  O   UNL     1       6.299   2.990  15.681  0.00  0.00    +0.000 OA
ATOM     19  H   UNL     1       6.893   2.634  16.381  0.00  0.00    +0.000 HD
ENDBRANCH  16  18
BRANCH  16  20
ATOM     20  O   UNL     1       5.235   4.591  14.324  0.00  0.00    +0.000 OA
ATOM     21  H   UNL     1       4.953   3.654  14.303  0.00  0.00    +0.000 HD
ENDBRANCH  16  20
ENDBRANCH  15  16
ENDBRANCH  13  15
ENDBRANCH   1  13
BRANCH   1  22
ATOM     22  C   UNL     1       7.458   7.229  17.108  0.00  0.00    +0.000 C 
BRANCH  22  23
ATOM     23  C   UNL     1       8.119   8.367  17.869  0.00  0.00    +0.000 C 
ATOM     24  C   UNL     1       8.686   9.344  18.522  0.00  0.00    +0.000 C 
BRANCH  24  25
ATOM     25  C   UNL     1       9.340  10.396  19.236  0.00  0.00    +0.000 A 
ATOM     26  C   UNL     1       9.044  10.607  20.586  0.00  0.00    +0.000 A 
ATOM     27  C   UNL     1       9.650  11.659  21.279  0.00  0.00    +0.000 A 
ATOM     28  C   UNL     1      10.550  12.502  20.627  0.00  0.00    +0.000 A 
ATOM     29  C   UNL     1      10.858  12.285  19.283  0.00  0.00    +0.000 A 
ATOM     30  C   UNL     1      10.256  11.232  18.598  0.00  0.00    +0.000 A 
ATOM     31  F   UNL     1      10.576  11.037  17.310  0.00  0.00    +0.000 F 
ENDBRANCH  24  25
ENDBRANCH  22  23
ENDBRANCH   1  22
TORSDOF 11
ENDMDL
