MODEL 1
REMARK VINA RESULT:      -8.3      0.000      0.000
REMARK  Name = 
REMARK  8 active torsions:
REMARK  status: ('A' for Active; 'I' for Inactive)
REMARK    1  A    between atoms: N_1  and  S_2
REMARK    2  A    between atoms: S_2  and  C_5
REMARK    3  A    between atoms: C_8  and  N_9
REMARK    4  A    between atoms: N_9  and  N_10
REMARK    5  A    between atoms: C_11  and  C_12
REMARK    6  A    between atoms: C_11  and  C_22
REMARK    7  A    between atoms: C_12  and  S_13
REMARK    8  A    between atoms: S_13  and  C_16
REMARK                            x       y       z     vdW  Elec       q    Type
REMARK                         _______ _______ _______ _____ _____    ______ ____
ROOT
ATOM      1  N   UNL     1       4.324   5.956  17.003  0.00  0.00    +0.000 NA
ATOM      2  C   UNL     1       4.886   4.805  16.733  0.00  0.00    +0.000 C 
ENDROOT
BRANCH   2   3
ATOM      3  C   UNL     1       5.553   4.653  15.391  0.00  0.00    +0.000 A 
ATOM      4  C   UNL     1       4.969   3.926  14.340  0.00  0.00    +0.000 A 
ATOM      5  C   UNL     1       5.630   3.792  13.117  0.00  0.00    +0.000 A 
ATOM      6  C   UNL     1       6.883   4.364  12.947  0.00  0.00    +0.000 A 
ATOM      7  F   UNL     1       7.519   4.218  11.778  0.00  0.00    +0.000 F 
ATOM      8  C   UNL     1       7.487   5.073  13.976  0.00  0.00    +0.000 A 
ATOM      9  C   UNL     1       6.823   5.220  15.198  0.00  0.00    +0.000 A 
ENDBRANCH   2   3
BRANCH   1  10
ATOM     10  N   UNL     1       3.748   6.106  18.233  0.00  0.00    +0.000 N 
ATOM     11  H   UNL     1       3.269   5.293  18.625  0.00  0.00    +0.000 HD
BRANCH  10  15
ATOM     12  C   UNL     1       1.202   9.358  19.120  0.00  0.00    +0.000 A 
ATOM     13  C   UNL     1       1.416   8.345  20.049  0.00  0.00    +0.000 A 
ATOM     14  C   UNL     1       2.281   7.302  19.729  0.00  0.00    +0.000 A 
ATOM     15  C   UNL     1       2.905   7.225  18.469  0.00  0.00    +0.000 A 
ATOM     16  C   UNL     1       2.725   8.280  17.566  0.00  0.00    +0.000 A 
ATOM     17  C   UNL     1       1.861   9.338  17.883  0.00  0.00    +0.000 A 
BRANCH  12  18
ATOM     18  S   UNL     1       0.024  10.626  19.490  0.00  0.00    +0.000 S 
ATOM     19  O   UNL     1       0.293  11.167  20.799  0.00  0.00    +0.000 OA
ATOM     20  O   UNL     1      -1.292  10.182  19.089  0.00  0.00    +0.000 OA
BRANCH  18  21
ATOM     21  N   UNL     1       0.447  11.826  18.392  0.00  0.00    +0.000 NA
ATOM     22  H   UNL     1      -0.400  12.239  18.000  0.00  0.00    +0.000 HD
ATOM     23  H   UNL     1       1.084  11.448  17.690  0.00  0.00    +0.000 HD
ENDBRANCH  18  21
ENDBRANCH  12  18
ENDBRANCH  10  15
ENDBRANCH   1  10
BRANCH   2  24
ATOM     24  C   UNL     1       4.938   3.633  17.694  0.00  0.00    +0.000 C 
BRANCH  24  25
ATOM     25  S   UNL     1       3.452   2.668  17.699  0.00  0.00    +0.000 S 
ATOM     26  O   UNL     1       2.564   3.258  16.711  0.00  0.00    +0.000 OA
ATOM     27  O   UNL     1       3.816   1.268  17.586  0.00  0.00    +0.000 OA
BRANCH  25  28
ATOM     28  C   UNL     1       2.673   2.934  19.272  0.00  0.00    +0.000 A 
ATOM     29  C   UNL     1       1.426   3.569  19.313  0.00  0.00    +0.000 A 
ATOM     30  C   UNL     1       0.798   3.778  20.540  0.00  0.00    +0.000 A 
ATOM     31  C   UNL     1       1.396   3.326  21.716  0.00  0.00    +0.000 A 
ATOM     32  C   UNL     1       2.618   2.651  21.667  0.00  0.00    +0.000 A 
ATOM     33  C   UNL     1       3.262   2.451  20.443  0.00  0.00    +0.000 A 
ENDBRANCH  25  28
ENDBRANCH  24  25
ENDBRANCH   2  24
TORSDOF 8
ENDMDL
MODEL 2
REMARK VINA RESULT:      -8.3      0.549      1.054
REMARK  Name = 
REMARK  8 active torsions:
REMARK  status: ('A' for Active; 'I' for Inactive)
REMARK    1  A    between atoms: N_1  and  S_2
REMARK    2  A    between atoms: S_2  and  C_5
REMARK    3  A    between atoms: C_8  and  N_9
REMARK    4  A    between atoms: N_9  and  N_10
REMARK    5  A    between atoms: C_11  and  C_12
REMARK    6  A    between atoms: C_11  and  C_22
REMARK    7  A    between atoms: C_12  and  S_13
REMARK    8  A    between atoms: S_13  and  C_16
REMARK                            x       y       z     vdW  Elec       q    Type
REMARK                         _______ _______ _______ _____ _____    ______ ____
ROOT
ATOM      1  N   UNL     1       4.436   5.928  17.158  0.00  0.00    +0.000 NA
ATOM      2  C   UNL     1       4.951   4.770  16.828  0.00  0.00    +0.000 C 
ENDROOT
BRANCH   2   3
ATOM      3  C   UNL     1       5.606   4.660  15.476  0.00  0.00    +0.000 A 
ATOM      4  C   UNL     1       5.026   3.941  14.417  0.00  0.00    +0.000 A 
ATOM      5  C   UNL     1       5.676   3.846  13.184  0.00  0.00    +0.000 A 
ATOM      6  C   UNL     1       6.913   4.450  13.011  0.00  0.00    +0.000 A 
ATOM      7  F   UNL     1       7.539   4.341  11.833  0.00  0.00    +0.000 F 
ATOM      8  C   UNL     1       7.514   5.151  14.048  0.00  0.00    +0.000 A 
ATOM      9  C   UNL     1       6.860   5.259  15.280  0.00  0.00    +0.000 A 
ENDBRANCH   2   3
BRANCH   1  10
ATOM     10  N   UNL     1       3.872   6.038  18.398  0.00  0.00    +0.000 N 
ATOM     11  H   UNL     1       3.439   5.198  18.789  0.00  0.00    +0.000 HD
BRANCH  10  15
ATOM     12  C   UNL     1       1.253   9.301  18.982  0.00  0.00    +0.000 A 
ATOM     13  C   UNL     1       1.940   9.143  17.783  0.00  0.00    +0.000 A 
ATOM     14  C   UNL     1       2.775   8.041  17.619  0.00  0.00    +0.000 A 
ATOM     15  C   UNL     1       2.978   7.112  18.657  0.00  0.00    +0.000 A 
ATOM     16  C   UNL     1       2.238   7.253  19.837  0.00  0.00    +0.000 A 
ATOM     17  C   UNL     1       1.389   8.355  20.008  0.00  0.00    +0.000 A 
BRANCH  12  18
ATOM     18  S   UNL     1       0.274  10.755  19.224  0.00  0.00    +0.000 S 
ATOM     19  O   UNL     1       1.099  11.925  19.061  0.00  0.00    +0.000 OA
ATOM     20  O   UNL     1      -0.584  10.563  20.372  0.00  0.00    +0.000 OA
BRANCH  18  21
ATOM     21  N   UNL     1      -0.747  10.713  17.888  0.00  0.00    +0.000 NA
ATOM     22  H   UNL     1      -0.674   9.801  17.437  0.00  0.00    +0.000 HD
ATOM     23  H   UNL     1      -0.543  11.497  17.269  0.00  0.00    +0.000 HD
ENDBRANCH  18  21
ENDBRANCH  12  18
ENDBRANCH  10  15
ENDBRANCH   1  10
BRANCH   2  24
ATOM     24  C   UNL     1       4.961   3.551  17.728  0.00  0.00    +0.000 C 
BRANCH  24  25
ATOM     25  S   UNL     1       3.433   2.654  17.706  0.00  0.00    +0.000 S 
ATOM     26  O   UNL     1       2.576   3.307  16.731  0.00  0.00    +0.000 OA
ATOM     27  O   UNL     1       3.735   1.242  17.558  0.00  0.00    +0.000 OA
BRANCH  25  28
ATOM     28  C   UNL     1       2.661   2.914  19.284  0.00  0.00    +0.000 A 
ATOM     29  C   UNL     1       1.400   3.517  19.329  0.00  0.00    +0.000 A 
ATOM     30  C   UNL     1       0.777   3.722  20.561  0.00  0.00    +0.000 A 
ATOM     31  C   UNL     1       1.397   3.297  21.735  0.00  0.00    +0.000 A 
ATOM     32  C   UNL     1       2.635   2.653  21.681  0.00  0.00    +0.000 A 
ATOM     33  C   UNL     1       3.273   2.458  20.454  0.00  0.00    +0.000 A 
ENDBRANCH  25  28
ENDBRANCH  24  25
ENDBRANCH   2  24
TORSDOF 8
ENDMDL
MODEL 3
REMARK VINA RESULT:      -8.2      0.305      1.283
REMARK  Name = 
REMARK  8 active torsions:
REMARK  status: ('A' for Active; 'I' for Inactive)
REMARK    1  A    between atoms: N_1  and  S_2
REMARK    2  A    between atoms: S_2  and  C_5
REMARK    3  A    between atoms: C_8  and  N_9
REMARK    4  A    between atoms: N_9  and  N_10
REMARK    5  A    between atoms: C_11  and  C_12
REMARK    6  A    between atoms: C_11  and  C_22
REMARK    7  A    between atoms: C_12  and  S_13
REMARK    8  A    between atoms: S_13  and  C_16
REMARK                            x       y       z     vdW  Elec       q    Type
REMARK                         _______ _______ _______ _____ _____    ______ ____
ROOT
ATOM      1  N   UNL     1       4.359   5.823  17.144  0.00  0.00    +0.000 NA
ATOM      2  C   UNL     1       4.951   4.694  16.846  0.00  0.00    +0.000 C 
ENDROOT
BRANCH   2   3
ATOM      3  C   UNL     1       5.673   4.613  15.526  0.00  0.00    +0.000 A 
ATOM      4  C   UNL     1       6.897   5.264  15.298  0.00  0.00    +0.000 A 
ATOM      5  C   UNL     1       7.524   5.181  14.053  0.00  0.00    +0.000 A 
ATOM      6  C   UNL     1       6.922   4.466  13.027  0.00  0.00    +0.000 A 
ATOM      7  F   UNL     1       7.518   4.405  11.830  0.00  0.00    +0.000 F 
ATOM      8  C   UNL     1       5.704   3.829  13.223  0.00  0.00    +0.000 A 
ATOM      9  C   UNL     1       5.079   3.900  14.473  0.00  0.00    +0.000 A 
ENDBRANCH   2   3
BRANCH   1  10
ATOM     10  N   UNL     1       3.733   5.907  18.356  0.00  0.00    +0.000 N 
ATOM     11  H   UNL     1       3.209   5.087  18.668  0.00  0.00    +0.000 HD
BRANCH  10  15
ATOM     12  C   UNL     1       1.354   9.338  19.000  0.00  0.00    +0.000 A 
ATOM     13  C   UNL     1       2.007   9.140  17.788  0.00  0.00    +0.000 A 
ATOM     14  C   UNL     1       2.762   7.984  17.605  0.00  0.00    +0.000 A 
ATOM     15  C   UNL     1       2.920   7.038  18.636  0.00  0.00    +0.000 A 
ATOM     16  C   UNL     1       2.213   7.223  19.830  0.00  0.00    +0.000 A 
ATOM     17  C   UNL     1       1.444   8.380  20.020  0.00  0.00    +0.000 A 
BRANCH  12  18
ATOM     18  S   UNL     1       0.481  10.854  19.266  0.00  0.00    +0.000 S 
ATOM     19  O   UNL     1       0.680  11.294  20.623  0.00  0.00    +0.000 OA
ATOM     20  O   UNL     1      -0.831  10.757  18.665  0.00  0.00    +0.000 OA
BRANCH  18  21
ATOM     21  N   UNL     1       1.340  11.925  18.295  0.00  0.00    +0.000 NA
ATOM     22  H   UNL     1       2.332  11.686  18.326  0.00  0.00    +0.000 HD
ATOM     23  H   UNL     1       1.139  12.886  18.572  0.00  0.00    +0.000 HD
ENDBRANCH  18  21
ENDBRANCH  12  18
ENDBRANCH  10  15
ENDBRANCH   1  10
BRANCH   2  24
ATOM     24  C   UNL     1       4.986   3.480  17.754  0.00  0.00    +0.000 C 
BRANCH  24  25
ATOM     25  S   UNL     1       3.478   2.548  17.733  0.00  0.00    +0.000 S 
ATOM     26  O   UNL     1       2.627   3.150  16.722  0.00  0.00    +0.000 OA
ATOM     27  O   UNL     1       3.814   1.140  17.637  0.00  0.00    +0.000 OA
BRANCH  25  28
ATOM     28  C   UNL     1       2.671   2.843  19.287  0.00  0.00    +0.000 A 
ATOM     29  C   UNL     1       1.381   3.384  19.288  0.00  0.00    +0.000 A 
ATOM     30  C   UNL     1       0.730   3.614  20.500  0.00  0.00    +0.000 A 
ATOM     31  C   UNL     1       1.352   3.275  21.701  0.00  0.00    +0.000 A 
ATOM     32  C   UNL     1       2.620   2.690  21.693  0.00  0.00    +0.000 A 
ATOM     33  C   UNL     1       3.286   2.470  20.484  0.00  0.00    +0.000 A 
ENDBRANCH  25  28
ENDBRANCH  24  25
ENDBRANCH   2  24
TORSDOF 8
ENDMDL
MODEL 4
REMARK VINA RESULT:      -8.2      0.574      1.083
REMARK  Name = 
REMARK  8 active torsions:
REMARK  status: ('A' for Active; 'I' for Inactive)
REMARK    1  A    between atoms: N_1  and  S_2
REMARK    2  A    between atoms: S_2  and  C_5
REMARK    3  A    between atoms: C_8  and  N_9
REMARK    4  A    between atoms: N_9  and  N_10
REMARK    5  A    between atoms: C_11  and  C_12
REMARK    6  A    between atoms: C_11  and  C_22
REMARK    7  A    between atoms: C_12  and  S_13
REMARK    8  A    between atoms: S_13  and  C_16
REMARK                            x       y       z     vdW  Elec       q    Type
REMARK                         _______ _______ _______ _____ _____    ______ ____
ROOT
ATOM      1  N   UNL     1       4.408   5.962  17.062  0.00  0.00    +0.000 NA
ATOM      2  C   UNL     1       4.962   4.807  16.789  0.00  0.00    +0.000 C 
ENDROOT
BRANCH   2   3
ATOM      3  C   UNL     1       5.672   4.670  15.468  0.00  0.00    +0.000 A 
ATOM      4  C   UNL     1       6.909   5.286  15.213  0.00  0.00    +0.000 A 
ATOM      5  C   UNL     1       7.525   5.151  13.967  0.00  0.00    +0.000 A 
ATOM      6  C   UNL     1       6.900   4.419  12.966  0.00  0.00    +0.000 A 
ATOM      7  F   UNL     1       7.487   4.307  11.769  0.00  0.00    +0.000 F 
ATOM      8  C   UNL     1       5.669   3.817  13.190  0.00  0.00    +0.000 A 
ATOM      9  C   UNL     1       5.055   3.939  14.441  0.00  0.00    +0.000 A 
ENDBRANCH   2   3
BRANCH   1  10
ATOM     10  N   UNL     1       3.793   6.098  18.274  0.00  0.00    +0.000 N 
ATOM     11  H   UNL     1       3.299   5.281  18.640  0.00  0.00    +0.000 HD
BRANCH  10  15
ATOM     12  C   UNL     1       1.231   9.347  19.123  0.00  0.00    +0.000 A 
ATOM     13  C   UNL     1       1.406   8.318  20.042  0.00  0.00    +0.000 A 
ATOM     14  C   UNL     1       2.278   7.276  19.736  0.00  0.00    +0.000 A 
ATOM     15  C   UNL     1       2.947   7.217  18.498  0.00  0.00    +0.000 A 
ATOM     16  C   UNL     1       2.804   8.287  17.607  0.00  0.00    +0.000 A 
ATOM     17  C   UNL     1       1.933   9.344  17.910  0.00  0.00    +0.000 A 
BRANCH  12  18
ATOM     18  S   UNL     1       0.045  10.614  19.471  0.00  0.00    +0.000 S 
ATOM     19  O   UNL     1       0.595  11.899  19.120  0.00  0.00    +0.000 OA
ATOM     20  O   UNL     1      -0.563  10.354  20.757  0.00  0.00    +0.000 OA
BRANCH  18  21
ATOM     21  N   UNL     1      -1.152  10.292  18.335  0.00  0.00    +0.000 NA
ATOM     22  H   UNL     1      -1.692  11.141  18.165  0.00  0.00    +0.000 HD
ATOM     23  H   UNL     1      -1.717   9.498  18.639  0.00  0.00    +0.000 HD
ENDBRANCH  18  21
ENDBRANCH  12  18
ENDBRANCH  10  15
ENDBRANCH   1  10
BRANCH   2  24
ATOM     24  C   UNL     1       4.963   3.617  17.728  0.00  0.00    +0.000 C 
BRANCH  24  25
ATOM     25  S   UNL     1       3.445   2.701  17.695  0.00  0.00    +0.000 S 
ATOM     26  O   UNL     1       2.590   3.340  16.710  0.00  0.00    +0.000 OA
ATOM     27  O   UNL     1       3.766   1.292  17.557  0.00  0.00    +0.000 OA
BRANCH  25  28
ATOM     28  C   UNL     1       2.656   2.959  19.265  0.00  0.00    +0.000 A 
ATOM     29  C   UNL     1       1.403   3.580  19.299  0.00  0.00    +0.000 A 
ATOM     30  C   UNL     1       0.766   3.783  20.524  0.00  0.00    +0.000 A 
ATOM     31  C   UNL     1       1.365   3.340  21.703  0.00  0.00    +0.000 A 
ATOM     32  C   UNL     1       2.594   2.679  21.659  0.00  0.00    +0.000 A 
ATOM     33  C   UNL     1       3.246   2.485  20.439  0.00  0.00    +0.000 A 
ENDBRANCH  25  28
ENDBRANCH  24  25
ENDBRANCH   2  24
TORSDOF 8
ENDMDL
MODEL 5
REMARK VINA RESULT:      -8.2      0.667      1.556
REMARK  Name = 
REMARK  8 active torsions:
REMARK  status: ('A' for Active; 'I' for Inactive)
REMARK    1  A    between atoms: N_1  and  S_2
REMARK    2  A    between atoms: S_2  and  C_5
REMARK    3  A    between atoms: C_8  and  N_9
REMARK    4  A    between atoms: N_9  and  N_10
REMARK    5  A    between atoms: C_11  and  C_12
REMARK    6  A    between atoms: C_11  and  C_22
REMARK    7  A    between atoms: C_12  and  S_13
REMARK    8  A    between atoms: S_13  and  C_16
REMARK                            x       y       z     vdW  Elec       q    Type
REMARK                         _______ _______ _______ _____ _____    ______ ____
ROOT
ATOM      1  N   UNL     1       4.211   5.885  17.051  0.00  0.00    +0.000 NA
ATOM      2  C   UNL     1       4.850   4.766  16.819  0.00  0.00    +0.000 C 
ENDROOT
BRANCH   2   3
ATOM      3  C   UNL     1       5.599   4.649  15.517  0.00  0.00    +0.000 A 
ATOM      4  C   UNL     1       6.862   5.235  15.323  0.00  0.00    +0.000 A 
ATOM      5  C   UNL     1       7.515   5.121  14.093  0.00  0.00    +0.000 A 
ATOM      6  C   UNL     1       6.902   4.440  13.050  0.00  0.00    +0.000 A 
ATOM      7  F   UNL     1       7.525   4.349  11.869  0.00  0.00    +0.000 F 
ATOM      8  C   UNL     1       5.648   3.868  13.214  0.00  0.00    +0.000 A 
ATOM      9  C   UNL     1       4.996   3.970  14.447  0.00  0.00    +0.000 A 
ENDBRANCH   2   3
BRANCH   1  10
ATOM     10  N   UNL     1       3.560   6.004  18.246  0.00  0.00    +0.000 N 
ATOM     11  H   UNL     1       2.994   5.209  18.550  0.00  0.00    +0.000 HD
BRANCH  10  15
ATOM     12  C   UNL     1       1.229   9.401  19.183  0.00  0.00    +0.000 A 
ATOM     13  C   UNL     1       1.443   8.400  20.125  0.00  0.00    +0.000 A 
ATOM     14  C   UNL     1       2.237   7.308  19.786  0.00  0.00    +0.000 A 
ATOM     15  C   UNL     1       2.786   7.170  18.498  0.00  0.00    +0.000 A 
ATOM     16  C   UNL     1       2.609   8.211  17.578  0.00  0.00    +0.000 A 
ATOM     17  C   UNL     1       1.817   9.318  17.914  0.00  0.00    +0.000 A 
BRANCH  12  18
ATOM     18  S   UNL     1       0.137  10.734  19.583  0.00  0.00    +0.000 S 
ATOM     19  O   UNL     1      -0.970  10.744  18.660  0.00  0.00    +0.000 OA
ATOM     20  O   UNL     1       0.917  11.917  19.872  0.00  0.00    +0.000 OA
BRANCH  18  21
ATOM     21  N   UNL     1      -0.492  10.239  21.061  0.00  0.00    +0.000 NA
ATOM     22  H   UNL     1       0.025  10.692  21.816  0.00  0.00    +0.000 HD
ATOM     23  H   UNL     1      -0.494   9.220  21.116  0.00  0.00    +0.000 HD
ENDBRANCH  18  21
ENDBRANCH  12  18
ENDBRANCH  10  15
ENDBRANCH   1  10
BRANCH   2  24
ATOM     24  C   UNL     1       4.910   3.599  17.785  0.00  0.00    +0.000 C 
BRANCH  24  25
ATOM     25  S   UNL     1       3.458   2.584  17.746  0.00  0.00    +0.000 S 
ATOM     26  O   UNL     1       2.583   3.142  16.730  0.00  0.00    +0.000 OA
ATOM     27  O   UNL     1       3.873   1.197  17.647  0.00  0.00    +0.000 OA
BRANCH  25  28
ATOM     28  C   UNL     1       2.621   2.825  19.294  0.00  0.00    +0.000 A 
ATOM     29  C   UNL     1       3.271   2.463  20.478  0.00  0.00    +0.000 A 
ATOM     30  C   UNL     1       2.631   2.652  21.703  0.00  0.00    +0.000 A 
ATOM     31  C   UNL     1       1.362   3.231  21.744  0.00  0.00    +0.000 A 
ATOM     32  C   UNL     1       0.737   3.634  20.562  0.00  0.00    +0.000 A 
ATOM     33  C   UNL     1       1.365   3.434  19.330  0.00  0.00    +0.000 A 
ENDBRANCH  25  28
ENDBRANCH  24  25
ENDBRANCH   2  24
TORSDOF 8
ENDMDL
MODEL 6
REMARK VINA RESULT:      -8.1      4.553      9.038
REMARK  Name = 
REMARK  8 active torsions:
REMARK  status: ('A' for Active; 'I' for Inactive)
REMARK    1  A    between atoms: N_1  and  S_2
REMARK    2  A    between atoms: S_2  and  C_5
REMARK    3  A    between atoms: C_8  and  N_9
REMARK    4  A    between atoms: N_9  and  N_10
REMARK    5  A    between atoms: C_11  and  C_12
REMARK    6  A    between atoms: C_11  and  C_22
REMARK    7  A    between atoms: C_12  and  S_13
REMARK    8  A    between atoms: S_13  and  C_16
REMARK                            x       y       z     vdW  Elec       q    Type
REMARK                         _______ _______ _______ _____ _____    ______ ____
ROOT
ATOM      1  N   UNL     1       0.942   9.030  18.046  0.00  0.00    +0.000 NA
ATOM      2  C   UNL     1       0.379  10.034  18.672  0.00  0.00    +0.000 C 
ENDROOT
BRANCH   2   3
ATOM      3  C   UNL     1      -0.984  10.471  18.203  0.00  0.00    +0.000 A 
ATOM      4  C   UNL     1      -1.687  11.523  18.814  0.00  0.00    +0.000 A 
ATOM      5  C   UNL     1      -2.958  11.884  18.362  0.00  0.00    +0.000 A 
ATOM      6  C   UNL     1      -3.539  11.184  17.314  0.00  0.00    +0.000 A 
ATOM      7  F   UNL     1      -4.765  11.522  16.896  0.00  0.00    +0.000 F 
ATOM      8  C   UNL     1      -2.871  10.129  16.706  0.00  0.00    +0.000 A 
ATOM      9  C   UNL     1      -1.593   9.773  17.148  0.00  0.00    +0.000 A 
ENDBRANCH   2   3
BRANCH   1  10
ATOM     10  N   UNL     1       2.163   8.612  18.493  0.00  0.00    +0.000 N 
ATOM     11  H   UNL     1       2.965   8.780  17.882  0.00  0.00    +0.000 HD
BRANCH  10  15
ATOM     12  C   UNL     1       2.658   4.621  19.786  0.00  0.00    +0.000 A 
ATOM     13  C   UNL     1       3.057   5.014  18.513  0.00  0.00    +0.000 A 
ATOM     14  C   UNL     1       2.900   6.343  18.132  0.00  0.00    +0.000 A 
ATOM     15  C   UNL     1       2.301   7.287  18.988  0.00  0.00    +0.000 A 
ATOM     16  C   UNL     1       1.955   6.892  20.285  0.00  0.00    +0.000 A 
ATOM     17  C   UNL     1       2.117   5.555  20.680  0.00  0.00    +0.000 A 
BRANCH  12  18
ATOM     18  S   UNL     1       2.764   2.911  20.229  0.00  0.00    +0.000 S 
ATOM     19  O   UNL     1       4.144   2.496  20.223  0.00  0.00    +0.000 OA
ATOM     20  O   UNL     1       1.729   2.177  19.536  0.00  0.00    +0.000 OA
BRANCH  18  21
ATOM     21  N   UNL     1       2.291   2.939  21.843  0.00  0.00    +0.000 NA
ATOM     22  H   UNL     1       2.491   2.034  22.268  0.00  0.00    +0.000 HD
ATOM     23  H   UNL     1       1.314   3.222  21.915  0.00  0.00    +0.000 HD
ENDBRANCH  18  21
ENDBRANCH  12  18
ENDBRANCH  10  15
ENDBRANCH   1  10
BRANCH   2  24
ATOM     24  C   UNL     1       0.995  10.758  19.853  0.00  0.00    +0.000 C 
BRANCH  24  25
ATOM     25  S   UNL     1       0.423  10.153  21.418  0.00  0.00    +0.000 S 
ATOM     26  O   UNL     1      -0.527   9.091  21.136  0.00  0.00    +0.000 OA
ATOM     27  O   UNL     1       1.580   9.873  22.248  0.00  0.00    +0.000 OA
BRANCH  25  28
ATOM     28  C   UNL     1      -0.516  11.462  22.163  0.00  0.00    +0.000 A 
ATOM     29  C   UNL     1      -0.184  12.789  21.866  0.00  0.00    +0.000 A 
ATOM     30  C   UNL     1      -0.917  13.829  22.437  0.00  0.00    +0.000 A 
ATOM     31  C   UNL     1      -1.996  13.543  23.274  0.00  0.00    +0.000 A 
ATOM     32  C   UNL     1      -2.354  12.218  23.530  0.00  0.00    +0.000 A 
ATOM     33  C   UNL     1      -1.615  11.170  22.974  0.00  0.00    +0.000 A 
ENDBRANCH  25  28
ENDBRANCH  24  25
ENDBRANCH   2  24
TORSDOF 8
ENDMDL
MODEL 7
REMARK VINA RESULT:      -8.0      4.613      9.196
REMARK  Name = 
REMARK  8 active torsions:
REMARK  status: ('A' for Active; 'I' for Inactive)
REMARK    1  A    between atoms: N_1  and  S_2
REMARK    2  A    between atoms: S_2  and  C_5
REMARK    3  A    between atoms: C_8  and  N_9
REMARK    4  A    between atoms: N_9  and  N_10
REMARK    5  A    between atoms: C_11  and  C_12
REMARK    6  A    between atoms: C_11  and  C_22
REMARK    7  A    between atoms: C_12  and  S_13
REMARK    8  A    between atoms: S_13  and  C_16
REMARK                            x       y       z     vdW  Elec       q    Type
REMARK                         _______ _______ _______ _____ _____    ______ ____
ROOT
ATOM      1  N   UNL     1       0.791   9.472  17.882  0.00  0.00    +0.000 NA
ATOM      2  C   UNL     1       0.127  10.388  18.542  0.00  0.00    +0.000 C 
ENDROOT
BRANCH   2   3
ATOM      3  C   UNL     1      -1.315  10.609  18.165  0.00  0.00    +0.000 A 
ATOM      4  C   UNL     1      -2.131  11.539  18.832  0.00  0.00    +0.000 A 
ATOM      5  C   UNL     1      -3.469  11.700  18.466  0.00  0.00    +0.000 A 
ATOM      6  C   UNL     1      -4.002  10.920  17.449  0.00  0.00    +0.000 A 
ATOM      7  F   UNL     1      -5.289  11.065  17.114  0.00  0.00    +0.000 F 
ATOM      8  C   UNL     1      -3.219   9.982  16.788  0.00  0.00    +0.000 A 
ATOM      9  C   UNL     1      -1.875   9.828  17.143  0.00  0.00    +0.000 A 
ENDBRANCH   2   3
BRANCH   1  10
ATOM     10  N   UNL     1       2.088   9.247  18.246  0.00  0.00    +0.000 N 
ATOM     11  H   UNL     1       2.815   9.649  17.650  0.00  0.00    +0.000 HD
BRANCH  10  15
ATOM     12  C   UNL     1       3.426   5.309  18.983  0.00  0.00    +0.000 A 
ATOM     13  C   UNL     1       3.839   6.003  17.851  0.00  0.00    +0.000 A 
ATOM     14  C   UNL     1       3.396   7.308  17.655  0.00  0.00    +0.000 A 
ATOM     15  C   UNL     1       2.501   7.922  18.551  0.00  0.00    +0.000 A 
ATOM     16  C   UNL     1       2.138   7.233  19.714  0.00  0.00    +0.000 A 
ATOM     17  C   UNL     1       2.586   5.921  19.923  0.00  0.00    +0.000 A 
BRANCH  12  18
ATOM     18  S   UNL     1       3.909   3.617  19.175  0.00  0.00    +0.000 S 
ATOM     19  O   UNL     1       2.937   2.928  19.986  0.00  0.00    +0.000 OA
ATOM     20  O   UNL     1       5.328   3.557  19.444  0.00  0.00    +0.000 OA
BRANCH  18  21
ATOM     21  N   UNL     1       3.722   3.022  17.613  0.00  0.00    +0.000 NA
ATOM     22  H   UNL     1       3.090   3.633  17.094  0.00  0.00    +0.000 HD
ATOM     23  H   UNL     1       3.420   2.049  17.645  0.00  0.00    +0.000 HD
ENDBRANCH  18  21
ENDBRANCH  12  18
ENDBRANCH  10  15
ENDBRANCH   1  10
BRANCH   2  24
ATOM     24  C   UNL     1       0.704  11.212  19.676  0.00  0.00    +0.000 C 
BRANCH  24  25
ATOM     25  S   UNL     1       0.375  10.524  21.276  0.00  0.00    +0.000 S 
ATOM     26  O   UNL     1      -0.475   9.365  21.068  0.00  0.00    +0.000 OA
ATOM     27  O   UNL     1       1.637  10.367  21.974  0.00  0.00    +0.000 OA
BRANCH  25  28
ATOM     28  C   UNL     1      -0.621  11.707  22.148  0.00  0.00    +0.000 A 
ATOM     29  C   UNL     1      -0.298  13.065  22.054  0.00  0.00    +0.000 A 
ATOM     30  C   UNL     1      -1.075  14.008  22.728  0.00  0.00    +0.000 A 
ATOM     31  C   UNL     1      -2.187  13.598  23.464  0.00  0.00    +0.000 A 
ATOM     32  C   UNL     1      -2.533  12.246  23.516  0.00  0.00    +0.000 A 
ATOM     33  C   UNL     1      -1.752  11.294  22.857  0.00  0.00    +0.000 A 
ENDBRANCH  25  28
ENDBRANCH  24  25
ENDBRANCH   2  24
TORSDOF 8
ENDMDL
MODEL 8
REMARK VINA RESULT:      -8.0      4.576      9.159
REMARK  Name = 
REMARK  8 active torsions:
REMARK  status: ('A' for Active; 'I' for Inactive)
REMARK    1  A    between atoms: N_1  and  S_2
REMARK    2  A    between atoms: S_2  and  C_5
REMARK    3  A    between atoms: C_8  and  N_9
REMARK    4  A    between atoms: N_9  and  N_10
REMARK    5  A    between atoms: C_11  and  C_12
REMARK    6  A    between atoms: C_11  and  C_22
REMARK    7  A    between atoms: C_12  and  S_13
REMARK    8  A    between atoms: S_13  and  C_16
REMARK                            x       y       z     vdW  Elec       q    Type
REMARK                         _______ _______ _______ _____ _____    ______ ____
ROOT
ATOM      1  N   UNL     1       0.835   9.333  17.917  0.00  0.00    +0.000 NA
ATOM      2  C   UNL     1       0.152  10.282  18.508  0.00  0.00    +0.000 C 
ENDROOT
BRANCH   2   3
ATOM      3  C   UNL     1      -1.279  10.480  18.080  0.00  0.00    +0.000 A 
ATOM      4  C   UNL     1      -1.840   9.789  16.993  0.00  0.00    +0.000 A 
ATOM      5  C   UNL     1      -3.166  10.016  16.615  0.00  0.00    +0.000 A 
ATOM      6  C   UNL     1      -3.927  10.947  17.308  0.00  0.00    +0.000 A 
ATOM      7  F   UNL     1      -5.191  11.173  16.932  0.00  0.00    +0.000 F 
ATOM      8  C   UNL     1      -3.389  11.654  18.375  0.00  0.00    +0.000 A 
ATOM      9  C   UNL     1      -2.066  11.419  18.764  0.00  0.00    +0.000 A 
ENDBRANCH   2   3
BRANCH   1  10
ATOM     10  N   UNL     1       2.122   9.131  18.328  0.00  0.00    +0.000 N 
ATOM     11  H   UNL     1       2.859   9.607  17.803  0.00  0.00    +0.000 HD
BRANCH  10  15
ATOM     12  C   UNL     1       3.581   5.198  18.819  0.00  0.00    +0.000 A 
ATOM     13  C   UNL     1       3.970   5.972  17.732  0.00  0.00    +0.000 A 
ATOM     14  C   UNL     1       3.487   7.273  17.617  0.00  0.00    +0.000 A 
ATOM     15  C   UNL     1       2.575   7.803  18.550  0.00  0.00    +0.000 A 
ATOM     16  C   UNL     1       2.237   7.033  19.669  0.00  0.00    +0.000 A 
ATOM     17  C   UNL     1       2.725   5.724  19.796  0.00  0.00    +0.000 A 
BRANCH  12  18
ATOM     18  S   UNL     1       4.115   3.513  18.906  0.00  0.00    +0.000 S 
ATOM     19  O   UNL     1       2.999   2.670  19.255  0.00  0.00    +0.000 OA
ATOM     20  O   UNL     1       5.382   3.452  19.602  0.00  0.00    +0.000 OA
BRANCH  18  21
ATOM     21  N   UNL     1       4.470   3.177  17.298  0.00  0.00    +0.000 NA
ATOM     22  H   UNL     1       5.413   3.505  17.085  0.00  0.00    +0.000 HD
ATOM     23  H   UNL     1       3.751   3.570  16.692  0.00  0.00    +0.000 HD
ENDBRANCH  18  21
ENDBRANCH  12  18
ENDBRANCH  10  15
ENDBRANCH   1  10
BRANCH   2  24
ATOM     24  C   UNL     1       0.696  11.166  19.613  0.00  0.00    +0.000 C 
BRANCH  24  25
ATOM     25  S   UNL     1       0.399  10.517  21.235  0.00  0.00    +0.000 S 
ATOM     26  O   UNL     1      -0.422   9.331  21.070  0.00  0.00    +0.000 OA
ATOM     27  O   UNL     1       1.671  10.414  21.926  0.00  0.00    +0.000 OA
BRANCH  25  28
ATOM     28  C   UNL     1      -0.620  11.700  22.082  0.00  0.00    +0.000 A 
ATOM     29  C   UNL     1      -1.677  11.239  22.874  0.00  0.00    +0.000 A 
ATOM     30  C   UNL     1      -2.482  12.155  23.552  0.00  0.00    +0.000 A 
ATOM     31  C   UNL     1      -2.211  13.520  23.464  0.00  0.00    +0.000 A 
ATOM     32  C   UNL     1      -1.125  13.972  22.711  0.00  0.00    +0.000 A 
ATOM     33  C   UNL     1      -0.323  13.063  22.016  0.00  0.00    +0.000 A 
ENDBRANCH  25  28
ENDBRANCH  24  25
ENDBRANCH   2  24
TORSDOF 8
ENDMDL
MODEL 9
REMARK VINA RESULT:      -7.9      4.545      8.996
REMARK  Name = 
REMARK  8 active torsions:
REMARK  status: ('A' for Active; 'I' for Inactive)
REMARK    1  A    between atoms: N_1  and  S_2
REMARK    2  A    between atoms: S_2  and  C_5
REMARK    3  A    between atoms: C_8  and  N_9
REMARK    4  A    between atoms: N_9  and  N_10
REMARK    5  A    between atoms: C_11  and  C_12
REMARK    6  A    between atoms: C_11  and  C_22
REMARK    7  A    between atoms: C_12  and  S_13
REMARK    8  A    between atoms: S_13  and  C_16
REMARK                            x       y       z     vdW  Elec       q    Type
REMARK                         _______ _______ _______ _____ _____    ______ ____
ROOT
ATOM      1  N   UNL     1       0.977   8.935  18.103  0.00  0.00    +0.000 NA
ATOM      2  C   UNL     1       0.456   9.965  18.722  0.00  0.00    +0.000 C 
ENDROOT
BRANCH   2   3
ATOM      3  C   UNL     1      -0.876  10.471  18.232  0.00  0.00    +0.000 A 
ATOM      4  C   UNL     1      -1.495  11.608  18.780  0.00  0.00    +0.000 A 
ATOM      5  C   UNL     1      -2.740  12.033  18.311  0.00  0.00    +0.000 A 
ATOM      6  C   UNL     1      -3.379  11.315  17.310  0.00  0.00    +0.000 A 
ATOM      7  F   UNL     1      -4.580  11.717  16.876  0.00  0.00    +0.000 F 
ATOM      8  C   UNL     1      -2.795  10.179  16.765  0.00  0.00    +0.000 A 
ATOM      9  C   UNL     1      -1.542   9.758  17.224  0.00  0.00    +0.000 A 
ENDBRANCH   2   3
BRANCH   1  10
ATOM     10  N   UNL     1       2.168   8.454  18.568  0.00  0.00    +0.000 N 
ATOM     11  H   UNL     1       3.008   8.704  18.043  0.00  0.00    +0.000 HD
BRANCH  10  15
ATOM     12  C   UNL     1       2.444   4.389  19.683  0.00  0.00    +0.000 A 
ATOM     13  C   UNL     1       2.063   5.358  20.606  0.00  0.00    +0.000 A 
ATOM     14  C   UNL     1       1.959   6.684  20.194  0.00  0.00    +0.000 A 
ATOM     15  C   UNL     1       2.280   7.072  18.879  0.00  0.00    +0.000 A 
ATOM     16  C   UNL     1       2.609   6.080  17.948  0.00  0.00    +0.000 A 
ATOM     17  C   UNL     1       2.708   4.741  18.352  0.00  0.00    +0.000 A 
BRANCH  12  18
ATOM     18  S   UNL     1       2.674   2.724  20.235  0.00  0.00    +0.000 S 
ATOM     19  O   UNL     1       1.806   2.462  21.355  0.00  0.00    +0.000 OA
ATOM     20  O   UNL     1       4.088   2.424  20.262  0.00  0.00    +0.000 OA
BRANCH  18  21
ATOM     21  N   UNL     1       2.052   1.841  18.946  0.00  0.00    +0.000 NA
ATOM     22  H   UNL     1       1.695   0.949  19.290  0.00  0.00    +0.000 HD
ATOM     23  H   UNL     1       2.757   1.748  18.214  0.00  0.00    +0.000 HD
ENDBRANCH  18  21
ENDBRANCH  12  18
ENDBRANCH  10  15
ENDBRANCH   1  10
BRANCH   2  24
ATOM     24  C   UNL     1       1.087  10.654  19.915  0.00  0.00    +0.000 C 
BRANCH  24  25
ATOM     25  S   UNL     1       0.464  10.070  21.469  0.00  0.00    +0.000 S 
ATOM     26  O   UNL     1      -0.466   8.994  21.171  0.00  0.00    +0.000 OA
ATOM     27  O   UNL     1       1.592   9.816  22.346  0.00  0.00    +0.000 OA
BRANCH  25  28
ATOM     28  C   UNL     1      -0.514  11.383  22.156  0.00  0.00    +0.000 A 
ATOM     29  C   UNL     1      -1.590  11.060  22.990  0.00  0.00    +0.000 A 
ATOM     30  C   UNL     1      -2.364  12.080  23.544  0.00  0.00    +0.000 A 
ATOM     31  C   UNL     1      -2.044  13.414  23.290  0.00  0.00    +0.000 A 
ATOM     32  C   UNL     1      -0.941  13.732  22.495  0.00  0.00    +0.000 A 
ATOM     33  C   UNL     1      -0.170  12.717  21.924  0.00  0.00    +0.000 A 
ENDBRANCH  25  28
ENDBRANCH  24  25
ENDBRANCH   2  24
TORSDOF 8
ENDMDL
