MODEL 1
REMARK VINA RESULT:      -7.3      0.000      0.000
REMARK  Name = 
REMARK  11 active torsions:
REMARK  status: ('A' for Active; 'I' for Inactive)
REMARK    1  A    between atoms: C_1  and  C_2
REMARK    2  A    between atoms: C_2  and  C_3
REMARK    3  A    between atoms: C_2  and  C_4
REMARK    4  A    between atoms: C_4  and  C_5
REMARK    5  A    between atoms: C_4  and  C_6
REMARK    6  A    between atoms: C_4  and  N_8
REMARK    7  A    between atoms: C_9  and  C_11
REMARK    8  A    between atoms: C_11  and  S_12
REMARK    9  A    between atoms: S_12  and  C_13
REMARK   10  A    between atoms: C_15  and  O_16
REMARK   11  A    between atoms: C_18  and  C_19
REMARK                            x       y       z     vdW  Elec       q    Type
REMARK                         _______ _______ _______ _____ _____    ______ ____
ROOT
ATOM      1  C   UNL     1       2.226   7.075  19.023  0.00  0.00    +0.000 A 
ATOM      2  N   UNL     1       2.295   8.027  18.078  0.00  0.00    +0.000 NA
ATOM      3  C   UNL     1       1.814   9.238  18.387  0.00  0.00    +0.000 A 
ATOM      4  C   UNL     1       1.338   9.558  19.660  0.00  0.00    +0.000 A 
ATOM      5  C   UNL     1       0.806  10.748  20.308  0.00  0.00    +0.000 A 
ATOM      6  C   UNL     1       0.471  10.475  21.626  0.00  0.00    +0.000 A 
ATOM      7  S   UNL     1       0.772   8.860  22.081  0.00  0.00    +0.000 S 
ATOM      8  C   UNL     1       1.362   8.482  20.535  0.00  0.00    +0.000 A 
ATOM      9  N   UNL     1       1.783   7.236  20.266  0.00  0.00    +0.000 NA
ENDROOT
BRANCH   5  10
ATOM     10  C   UNL     1       0.621  12.106  19.771  0.00  0.00    +0.000 A 
ATOM     11  C   UNL     1      -0.660  12.657  19.610  0.00  0.00    +0.000 A 
ATOM     12  C   UNL     1      -0.830  13.956  19.119  0.00  0.00    +0.000 A 
ATOM     13  C   UNL     1       0.280  14.713  18.757  0.00  0.00    +0.000 A 
ATOM     14  C   UNL     1       1.556  14.185  18.911  0.00  0.00    +0.000 A 
ATOM     15  C   UNL     1       1.727  12.901  19.439  0.00  0.00    +0.000 A 
ENDBRANCH   5  10
BRANCH   3  16
ATOM     16  O   UNL     1       1.852  10.116  17.343  0.00  0.00    +0.000 OA
ATOM     17  H   UNL     1       1.541  10.936  17.761  0.00  0.00    +0.000 HD
ENDBRANCH   3  16
BRANCH   1  18
ATOM     18  S   UNL     1       2.716   5.437  18.558  0.00  0.00    +0.000 S 
BRANCH  18  19
ATOM     19  C   UNL     1       4.010   5.132  19.789  0.00  0.00    +0.000 C 
BRANCH  19  21
ATOM     20  N   UNL     1       5.406   5.256  17.778  0.00  0.00    +0.000 N 
ATOM     21  C   UNL     1       5.387   5.223  19.162  0.00  0.00    +0.000 C 
ATOM     22  O   UNL     1       6.404   5.252  19.848  0.00  0.00    +0.000 OA
ATOM     23  H   UNL     1       4.526   5.427  17.307  0.00  0.00    +0.000 HD
BRANCH  20  24
ATOM     24  C   UNL     1       6.662   5.449  17.008  0.00  0.00    +0.000 C 
ATOM     25  C   UNL     1       7.751   4.466  17.506  0.00  0.00    +0.000 C 
BRANCH  24  27
ATOM     26  C   UNL     1       6.147   3.741  15.125  0.00  0.00    +0.000 C 
ATOM     27  C   UNL     1       6.418   5.214  15.475  0.00  0.00    +0.000 C 
ATOM     28  C   UNL     1       5.282   6.067  14.891  0.00  0.00    +0.000 C 
ENDBRANCH  24  27
BRANCH  24  29
ATOM     29  C   UNL     1       7.184   6.858  17.238  0.00  0.00    +0.000 C 
ATOM     30  N   UNL     1       7.616   8.027  17.429  0.00  0.00    +0.000 NA
ENDBRANCH  24  29
ENDBRANCH  20  24
ENDBRANCH  19  21
ENDBRANCH  18  19
ENDBRANCH   1  18
TORSDOF 8
ENDMDL
MODEL 2
REMARK VINA RESULT:      -7.2      3.048      4.179
REMARK  Name = 
REMARK  11 active torsions:
REMARK  status: ('A' for Active; 'I' for Inactive)
REMARK    1  A    between atoms: C_1  and  C_2
REMARK    2  A    between atoms: C_2  and  C_3
REMARK    3  A    between atoms: C_2  and  C_4
REMARK    4  A    between atoms: C_4  and  C_5
REMARK    5  A    between atoms: C_4  and  C_6
REMARK    6  A    between atoms: C_4  and  N_8
REMARK    7  A    between atoms: C_9  and  C_11
REMARK    8  A    between atoms: C_11  and  S_12
REMARK    9  A    between atoms: S_12  and  C_13
REMARK   10  A    between atoms: C_15  and  O_16
REMARK   11  A    between atoms: C_18  and  C_19
REMARK                            x       y       z     vdW  Elec       q    Type
REMARK                         _______ _______ _______ _____ _____    ______ ____
ROOT
ATOM      1  C   UNL     1       1.049   8.660  20.484  0.00  0.00    +0.000 A 
ATOM      2  N   UNL     1       0.816   8.853  21.792  0.00  0.00    +0.000 NA
ATOM      3  C   UNL     1       0.136   9.952  22.141  0.00  0.00    +0.000 A 
ATOM      4  C   UNL     1      -0.404  10.835  21.204  0.00  0.00    +0.000 A 
ATOM      5  C   UNL     1      -1.200  12.053  21.252  0.00  0.00    +0.000 A 
ATOM      6  C   UNL     1      -1.444  12.525  19.971  0.00  0.00    +0.000 A 
ATOM      7  S   UNL     1      -0.749  11.561  18.749  0.00  0.00    +0.000 S 
ATOM      8  C   UNL     1      -0.108  10.484  19.895  0.00  0.00    +0.000 A 
ATOM      9  N   UNL     1       0.611   9.426  19.489  0.00  0.00    +0.000 NA
ENDROOT
BRANCH   5  10
ATOM     10  C   UNL     1      -1.751  12.769  22.414  0.00  0.00    +0.000 A 
ATOM     11  C   UNL     1      -1.053  13.829  23.014  0.00  0.00    +0.000 A 
ATOM     12  C   UNL     1      -1.591  14.520  24.106  0.00  0.00    +0.000 A 
ATOM     13  C   UNL     1      -2.824  14.142  24.629  0.00  0.00    +0.000 A 
ATOM     14  C   UNL     1      -3.530  13.096  24.047  0.00  0.00    +0.000 A 
ATOM     15  C   UNL     1      -3.010  12.432  22.931  0.00  0.00    +0.000 A 
ENDBRANCH   5  10
BRANCH   3  16
ATOM     16  O   UNL     1       0.016  10.106  23.493  0.00  0.00    +0.000 OA
ATOM     17  H   UNL     1      -0.280  11.030  23.562  0.00  0.00    +0.000 HD
ENDBRANCH   3  16
BRANCH   1  18
ATOM     18  S   UNL     1       2.084   7.292  20.040  0.00  0.00    +0.000 S 
BRANCH  18  19
ATOM     19  C   UNL     1       2.558   7.785  18.362  0.00  0.00    +0.000 C 
BRANCH  19  21
ATOM     20  N   UNL     1       3.892   5.737  18.552  0.00  0.00    +0.000 N 
ATOM     21  C   UNL     1       3.659   6.893  17.826  0.00  0.00    +0.000 C 
ATOM     22  O   UNL     1       4.298   7.195  16.822  0.00  0.00    +0.000 OA
ATOM     23  H   UNL     1       3.195   5.474  19.238  0.00  0.00    +0.000 HD
BRANCH  20  24
ATOM     24  C   UNL     1       4.861   4.704  18.107  0.00  0.00    +0.000 C 
ATOM     25  C   UNL     1       4.436   4.127  16.734  0.00  0.00    +0.000 C 
BRANCH  24  27
ATOM     26  C   UNL     1       6.975   5.549  19.350  0.00  0.00    +0.000 C 
ATOM     27  C   UNL     1       6.305   5.308  17.987  0.00  0.00    +0.000 C 
ATOM     28  C   UNL     1       7.257   4.468  17.122  0.00  0.00    +0.000 C 
ENDBRANCH  24  27
BRANCH  24  29
ATOM     29  C   UNL     1       4.864   3.553  19.101  0.00  0.00    +0.000 C 
ATOM     30  N   UNL     1       4.865   2.599  19.925  0.00  0.00    +0.000 NA
ENDBRANCH  24  29
ENDBRANCH  20  24
ENDBRANCH  19  21
ENDBRANCH  18  19
ENDBRANCH   1  18
TORSDOF 8
ENDMDL
MODEL 3
REMARK VINA RESULT:      -7.1      3.113      4.181
REMARK  Name = 
REMARK  11 active torsions:
REMARK  status: ('A' for Active; 'I' for Inactive)
REMARK    1  A    between atoms: C_1  and  C_2
REMARK    2  A    between atoms: C_2  and  C_3
REMARK    3  A    between atoms: C_2  and  C_4
REMARK    4  A    between atoms: C_4  and  C_5
REMARK    5  A    between atoms: C_4  and  C_6
REMARK    6  A    between atoms: C_4  and  N_8
REMARK    7  A    between atoms: C_9  and  C_11
REMARK    8  A    between atoms: C_11  and  S_12
REMARK    9  A    between atoms: S_12  and  C_13
REMARK   10  A    between atoms: C_15  and  O_16
REMARK   11  A    between atoms: C_18  and  C_19
REMARK                            x       y       z     vdW  Elec       q    Type
REMARK                         _______ _______ _______ _____ _____    ______ ____
ROOT
ATOM      1  C   UNL     1       1.062   8.706  20.609  0.00  0.00    +0.000 A 
ATOM      2  N   UNL     1       0.451   8.687  21.805  0.00  0.00    +0.000 NA
ATOM      3  C   UNL     1      -0.177   9.804  22.193  0.00  0.00    +0.000 A 
ATOM      4  C   UNL     1      -0.291  10.929  21.375  0.00  0.00    +0.000 A 
ATOM      5  C   UNL     1      -0.921  12.238  21.478  0.00  0.00    +0.000 A 
ATOM      6  C   UNL     1      -0.694  12.979  20.328  0.00  0.00    +0.000 A 
ATOM      7  S   UNL     1       0.240  12.154  19.164  0.00  0.00    +0.000 S 
ATOM      8  C   UNL     1       0.361  10.784  20.159  0.00  0.00    +0.000 A 
ATOM      9  N   UNL     1       1.050   9.711  19.738  0.00  0.00    +0.000 NA
ENDROOT
BRANCH   5  10
ATOM     10  C   UNL     1      -1.726  12.808  22.569  0.00  0.00    +0.000 A 
ATOM     11  C   UNL     1      -2.964  12.251  22.929  0.00  0.00    +0.000 A 
ATOM     12  C   UNL     1      -3.717  12.785  23.981  0.00  0.00    +0.000 A 
ATOM     13  C   UNL     1      -3.253  13.900  24.672  0.00  0.00    +0.000 A 
ATOM     14  C   UNL     1      -2.029  14.464  24.332  0.00  0.00    +0.000 A 
ATOM     15  C   UNL     1      -1.259  13.906  23.306  0.00  0.00    +0.000 A 
ENDBRANCH   5  10
BRANCH   3  16
ATOM     16  O   UNL     1      -0.699   9.719  23.452  0.00  0.00    +0.000 OA
ATOM     17  H   UNL     1      -1.219   8.899  23.396  0.00  0.00    +0.000 HD
ENDBRANCH   3  16
BRANCH   1  18
ATOM     18  S   UNL     1       2.025   7.284  20.170  0.00  0.00    +0.000 S 
BRANCH  18  19
ATOM     19  C   UNL     1       2.390   7.673  18.438  0.00  0.00    +0.000 C 
BRANCH  19  21
ATOM     20  N   UNL     1       3.728   5.623  18.581  0.00  0.00    +0.000 N 
ATOM     21  C   UNL     1       3.538   6.827  17.925  0.00  0.00    +0.000 C 
ATOM     22  O   UNL     1       4.248   7.205  16.997  0.00  0.00    +0.000 OA
ATOM     23  H   UNL     1       2.985   5.307  19.192  0.00  0.00    +0.000 HD
BRANCH  20  24
ATOM     24  C   UNL     1       4.740   4.630  18.138  0.00  0.00    +0.000 C 
ATOM     25  C   UNL     1       4.337   4.032  16.767  0.00  0.00    +0.000 C 
BRANCH  24  27
ATOM     26  C   UNL     1       6.846   5.506  19.373  0.00  0.00    +0.000 C 
ATOM     27  C   UNL     1       6.157   5.293  18.014  0.00  0.00    +0.000 C 
ATOM     28  C   UNL     1       7.121   4.526  17.098  0.00  0.00    +0.000 C 
ENDBRANCH  24  27
BRANCH  24  29
ATOM     29  C   UNL     1       4.791   3.483  19.135  0.00  0.00    +0.000 C 
ATOM     30  N   UNL     1       4.833   2.532  19.962  0.00  0.00    +0.000 NA
ENDBRANCH  24  29
ENDBRANCH  20  24
ENDBRANCH  19  21
ENDBRANCH  18  19
ENDBRANCH   1  18
TORSDOF 8
ENDMDL
MODEL 4
REMARK VINA RESULT:      -7.0      3.064      4.177
REMARK  Name = 
REMARK  11 active torsions:
REMARK  status: ('A' for Active; 'I' for Inactive)
REMARK    1  A    between atoms: C_1  and  C_2
REMARK    2  A    between atoms: C_2  and  C_3
REMARK    3  A    between atoms: C_2  and  C_4
REMARK    4  A    between atoms: C_4  and  C_5
REMARK    5  A    between atoms: C_4  and  C_6
REMARK    6  A    between atoms: C_4  and  N_8
REMARK    7  A    between atoms: C_9  and  C_11
REMARK    8  A    between atoms: C_11  and  S_12
REMARK    9  A    between atoms: S_12  and  C_13
REMARK   10  A    between atoms: C_15  and  O_16
REMARK   11  A    between atoms: C_18  and  C_19
REMARK                            x       y       z     vdW  Elec       q    Type
REMARK                         _______ _______ _______ _____ _____    ______ ____
ROOT
ATOM      1  C   UNL     1       1.003   8.520  20.889  0.00  0.00    +0.000 A 
ATOM      2  N   UNL     1       0.517   8.658  22.133  0.00  0.00    +0.000 NA
ATOM      3  C   UNL     1      -0.091   9.813  22.432  0.00  0.00    +0.000 A 
ATOM      4  C   UNL     1      -0.310  10.817  21.488  0.00  0.00    +0.000 A 
ATOM      5  C   UNL     1      -0.953  12.124  21.481  0.00  0.00    +0.000 A 
ATOM      6  C   UNL     1      -0.859  12.705  20.225  0.00  0.00    +0.000 A 
ATOM      7  S   UNL     1      -0.032  11.737  19.091  0.00  0.00    +0.000 S 
ATOM      8  C   UNL     1       0.218  10.515  20.241  0.00  0.00    +0.000 A 
ATOM      9  N   UNL     1       0.881   9.399  19.898  0.00  0.00    +0.000 NA
ENDROOT
BRANCH   5  10
ATOM     10  C   UNL     1      -1.655  12.829  22.564  0.00  0.00    +0.000 A 
ATOM     11  C   UNL     1      -1.075  13.932  23.211  0.00  0.00    +0.000 A 
ATOM     12  C   UNL     1      -1.756  14.613  24.227  0.00  0.00    +0.000 A 
ATOM     13  C   UNL     1      -3.017  14.183  24.627  0.00  0.00    +0.000 A 
ATOM     14  C   UNL     1      -3.609  13.095  23.997  0.00  0.00    +0.000 A 
ATOM     15  C   UNL     1      -2.944  12.439  22.955  0.00  0.00    +0.000 A 
ENDBRANCH   5  10
BRANCH   3  16
ATOM     16  O   UNL     1      -0.481   9.894  23.738  0.00  0.00    +0.000 OA
ATOM     17  H   UNL     1       0.293  10.315  24.150  0.00  0.00    +0.000 HD
ENDBRANCH   3  16
BRANCH   1  18
ATOM     18  S   UNL     1       1.945   7.059  20.545  0.00  0.00    +0.000 S 
BRANCH  18  19
ATOM     19  C   UNL     1       2.433   7.393  18.832  0.00  0.00    +0.000 C 
BRANCH  19  21
ATOM     20  N   UNL     1       4.576   6.322  18.308  0.00  0.00    +0.000 N 
ATOM     21  C   UNL     1       3.196   6.221  18.249  0.00  0.00    +0.000 C 
ATOM     22  O   UNL     1       2.614   5.261  17.751  0.00  0.00    +0.000 OA
ATOM     23  H   UNL     1       4.961   7.043  18.905  0.00  0.00    +0.000 HD
BRANCH  20  24
ATOM     24  C   UNL     1       5.471   5.218  17.877  0.00  0.00    +0.000 C 
ATOM     25  C   UNL     1       5.168   4.826  16.409  0.00  0.00    +0.000 C 
BRANCH  24  27
ATOM     26  C   UNL     1       7.283   6.986  17.316  0.00  0.00    +0.000 C 
ATOM     27  C   UNL     1       6.977   5.641  17.997  0.00  0.00    +0.000 C 
ATOM     28  C   UNL     1       7.489   5.704  19.444  0.00  0.00    +0.000 C 
ENDBRANCH  24  27
BRANCH  24  29
ATOM     29  C   UNL     1       5.209   3.992  18.736  0.00  0.00    +0.000 C 
ATOM     30  N   UNL     1       4.992   2.974  19.448  0.00  0.00    +0.000 NA
ENDBRANCH  24  29
ENDBRANCH  20  24
ENDBRANCH  19  21
ENDBRANCH  18  19
ENDBRANCH   1  18
TORSDOF 8
ENDMDL
MODEL 5
REMARK VINA RESULT:      -7.0      2.565      8.585
REMARK  Name = 
REMARK  11 active torsions:
REMARK  status: ('A' for Active; 'I' for Inactive)
REMARK    1  A    between atoms: C_1  and  C_2
REMARK    2  A    between atoms: C_2  and  C_3
REMARK    3  A    between atoms: C_2  and  C_4
REMARK    4  A    between atoms: C_4  and  C_5
REMARK    5  A    between atoms: C_4  and  C_6
REMARK    6  A    between atoms: C_4  and  N_8
REMARK    7  A    between atoms: C_9  and  C_11
REMARK    8  A    between atoms: C_11  and  S_12
REMARK    9  A    between atoms: S_12  and  C_13
REMARK   10  A    between atoms: C_15  and  O_16
REMARK   11  A    between atoms: C_18  and  C_19
REMARK                            x       y       z     vdW  Elec       q    Type
REMARK                         _______ _______ _______ _____ _____    ______ ____
ROOT
ATOM      1  C   UNL     1       1.421   7.280  20.490  0.00  0.00    +0.000 A 
ATOM      2  N   UNL     1       2.104   7.785  19.449  0.00  0.00    +0.000 NA
ATOM      3  C   UNL     1       2.990   6.983  18.847  0.00  0.00    +0.000 A 
ATOM      4  C   UNL     1       3.158   5.643  19.200  0.00  0.00    +0.000 A 
ATOM      5  C   UNL     1       3.976   4.533  18.733  0.00  0.00    +0.000 A 
ATOM      6  C   UNL     1       3.729   3.395  19.488  0.00  0.00    +0.000 A 
ATOM      7  S   UNL     1       2.568   3.635  20.714  0.00  0.00    +0.000 S 
ATOM      8  C   UNL     1       2.360   5.259  20.269  0.00  0.00    +0.000 A 
ATOM      9  N   UNL     1       1.494   6.032  20.944  0.00  0.00    +0.000 NA
ENDROOT
BRANCH   5  10
ATOM     10  C   UNL     1       4.941   4.480  17.624  0.00  0.00    +0.000 A 
ATOM     11  C   UNL     1       4.518   4.293  16.298  0.00  0.00    +0.000 A 
ATOM     12  C   UNL     1       5.438   4.264  15.245  0.00  0.00    +0.000 A 
ATOM     13  C   UNL     1       6.798   4.396  15.506  0.00  0.00    +0.000 A 
ATOM     14  C   UNL     1       7.236   4.583  16.811  0.00  0.00    +0.000 A 
ATOM     15  C   UNL     1       6.312   4.651  17.860  0.00  0.00    +0.000 A 
ENDBRANCH   5  10
BRANCH   3  16
ATOM     16  O   UNL     1       3.691   7.604  17.854  0.00  0.00    +0.000 OA
ATOM     17  H   UNL     1       3.556   8.542  18.072  0.00  0.00    +0.000 HD
ENDBRANCH   3  16
BRANCH   1  18
ATOM     18  S   UNL     1       0.368   8.391  21.383  0.00  0.00    +0.000 S 
BRANCH  18  19
ATOM     19  C   UNL     1       1.271   9.944  21.143  0.00  0.00    +0.000 C 
BRANCH  19  21
ATOM     20  N   UNL     1      -0.569  10.540  19.636  0.00  0.00    +0.000 N 
ATOM     21  C   UNL     1       0.373  11.004  20.538  0.00  0.00    +0.000 C 
ATOM     22  O   UNL     1       0.493  12.191  20.832  0.00  0.00    +0.000 OA
ATOM     23  H   UNL     1      -0.727   9.540  19.606  0.00  0.00    +0.000 HD
BRANCH  20  24
ATOM     24  C   UNL     1      -1.594  11.429  19.032  0.00  0.00    +0.000 C 
ATOM     25  C   UNL     1      -0.915  12.502  18.144  0.00  0.00    +0.000 C 
BRANCH  24  27
ATOM     26  C   UNL     1      -3.823  11.425  17.706  0.00  0.00    +0.000 C 
ATOM     27  C   UNL     1      -2.605  10.604  18.159  0.00  0.00    +0.000 C 
ATOM     28  C   UNL     1      -1.968   9.959  16.919  0.00  0.00    +0.000 C 
ENDBRANCH  24  27
BRANCH  24  29
ATOM     29  C   UNL     1      -2.341  12.160  20.135  0.00  0.00    +0.000 C 
ATOM     30  N   UNL     1      -2.960  12.768  21.050  0.00  0.00    +0.000 NA
ENDBRANCH  24  29
ENDBRANCH  20  24
ENDBRANCH  19  21
ENDBRANCH  18  19
ENDBRANCH   1  18
TORSDOF 8
ENDMDL
MODEL 6
REMARK VINA RESULT:      -7.0      3.527      4.863
REMARK  Name = 
REMARK  11 active torsions:
REMARK  status: ('A' for Active; 'I' for Inactive)
REMARK    1  A    between atoms: C_1  and  C_2
REMARK    2  A    between atoms: C_2  and  C_3
REMARK    3  A    between atoms: C_2  and  C_4
REMARK    4  A    between atoms: C_4  and  C_5
REMARK    5  A    between atoms: C_4  and  C_6
REMARK    6  A    between atoms: C_4  and  N_8
REMARK    7  A    between atoms: C_9  and  C_11
REMARK    8  A    between atoms: C_11  and  S_12
REMARK    9  A    between atoms: S_12  and  C_13
REMARK   10  A    between atoms: C_15  and  O_16
REMARK   11  A    between atoms: C_18  and  C_19
REMARK                            x       y       z     vdW  Elec       q    Type
REMARK                         _______ _______ _______ _____ _____    ______ ____
ROOT
ATOM      1  C   UNL     1       0.862   9.469  18.773  0.00  0.00    +0.000 A 
ATOM      2  N   UNL     1       1.128   9.727  20.064  0.00  0.00    +0.000 NA
ATOM      3  C   UNL     1       0.348  10.618  20.688  0.00  0.00    +0.000 A 
ATOM      4  C   UNL     1      -0.763  11.205  20.079  0.00  0.00    +0.000 A 
ATOM      5  C   UNL     1      -1.801  12.144  20.481  0.00  0.00    +0.000 A 
ATOM      6  C   UNL     1      -2.671  12.387  19.428  0.00  0.00    +0.000 A 
ATOM      7  S   UNL     1      -2.268  11.535  18.006  0.00  0.00    +0.000 S 
ATOM      8  C   UNL     1      -0.928  10.815  18.758  0.00  0.00    +0.000 A 
ATOM      9  N   UNL     1      -0.149   9.967  18.066  0.00  0.00    +0.000 NA
ENDROOT
BRANCH   5  10
ATOM     10  C   UNL     1      -2.027  12.793  21.781  0.00  0.00    +0.000 A 
ATOM     11  C   UNL     1      -3.146  12.479  22.568  0.00  0.00    +0.000 A 
ATOM     12  C   UNL     1      -3.345  13.085  23.814  0.00  0.00    +0.000 A 
ATOM     13  C   UNL     1      -2.440  14.034  24.278  0.00  0.00    +0.000 A 
ATOM     14  C   UNL     1      -1.325  14.356  23.514  0.00  0.00    +0.000 A 
ATOM     15  C   UNL     1      -1.106  13.722  22.287  0.00  0.00    +0.000 A 
ENDBRANCH   5  10
BRANCH   3  16
ATOM     16  O   UNL     1       0.741  10.875  21.969  0.00  0.00    +0.000 OA
ATOM     17  H   UNL     1       1.710  10.838  21.891  0.00  0.00    +0.000 HD
ENDBRANCH   3  16
BRANCH   1  18
ATOM     18  S   UNL     1       1.992   8.412  17.909  0.00  0.00    +0.000 S 
BRANCH  18  19
ATOM     19  C   UNL     1       2.568   7.378  19.280  0.00  0.00    +0.000 C 
BRANCH  19  21
ATOM     20  N   UNL     1       2.325   5.028  19.937  0.00  0.00    +0.000 N 
ATOM     21  C   UNL     1       2.551   5.912  18.895  0.00  0.00    +0.000 C 
ATOM     22  O   UNL     1       2.738   5.550  17.737  0.00  0.00    +0.000 OA
ATOM     23  H   UNL     1       1.987   5.417  20.809  0.00  0.00    +0.000 HD
BRANCH  20  24
ATOM     24  C   UNL     1       2.173   3.567  19.718  0.00  0.00    +0.000 C 
ATOM     25  C   UNL     1       0.989   3.291  18.757  0.00  0.00    +0.000 C 
BRANCH  24  27
ATOM     26  C   UNL     1       4.409   2.333  20.169  0.00  0.00    +0.000 C 
ATOM     27  C   UNL     1       3.484   2.954  19.109  0.00  0.00    +0.000 C 
ATOM     28  C   UNL     1       3.226   1.905  18.017  0.00  0.00    +0.000 C 
ENDBRANCH  24  27
BRANCH  24  29
ATOM     29  C   UNL     1       1.850   2.889  21.039  0.00  0.00    +0.000 C 
ATOM     30  N   UNL     1       1.582   2.325  22.135  0.00  0.00    +0.000 NA
ENDBRANCH  24  29
ENDBRANCH  20  24
ENDBRANCH  19  21
ENDBRANCH  18  19
ENDBRANCH   1  18
TORSDOF 8
ENDMDL
MODEL 7
REMARK VINA RESULT:      -6.9      3.051      3.866
REMARK  Name = 
REMARK  11 active torsions:
REMARK  status: ('A' for Active; 'I' for Inactive)
REMARK    1  A    between atoms: C_1  and  C_2
REMARK    2  A    between atoms: C_2  and  C_3
REMARK    3  A    between atoms: C_2  and  C_4
REMARK    4  A    between atoms: C_4  and  C_5
REMARK    5  A    between atoms: C_4  and  C_6
REMARK    6  A    between atoms: C_4  and  N_8
REMARK    7  A    between atoms: C_9  and  C_11
REMARK    8  A    between atoms: C_11  and  S_12
REMARK    9  A    between atoms: S_12  and  C_13
REMARK   10  A    between atoms: C_15  and  O_16
REMARK   11  A    between atoms: C_18  and  C_19
REMARK                            x       y       z     vdW  Elec       q    Type
REMARK                         _______ _______ _______ _____ _____    ______ ____
ROOT
ATOM      1  C   UNL     1       0.802   9.748  18.817  0.00  0.00    +0.000 A 
ATOM      2  N   UNL     1       1.088  10.046  20.095  0.00  0.00    +0.000 NA
ATOM      3  C   UNL     1       0.250  10.869  20.737  0.00  0.00    +0.000 A 
ATOM      4  C   UNL     1      -0.931  11.343  20.163  0.00  0.00    +0.000 A 
ATOM      5  C   UNL     1      -2.037  12.187  20.593  0.00  0.00    +0.000 A 
ATOM      6  C   UNL     1      -2.961  12.336  19.569  0.00  0.00    +0.000 A 
ATOM      7  S   UNL     1      -2.531  11.506  18.142  0.00  0.00    +0.000 S 
ATOM      8  C   UNL     1      -1.104  10.922  18.853  0.00  0.00    +0.000 A 
ATOM      9  N   UNL     1      -0.274  10.142  18.142  0.00  0.00    +0.000 NA
ENDROOT
BRANCH   5  10
ATOM     10  C   UNL     1      -2.276  12.830  21.894  0.00  0.00    +0.000 A 
ATOM     11  C   UNL     1      -3.314  12.402  22.738  0.00  0.00    +0.000 A 
ATOM     12  C   UNL     1      -3.524  13.004  23.984  0.00  0.00    +0.000 A 
ATOM     13  C   UNL     1      -2.715  14.059  24.392  0.00  0.00    +0.000 A 
ATOM     14  C   UNL     1      -1.682  14.495  23.571  0.00  0.00    +0.000 A 
ATOM     15  C   UNL     1      -1.447  13.868  22.343  0.00  0.00    +0.000 A 
ENDBRANCH   5  10
BRANCH   3  16
ATOM     16  O   UNL     1       0.662  11.178  22.002  0.00  0.00    +0.000 OA
ATOM     17  H   UNL     1       1.108  12.031  21.862  0.00  0.00    +0.000 HD
ENDBRANCH   3  16
BRANCH   1  18
ATOM     18  S   UNL     1       1.995   8.789  17.923  0.00  0.00    +0.000 S 
BRANCH  18  19
ATOM     19  C   UNL     1       2.294   7.462  19.120  0.00  0.00    +0.000 C 
BRANCH  19  21
ATOM     20  N   UNL     1       4.235   6.098  18.499  0.00  0.00    +0.000 N 
ATOM     21  C   UNL     1       2.858   6.233  18.435  0.00  0.00    +0.000 C 
ATOM     22  O   UNL     1       2.131   5.429  17.859  0.00  0.00    +0.000 OA
ATOM     23  H   UNL     1       4.728   6.691  19.155  0.00  0.00    +0.000 HD
BRANCH  20  24
ATOM     24  C   UNL     1       4.938   4.901  17.972  0.00  0.00    +0.000 C 
ATOM     25  C   UNL     1       4.295   3.610  18.539  0.00  0.00    +0.000 C 
BRANCH  24  27
ATOM     26  C   UNL     1       5.251   6.202  15.751  0.00  0.00    +0.000 C 
ATOM     27  C   UNL     1       4.876   4.861  16.404  0.00  0.00    +0.000 C 
ATOM     28  C   UNL     1       5.744   3.759  15.779  0.00  0.00    +0.000 C 
ENDBRANCH  24  27
BRANCH  24  29
ATOM     29  C   UNL     1       6.387   4.924  18.432  0.00  0.00    +0.000 C 
ATOM     30  N   UNL     1       7.589   4.944  18.814  0.00  0.00    +0.000 NA
ENDBRANCH  24  29
ENDBRANCH  20  24
ENDBRANCH  19  21
ENDBRANCH  18  19
ENDBRANCH   1  18
TORSDOF 8
ENDMDL
MODEL 8
REMARK VINA RESULT:      -6.9      2.826      3.725
REMARK  Name = 
REMARK  11 active torsions:
REMARK  status: ('A' for Active; 'I' for Inactive)
REMARK    1  A    between atoms: C_1  and  C_2
REMARK    2  A    between atoms: C_2  and  C_3
REMARK    3  A    between atoms: C_2  and  C_4
REMARK    4  A    between atoms: C_4  and  C_5
REMARK    5  A    between atoms: C_4  and  C_6
REMARK    6  A    between atoms: C_4  and  N_8
REMARK    7  A    between atoms: C_9  and  C_11
REMARK    8  A    between atoms: C_11  and  S_12
REMARK    9  A    between atoms: S_12  and  C_13
REMARK   10  A    between atoms: C_15  and  O_16
REMARK   11  A    between atoms: C_18  and  C_19
REMARK                            x       y       z     vdW  Elec       q    Type
REMARK                         _______ _______ _______ _____ _____    ______ ____
ROOT
ATOM      1  C   UNL     1       1.067   9.314  19.111  0.00  0.00    +0.000 A 
ATOM      2  N   UNL     1       1.148   9.479  20.442  0.00  0.00    +0.000 NA
ATOM      3  C   UNL     1       0.361  10.409  20.996  0.00  0.00    +0.000 A 
ATOM      4  C   UNL     1      -0.585  11.131  20.266  0.00  0.00    +0.000 A 
ATOM      5  C   UNL     1      -1.586  12.144  20.565  0.00  0.00    +0.000 A 
ATOM      6  C   UNL     1      -2.255  12.523  19.410  0.00  0.00    +0.000 A 
ATOM      7  S   UNL     1      -1.710  11.709  18.014  0.00  0.00    +0.000 S 
ATOM      8  C   UNL     1      -0.573  10.825  18.912  0.00  0.00    +0.000 A 
ATOM      9  N   UNL     1       0.228   9.943  18.293  0.00  0.00    +0.000 NA
ENDROOT
BRANCH   5  10
ATOM     10  C   UNL     1      -1.956  12.745  21.856  0.00  0.00    +0.000 A 
ATOM     11  C   UNL     1      -1.093  13.631  22.521  0.00  0.00    +0.000 A 
ATOM     12  C   UNL     1      -1.459  14.216  23.738  0.00  0.00    +0.000 A 
ATOM     13  C   UNL     1      -2.683  13.903  24.321  0.00  0.00    +0.000 A 
ATOM     14  C   UNL     1      -3.551  13.030  23.676  0.00  0.00    +0.000 A 
ATOM     15  C   UNL     1      -3.202  12.476  22.440  0.00  0.00    +0.000 A 
ENDBRANCH   5  10
BRANCH   3  16
ATOM     16  O   UNL     1       0.569  10.561  22.337  0.00  0.00    +0.000 OA
ATOM     17  H   UNL     1       1.467  10.933  22.358  0.00  0.00    +0.000 HD
ENDBRANCH   3  16
BRANCH   1  18
ATOM     18  S   UNL     1       2.222   8.198  18.362  0.00  0.00    +0.000 S 
BRANCH  18  19
ATOM     19  C   UNL     1       2.310   6.924  19.648  0.00  0.00    +0.000 C 
BRANCH  19  21
ATOM     20  N   UNL     1       4.210   6.231  18.261  0.00  0.00    +0.000 N 
ATOM     21  C   UNL     1       3.394   5.913  19.334  0.00  0.00    +0.000 C 
ATOM     22  O   UNL     1       3.519   4.882  19.989  0.00  0.00    +0.000 OA
ATOM     23  H   UNL     1       4.163   7.180  17.911  0.00  0.00    +0.000 HD
BRANCH  20  24
ATOM     24  C   UNL     1       5.384   5.403  17.885  0.00  0.00    +0.000 C 
ATOM     25  C   UNL     1       4.935   3.959  17.551  0.00  0.00    +0.000 C 
BRANCH  24  27
ATOM     26  C   UNL     1       5.163   6.618  15.605  0.00  0.00    +0.000 C 
ATOM     27  C   UNL     1       6.123   6.014  16.642  0.00  0.00    +0.000 C 
ATOM     28  C   UNL     1       7.172   7.075  17.007  0.00  0.00    +0.000 C 
ENDBRANCH  24  27
BRANCH  24  29
ATOM     29  C   UNL     1       6.340   5.318  19.064  0.00  0.00    +0.000 C 
ATOM     30  N   UNL     1       7.133   5.248  20.042  0.00  0.00    +0.000 NA
ENDBRANCH  24  29
ENDBRANCH  20  24
ENDBRANCH  19  21
ENDBRANCH  18  19
ENDBRANCH   1  18
TORSDOF 8
ENDMDL
MODEL 9
REMARK VINA RESULT:      -6.9      3.010      3.999
REMARK  Name = 
REMARK  11 active torsions:
REMARK  status: ('A' for Active; 'I' for Inactive)
REMARK    1  A    between atoms: C_1  and  C_2
REMARK    2  A    between atoms: C_2  and  C_3
REMARK    3  A    between atoms: C_2  and  C_4
REMARK    4  A    between atoms: C_4  and  C_5
REMARK    5  A    between atoms: C_4  and  C_6
REMARK    6  A    between atoms: C_4  and  N_8
REMARK    7  A    between atoms: C_9  and  C_11
REMARK    8  A    between atoms: C_11  and  S_12
REMARK    9  A    between atoms: S_12  and  C_13
REMARK   10  A    between atoms: C_15  and  O_16
REMARK   11  A    between atoms: C_18  and  C_19
REMARK                            x       y       z     vdW  Elec       q    Type
REMARK                         _______ _______ _______ _____ _____    ______ ____
ROOT
ATOM      1  C   UNL     1       0.789   9.673  18.767  0.00  0.00    +0.000 A 
ATOM      2  N   UNL     1       1.071   9.951  20.050  0.00  0.00    +0.000 NA
ATOM      3  C   UNL     1       0.247  10.786  20.694  0.00  0.00    +0.000 A 
ATOM      4  C   UNL     1      -0.918  11.294  20.116  0.00  0.00    +0.000 A 
ATOM      5  C   UNL     1      -2.008  12.158  20.544  0.00  0.00    +0.000 A 
ATOM      6  C   UNL     1      -2.920  12.338  19.515  0.00  0.00    +0.000 A 
ATOM      7  S   UNL     1      -2.497  11.514  18.083  0.00  0.00    +0.000 S 
ATOM      8  C   UNL     1      -1.090  10.890  18.799  0.00  0.00    +0.000 A 
ATOM      9  N   UNL     1      -0.273  10.098  18.087  0.00  0.00    +0.000 NA
ENDROOT
BRANCH   5  10
ATOM     10  C   UNL     1      -2.244  12.793  21.851  0.00  0.00    +0.000 A 
ATOM     11  C   UNL     1      -3.327  12.413  22.660  0.00  0.00    +0.000 A 
ATOM     12  C   UNL     1      -3.534  13.006  23.911  0.00  0.00    +0.000 A 
ATOM     13  C   UNL     1      -2.676  14.006  24.358  0.00  0.00    +0.000 A 
ATOM     14  C   UNL     1      -1.598  14.393  23.571  0.00  0.00    +0.000 A 
ATOM     15  C   UNL     1      -1.368  13.773  22.339  0.00  0.00    +0.000 A 
ENDBRANCH   5  10
BRANCH   3  16
ATOM     16  O   UNL     1       0.655  11.073  21.965  0.00  0.00    +0.000 OA
ATOM     17  H   UNL     1       1.399  10.457  22.078  0.00  0.00    +0.000 HD
ENDBRANCH   3  16
BRANCH   1  18
ATOM     18  S   UNL     1       1.967   8.696  17.873  0.00  0.00    +0.000 S 
BRANCH  18  19
ATOM     19  C   UNL     1       2.371   7.458  19.132  0.00  0.00    +0.000 C 
BRANCH  19  21
ATOM     20  N   UNL     1       4.418   6.270  18.490  0.00  0.00    +0.000 N 
ATOM     21  C   UNL     1       3.034   6.246  18.507  0.00  0.00    +0.000 C 
ATOM     22  O   UNL     1       2.372   5.322  18.042  0.00  0.00    +0.000 OA
ATOM     23  H   UNL     1       4.876   6.966  19.065  0.00  0.00    +0.000 HD
BRANCH  20  24
ATOM     24  C   UNL     1       5.224   5.118  18.010  0.00  0.00    +0.000 C 
ATOM     25  C   UNL     1       4.766   4.700  16.591  0.00  0.00    +0.000 C 
BRANCH  24  27
ATOM     26  C   UNL     1       7.589   4.489  17.150  0.00  0.00    +0.000 C 
ATOM     27  C   UNL     1       6.751   5.483  17.972  0.00  0.00    +0.000 C 
ATOM     28  C   UNL     1       7.035   6.900  17.454  0.00  0.00    +0.000 C 
ENDBRANCH  24  27
BRANCH  24  29
ATOM     29  C   UNL     1       4.999   3.928  18.928  0.00  0.00    +0.000 C 
ATOM     30  N   UNL     1       4.814   2.939  19.689  0.00  0.00    +0.000 NA
ENDBRANCH  24  29
ENDBRANCH  20  24
ENDBRANCH  19  21
ENDBRANCH  18  19
ENDBRANCH   1  18
TORSDOF 8
ENDMDL
