MODEL 1
REMARK VINA RESULT:      -7.1      0.000      0.000
REMARK  Name = 
REMARK  2 active torsions:
REMARK  status: ('A' for Active; 'I' for Inactive)
REMARK    1  A    between atoms: C_6  and  C_7
REMARK    2  A    between atoms: C_7  and  N_8
REMARK                            x       y       z     vdW  Elec       q    Type
REMARK                         _______ _______ _______ _____ _____    ______ ____
ROOT
ATOM      1  C   UNL     1       3.850   6.120  17.993  0.00  0.00    +0.000 C 
ENDROOT
BRANCH   1   2
ATOM      2  N   UNL     1       2.923   5.204  18.707  0.00  0.00    +0.000 NA
ATOM      3  C   UNL     1       2.239   5.894  19.804  0.00  0.00    +0.000 C 
ATOM      4  C   UNL     1       1.471   5.060  20.835  0.00  0.00    +0.000 C 
ATOM      5  C   UNL     1       2.193   3.803  21.322  0.00  0.00    +0.000 C 
ATOM      6  C   UNL     1       1.659   2.511  20.703  0.00  0.00    +0.000 C 
ATOM      7  C   UNL     1       1.972   2.324  19.218  0.00  0.00    +0.000 C 
ATOM      8  C   UNL     1       1.235   3.297  18.297  0.00  0.00    +0.000 C 
ATOM      9  C   UNL     1       2.081   4.463  17.766  0.00  0.00    +0.000 C 
ENDBRANCH   1   2
BRANCH   1  15
ATOM     10 BR   UNL     1       6.338   4.006  13.708  0.00  0.00    +0.000 Br
ATOM     11  C   UNL     1       6.313   4.545  15.521  0.00  0.00    +0.000 A 
ATOM     12  C   UNL     1       7.453   4.382  16.304  0.00  0.00    +0.000 A 
ATOM     13  C   UNL     1       7.429   4.784  17.638  0.00  0.00    +0.000 A 
ATOM     14  C   UNL     1       6.272   5.346  18.187  0.00  0.00    +0.000 A 
ATOM     15  C   UNL     1       5.115   5.510  17.407  0.00  0.00    +0.000 A 
ATOM     16  C   UNL     1       5.154   5.107  16.061  0.00  0.00    +0.000 A 
ENDBRANCH   1  15
TORSDOF 2
ENDMDL
MODEL 2
REMARK VINA RESULT:      -7.0      3.597      5.191
REMARK  Name = 
REMARK  2 active torsions:
REMARK  status: ('A' for Active; 'I' for Inactive)
REMARK    1  A    between atoms: C_6  and  C_7
REMARK    2  A    between atoms: C_7  and  N_8
REMARK                            x       y       z     vdW  Elec       q    Type
REMARK                         _______ _______ _______ _____ _____    ______ ____
ROOT
ATOM      1  C   UNL     1       3.330   6.164  18.149  0.00  0.00    +0.000 C 
ENDROOT
BRANCH   1   2
ATOM      2  N   UNL     1       2.903   4.877  18.756  0.00  0.00    +0.000 NA
ATOM      3  C   UNL     1       1.825   4.259  17.980  0.00  0.00    +0.000 C 
ATOM      4  C   UNL     1       1.053   3.086  18.595  0.00  0.00    +0.000 C 
ATOM      5  C   UNL     1       0.662   3.263  20.063  0.00  0.00    +0.000 C 
ATOM      6  C   UNL     1       1.540   2.469  21.031  0.00  0.00    +0.000 C 
ATOM      7  C   UNL     1       2.975   2.976  21.173  0.00  0.00    +0.000 C 
ATOM      8  C   UNL     1       3.835   2.775  19.925  0.00  0.00    +0.000 C 
ATOM      9  C   UNL     1       4.056   4.033  19.074  0.00  0.00    +0.000 C 
ENDBRANCH   1   2
BRANCH   1  15
ATOM     10 BR   UNL     1       0.691   8.909  21.959  0.00  0.00    +0.000 Br
ATOM     11  C   UNL     1       1.331   8.713  20.190  0.00  0.00    +0.000 A 
ATOM     12  C   UNL     1       1.075   9.707  19.251  0.00  0.00    +0.000 A 
ATOM     13  C   UNL     1       1.551   9.558  17.949  0.00  0.00    +0.000 A 
ATOM     14  C   UNL     1       2.279   8.420  17.589  0.00  0.00    +0.000 A 
ATOM     15  C   UNL     1       2.539   7.407  18.528  0.00  0.00    +0.000 A 
ATOM     16  C   UNL     1       2.058   7.573  19.839  0.00  0.00    +0.000 A 
ENDBRANCH   1  15
TORSDOF 2
ENDMDL
MODEL 3
REMARK VINA RESULT:      -6.8      1.075      1.768
REMARK  Name = 
REMARK  2 active torsions:
REMARK  status: ('A' for Active; 'I' for Inactive)
REMARK    1  A    between atoms: C_6  and  C_7
REMARK    2  A    between atoms: C_7  and  N_8
REMARK                            x       y       z     vdW  Elec       q    Type
REMARK                         _______ _______ _______ _____ _____    ______ ____
ROOT
ATOM      1  C   UNL     1       3.562   5.643  17.896  0.00  0.00    +0.000 C 
ENDROOT
BRANCH   1   2
ATOM      2  N   UNL     1       3.015   4.500  18.672  0.00  0.00    +0.000 NA
ATOM      3  C   UNL     1       1.978   3.795  17.914  0.00  0.00    +0.000 C 
ATOM      4  C   UNL     1       1.092   2.779  18.645  0.00  0.00    +0.000 C 
ATOM      5  C   UNL     1       0.582   3.228  20.015  0.00  0.00    +0.000 C 
ATOM      6  C   UNL     1       1.327   2.586  21.186  0.00  0.00    +0.000 C 
ATOM      7  C   UNL     1       2.769   3.057  21.377  0.00  0.00    +0.000 C 
ATOM      8  C   UNL     1       3.724   2.605  20.272  0.00  0.00    +0.000 C 
ATOM      9  C   UNL     1       4.088   3.683  19.241  0.00  0.00    +0.000 C 
ENDBRANCH   1   2
BRANCH   1  15
ATOM     10 BR   UNL     1       6.071   3.804  13.498  0.00  0.00    +0.000 Br
ATOM     11  C   UNL     1       6.087   4.612  15.208  0.00  0.00    +0.000 A 
ATOM     12  C   UNL     1       7.297   4.996  15.778  0.00  0.00    +0.000 A 
ATOM     13  C   UNL     1       7.301   5.593  17.037  0.00  0.00    +0.000 A 
ATOM     14  C   UNL     1       6.102   5.805  17.723  0.00  0.00    +0.000 A 
ATOM     15  C   UNL     1       4.875   5.417  17.159  0.00  0.00    +0.000 A 
ATOM     16  C   UNL     1       4.883   4.821  15.886  0.00  0.00    +0.000 A 
ENDBRANCH   1  15
TORSDOF 2
ENDMDL
MODEL 4
REMARK VINA RESULT:      -6.8      1.915      2.066
REMARK  Name = 
REMARK  2 active torsions:
REMARK  status: ('A' for Active; 'I' for Inactive)
REMARK    1  A    between atoms: C_6  and  C_7
REMARK    2  A    between atoms: C_7  and  N_8
REMARK                            x       y       z     vdW  Elec       q    Type
REMARK                         _______ _______ _______ _____ _____    ______ ____
ROOT
ATOM      1  C   UNL     1       3.598   5.498  17.384  0.00  0.00    +0.000 C 
ENDROOT
BRANCH   1   2
ATOM      2  N   UNL     1       2.746   4.828  18.400  0.00  0.00    +0.000 NA
ATOM      3  C   UNL     1       2.267   5.784  19.401  0.00  0.00    +0.000 C 
ATOM      4  C   UNL     1       1.623   5.248  20.685  0.00  0.00    +0.000 C 
ATOM      5  C   UNL     1       2.350   4.069  21.333  0.00  0.00    +0.000 C 
ATOM      6  C   UNL     1       1.670   2.721  21.090  0.00  0.00    +0.000 C 
ATOM      7  C   UNL     1       1.749   2.202  19.654  0.00  0.00    +0.000 C 
ATOM      8  C   UNL     1       0.929   3.015  18.651  0.00  0.00    +0.000 C 
ATOM      9  C   UNL     1       1.740   3.973  17.768  0.00  0.00    +0.000 C 
ENDBRANCH   1   2
BRANCH   1  15
ATOM     10 BR   UNL     1       7.948   8.660  17.693  0.00  0.00    +0.000 Br
ATOM     11  C   UNL     1       7.096   6.980  17.861  0.00  0.00    +0.000 A 
ATOM     12  C   UNL     1       7.833   5.871  18.269  0.00  0.00    +0.000 A 
ATOM     13  C   UNL     1       7.198   4.636  18.394  0.00  0.00    +0.000 A 
ATOM     14  C   UNL     1       5.834   4.511  18.111  0.00  0.00    +0.000 A 
ATOM     15  C   UNL     1       5.083   5.622  17.694  0.00  0.00    +0.000 A 
ATOM     16  C   UNL     1       5.733   6.863  17.578  0.00  0.00    +0.000 A 
ENDBRANCH   1  15
TORSDOF 2
ENDMDL
MODEL 5
REMARK VINA RESULT:      -6.7      3.497      6.065
REMARK  Name = 
REMARK  2 active torsions:
REMARK  status: ('A' for Active; 'I' for Inactive)
REMARK    1  A    between atoms: C_6  and  C_7
REMARK    2  A    between atoms: C_7  and  N_8
REMARK                            x       y       z     vdW  Elec       q    Type
REMARK                         _______ _______ _______ _____ _____    ______ ____
ROOT
ATOM      1  C   UNL     1       3.384   5.726  19.471  0.00  0.00    +0.000 C 
ENDROOT
BRANCH   1   2
ATOM      2  N   UNL     1       4.470   5.366  18.524  0.00  0.00    +0.000 NA
ATOM      3  C   UNL     1       5.757   5.253  19.214  0.00  0.00    +0.000 C 
ATOM      4  C   UNL     1       7.040   5.179  18.378  0.00  0.00    +0.000 C 
ATOM      5  C   UNL     1       7.112   6.164  17.210  0.00  0.00    +0.000 C 
ATOM      6  C   UNL     1       6.848   5.520  15.848  0.00  0.00    +0.000 C 
ATOM      7  C   UNL     1       5.406   5.074  15.608  0.00  0.00    +0.000 C 
ATOM      8  C   UNL     1       4.968   3.889  16.469  0.00  0.00    +0.000 C 
ATOM      9  C   UNL     1       4.079   4.245  17.668  0.00  0.00    +0.000 C 
ENDBRANCH   1   2
BRANCH   1  15
ATOM     10 BR   UNL     1       0.155   9.585  21.395  0.00  0.00    +0.000 Br
ATOM     11  C   UNL     1       1.200   8.823  20.014  0.00  0.00    +0.000 A 
ATOM     12  C   UNL     1       1.293   9.469  18.784  0.00  0.00    +0.000 A 
ATOM     13  C   UNL     1       2.067   8.904  17.772  0.00  0.00    +0.000 A 
ATOM     14  C   UNL     1       2.743   7.700  17.988  0.00  0.00    +0.000 A 
ATOM     15  C   UNL     1       2.652   7.037  19.224  0.00  0.00    +0.000 A 
ATOM     16  C   UNL     1       1.874   7.620  20.238  0.00  0.00    +0.000 A 
ENDBRANCH   1  15
TORSDOF 2
ENDMDL
MODEL 6
REMARK VINA RESULT:      -6.7      1.735      2.088
REMARK  Name = 
REMARK  2 active torsions:
REMARK  status: ('A' for Active; 'I' for Inactive)
REMARK    1  A    between atoms: C_6  and  C_7
REMARK    2  A    between atoms: C_7  and  N_8
REMARK                            x       y       z     vdW  Elec       q    Type
REMARK                         _______ _______ _______ _____ _____    ______ ____
ROOT
ATOM      1  C   UNL     1       3.272   5.464  17.388  0.00  0.00    +0.000 C 
ENDROOT
BRANCH   1   2
ATOM      2  N   UNL     1       2.518   4.787  18.474  0.00  0.00    +0.000 NA
ATOM      3  C   UNL     1       2.105   5.742  19.506  0.00  0.00    +0.000 C 
ATOM      4  C   UNL     1       1.577   5.205  20.841  0.00  0.00    +0.000 C 
ATOM      5  C   UNL     1       2.375   4.043  21.434  0.00  0.00    +0.000 C 
ATOM      6  C   UNL     1       1.700   2.682  21.256  0.00  0.00    +0.000 C 
ATOM      7  C   UNL     1       1.671   2.154  19.821  0.00  0.00    +0.000 C 
ATOM      8  C   UNL     1       0.759   2.945  18.883  0.00  0.00    +0.000 C 
ATOM      9  C   UNL     1       1.478   3.911  17.931  0.00  0.00    +0.000 C 
ENDBRANCH   1   2
BRANCH   1  15
ATOM     10 BR   UNL     1       8.137   5.653  19.693  0.00  0.00    +0.000 Br
ATOM     11  C   UNL     1       6.993   5.210  18.254  0.00  0.00    +0.000 A 
ATOM     12  C   UNL     1       7.521   4.612  17.113  0.00  0.00    +0.000 A 
ATOM     13  C   UNL     1       6.673   4.286  16.056  0.00  0.00    +0.000 A 
ATOM     14  C   UNL     1       5.303   4.556  16.140  0.00  0.00    +0.000 A 
ATOM     15  C   UNL     1       4.761   5.164  17.285  0.00  0.00    +0.000 A 
ATOM     16  C   UNL     1       5.626   5.483  18.346  0.00  0.00    +0.000 A 
ENDBRANCH   1  15
TORSDOF 2
ENDMDL
MODEL 7
REMARK VINA RESULT:      -6.7      1.484      2.664
REMARK  Name = 
REMARK  2 active torsions:
REMARK  status: ('A' for Active; 'I' for Inactive)
REMARK    1  A    between atoms: C_6  and  C_7
REMARK    2  A    between atoms: C_7  and  N_8
REMARK                            x       y       z     vdW  Elec       q    Type
REMARK                         _______ _______ _______ _____ _____    ______ ____
ROOT
ATOM      1  C   UNL     1       5.267   3.746  18.718  0.00  0.00    +0.000 C 
ENDROOT
BRANCH   1   2
ATOM      2  N   UNL     1       3.937   3.286  19.193  0.00  0.00    +0.000 NA
ATOM      3  C   UNL     1       3.328   2.355  18.240  0.00  0.00    +0.000 C 
ATOM      4  C   UNL     1       1.845   1.998  18.401  0.00  0.00    +0.000 C 
ATOM      5  C   UNL     1       0.922   3.179  18.705  0.00  0.00    +0.000 C 
ATOM      6  C   UNL     1       0.490   3.257  20.170  0.00  0.00    +0.000 C 
ATOM      7  C   UNL     1       1.594   3.645  21.154  0.00  0.00    +0.000 C 
ATOM      8  C   UNL     1       2.676   2.579  21.330  0.00  0.00    +0.000 C 
ATOM      9  C   UNL     1       3.993   2.856  20.592  0.00  0.00    +0.000 C 
ENDBRANCH   1   2
BRANCH   1  15
ATOM     10 BR   UNL     1       6.214   3.895  13.417  0.00  0.00    +0.000 Br
ATOM     11  C   UNL     1       5.706   4.720  15.041  0.00  0.00    +0.000 A 
ATOM     12  C   UNL     1       5.367   6.070  15.052  0.00  0.00    +0.000 A 
ATOM     13  C   UNL     1       4.991   6.672  16.252  0.00  0.00    +0.000 A 
ATOM     14  C   UNL     1       4.956   5.928  17.435  0.00  0.00    +0.000 A 
ATOM     15  C   UNL     1       5.302   4.566  17.437  0.00  0.00    +0.000 A 
ATOM     16  C   UNL     1       5.672   3.970  16.219  0.00  0.00    +0.000 A 
ENDBRANCH   1  15
TORSDOF 2
ENDMDL
MODEL 8
REMARK VINA RESULT:      -6.6      0.913      1.969
REMARK  Name = 
REMARK  2 active torsions:
REMARK  status: ('A' for Active; 'I' for Inactive)
REMARK    1  A    between atoms: C_6  and  C_7
REMARK    2  A    between atoms: C_7  and  N_8
REMARK                            x       y       z     vdW  Elec       q    Type
REMARK                         _______ _______ _______ _____ _____    ______ ____
ROOT
ATOM      1  C   UNL     1       3.700   5.768  17.498  0.00  0.00    +0.000 C 
ENDROOT
BRANCH   1   2
ATOM      2  N   UNL     1       3.058   4.782  18.405  0.00  0.00    +0.000 NA
ATOM      3  C   UNL     1       3.398   3.410  18.020  0.00  0.00    +0.000 C 
ATOM      4  C   UNL     1       2.609   2.252  18.642  0.00  0.00    +0.000 C 
ATOM      5  C   UNL     1       1.096   2.460  18.712  0.00  0.00    +0.000 C 
ATOM      6  C   UNL     1       0.591   2.822  20.110  0.00  0.00    +0.000 C 
ATOM      7  C   UNL     1       0.978   4.217  20.600  0.00  0.00    +0.000 C 
ATOM      8  C   UNL     1       2.471   4.386  20.885  0.00  0.00    +0.000 C 
ATOM      9  C   UNL     1       3.261   5.144  19.809  0.00  0.00    +0.000 C 
ENDBRANCH   1   2
BRANCH   1  15
ATOM     10 BR   UNL     1       6.161   3.795  13.131  0.00  0.00    +0.000 Br
ATOM     11  C   UNL     1       6.192   4.468  14.898  0.00  0.00    +0.000 A 
ATOM     12  C   UNL     1       7.405   4.579  15.572  0.00  0.00    +0.000 A 
ATOM     13  C   UNL     1       7.422   5.079  16.873  0.00  0.00    +0.000 A 
ATOM     14  C   UNL     1       6.232   5.464  17.497  0.00  0.00    +0.000 A 
ATOM     15  C   UNL     1       5.002   5.351  16.829  0.00  0.00    +0.000 A 
ATOM     16  C   UNL     1       4.999   4.852  15.515  0.00  0.00    +0.000 A 
ENDBRANCH   1  15
TORSDOF 2
ENDMDL
MODEL 9
REMARK VINA RESULT:      -6.5      1.823      2.471
REMARK  Name = 
REMARK  2 active torsions:
REMARK  status: ('A' for Active; 'I' for Inactive)
REMARK    1  A    between atoms: C_6  and  C_7
REMARK    2  A    between atoms: C_7  and  N_8
REMARK                            x       y       z     vdW  Elec       q    Type
REMARK                         _______ _______ _______ _____ _____    ______ ____
ROOT
ATOM      1  C   UNL     1       3.640   3.195  16.808  0.00  0.00    +0.000 C 
ENDROOT
BRANCH   1   2
ATOM      2  N   UNL     1       2.837   3.465  18.028  0.00  0.00    +0.000 NA
ATOM      3  C   UNL     1       2.384   4.858  18.065  0.00  0.00    +0.000 C 
ATOM      4  C   UNL     1       1.797   5.409  19.369  0.00  0.00    +0.000 C 
ATOM      5  C   UNL     1       2.563   5.031  20.638  0.00  0.00    +0.000 C 
ATOM      6  C   UNL     1       1.890   3.926  21.453  0.00  0.00    +0.000 C 
ATOM      7  C   UNL     1       1.920   2.537  20.814  0.00  0.00    +0.000 C 
ATOM      8  C   UNL     1       1.053   2.407  19.562  0.00  0.00    +0.000 C 
ATOM      9  C   UNL     1       1.817   2.434  18.231  0.00  0.00    +0.000 C 
ENDBRANCH   1   2
BRANCH   1  15
ATOM     10 BR   UNL     1       7.774   5.797  19.079  0.00  0.00    +0.000 Br
ATOM     11  C   UNL     1       6.811   5.204  17.564  0.00  0.00    +0.000 A 
ATOM     12  C   UNL     1       7.273   5.515  16.288  0.00  0.00    +0.000 A 
ATOM     13  C   UNL     1       6.560   5.073  15.175  0.00  0.00    +0.000 A 
ATOM     14  C   UNL     1       5.391   4.324  15.337  0.00  0.00    +0.000 A 
ATOM     15  C   UNL     1       4.912   4.009  16.619  0.00  0.00    +0.000 A 
ATOM     16  C   UNL     1       5.643   4.455  17.733  0.00  0.00    +0.000 A 
ENDBRANCH   1  15
TORSDOF 2
ENDMDL
