MODEL 1
REMARK VINA RESULT:      -6.5      0.000      0.000
REMARK  Name = 
REMARK  8 active torsions:
REMARK  status: ('A' for Active; 'I' for Inactive)
REMARK    1  A    between atoms: C_1  and  C_2
REMARK    2  A    between atoms: C_2  and  C_3
REMARK    3  A    between atoms: C_2  and  N_4
REMARK    4  A    between atoms: N_4  and  C_5
REMARK    5  A    between atoms: C_5  and  C_6
REMARK    6  A    between atoms: C_6  and  O_7
REMARK    7  A    between atoms: C_8  and  C_10
REMARK    8  A    between atoms: N_21  and  C_22
REMARK                            x       y       z     vdW  Elec       q    Type
REMARK                         _______ _______ _______ _____ _____    ______ ____
ROOT
ATOM      1  C   UNL     1      -3.365  13.616  23.204  0.00  0.00    +0.000 C 
ATOM      2  C   UNL     1      -2.251  12.551  23.301  0.00  0.00    +0.000 C 
ATOM      3  C   UNL     1      -1.555  12.273  21.962  0.00  0.00    +0.000 C 
ATOM      4  C   UNL     1      -2.530  12.130  20.834  0.00  0.00    +0.000 A 
ATOM      5  C   UNL     1      -3.858  12.499  21.007  0.00  0.00    +0.000 A 
ATOM      6  S   UNL     1      -4.764  12.363  19.584  0.00  0.00    +0.000 S 
ATOM      7  C   UNL     1      -3.409  11.822  18.705  0.00  0.00    +0.000 A 
ATOM      8  N   UNL     1      -3.546  11.564  17.396  0.00  0.00    +0.000 NA
ATOM      9  C   UNL     1      -2.418  11.144  16.841  0.00  0.00    +0.000 A 
ATOM     10  N   UNL     1      -1.250  10.924  17.456  0.00  0.00    +0.000 NA
ATOM     11  C   UNL     1      -1.125  11.147  18.791  0.00  0.00    +0.000 A 
ATOM     12  N   UNL     1       0.105  10.829  19.412  0.00  0.00    +0.000 N 
ATOM     13  C   UNL     1      -2.256  11.682  19.477  0.00  0.00    +0.000 A 
ATOM     14  C   UNL     1      -4.474  13.008  22.291  0.00  0.00    +0.000 C 
ATOM     15  H   UNL     1       0.155  11.133  20.371  0.00  0.00    +0.000 HD
ENDROOT
BRANCH  12  16
ATOM     16  C   UNL     1       0.978   9.739  19.143  0.00  0.00    +0.000 A 
ATOM     17  C   UNL     1       1.781   9.659  17.982  0.00  0.00    +0.000 A 
ATOM     18  C   UNL     1       2.546   8.526  17.677  0.00  0.00    +0.000 A 
ATOM     19  C   UNL     1       2.526   7.478  18.569  0.00  0.00    +0.000 A 
ATOM     20  N   UNL     1       3.144   6.243  18.372  0.00  0.00    +0.000 N 
ATOM     21  C   UNL     1       2.971   5.330  19.383  0.00  0.00    +0.000 A 
ATOM     22  O   UNL     1       3.381   4.178  19.390  0.00  0.00    +0.000 OA
ATOM     23  S   UNL     1       2.022   6.063  20.692  0.00  0.00    +0.000 S 
ATOM     24  C   UNL     1       1.832   7.567  19.770  0.00  0.00    +0.000 A 
ATOM     25  C   UNL     1       1.071   8.691  20.078  0.00  0.00    +0.000 A 
ATOM     26  H   UNL     1       3.630   5.987  17.529  0.00  0.00    +0.000 HD
ENDBRANCH  12  16
BRANCH   1  28
ATOM     27  N   UNL     1      -2.067  15.846  23.281  0.00  0.00    +0.000 N 
ATOM     28  C   UNL     1      -3.015  15.025  22.662  0.00  0.00    +0.000 C 
ATOM     29  O   UNL     1      -3.657  15.453  21.696  0.00  0.00    +0.000 OA
BRANCH  27  31
ATOM     30  C   UNL     1      -1.581  18.306  23.700  0.00  0.00    +0.000 C 
ATOM     31  C   UNL     1      -1.815  17.183  22.677  0.00  0.00    +0.000 C 
ATOM     32  C   UNL     1      -0.670  17.137  21.659  0.00  0.00    +0.000 C 
ENDBRANCH  27  31
BRANCH  27  33
ATOM     33  C   UNL     1      -1.280  15.417  24.452  0.00  0.00    +0.000 C 
BRANCH  33  34
ATOM     34  C   UNL     1      -1.920  15.408  25.849  0.00  0.00    +0.000 C 
BRANCH  34  35
ATOM     35  O   UNL     1      -1.044  15.949  26.827  0.00  0.00    +0.000 OA
ATOM     36  H   UNL     1      -0.577  15.207  27.248  0.00  0.00    +0.000 HD
ENDBRANCH  34  35
ENDBRANCH  33  34
ENDBRANCH  27  33
ENDBRANCH   1  28
TORSDOF 6
ENDMDL
MODEL 2
REMARK VINA RESULT:      -6.5      2.057      2.472
REMARK  Name = 
REMARK  8 active torsions:
REMARK  status: ('A' for Active; 'I' for Inactive)
REMARK    1  A    between atoms: C_1  and  C_2
REMARK    2  A    between atoms: C_2  and  C_3
REMARK    3  A    between atoms: C_2  and  N_4
REMARK    4  A    between atoms: N_4  and  C_5
REMARK    5  A    between atoms: C_5  and  C_6
REMARK    6  A    between atoms: C_6  and  O_7
REMARK    7  A    between atoms: C_8  and  C_10
REMARK    8  A    between atoms: N_21  and  C_22
REMARK                            x       y       z     vdW  Elec       q    Type
REMARK                         _______ _______ _______ _____ _____    ______ ____
ROOT
ATOM      1  C   UNL     1      -1.795  14.395  22.293  0.00  0.00    +0.000 C 
ATOM      2  C   UNL     1      -0.825  13.242  22.632  0.00  0.00    +0.000 C 
ATOM      3  C   UNL     1      -0.359  12.456  21.400  0.00  0.00    +0.000 C 
ATOM      4  C   UNL     1      -1.488  12.138  20.468  0.00  0.00    +0.000 A 
ATOM      5  C   UNL     1      -2.721  12.757  20.627  0.00  0.00    +0.000 A 
ATOM      6  S   UNL     1      -3.821  12.345  19.409  0.00  0.00    +0.000 S 
ATOM      7  C   UNL     1      -2.679  11.344  18.638  0.00  0.00    +0.000 A 
ATOM      8  N   UNL     1      -3.024  10.723  17.500  0.00  0.00    +0.000 NA
ATOM      9  C   UNL     1      -2.045   9.972  17.015  0.00  0.00    +0.000 A 
ATOM     10  N   UNL     1      -0.844   9.761  17.564  0.00  0.00    +0.000 NA
ATOM     11  C   UNL     1      -0.511  10.358  18.738  0.00  0.00    +0.000 A 
ATOM     12  N   UNL     1       0.739  10.045  19.319  0.00  0.00    +0.000 N 
ATOM     13  C   UNL     1      -1.460  11.257  19.310  0.00  0.00    +0.000 A 
ATOM     14  C   UNL     1      -3.086  13.730  21.726  0.00  0.00    +0.000 C 
ATOM     15  H   UNL     1       0.957  10.616  20.120  0.00  0.00    +0.000 HD
ENDROOT
BRANCH  12  16
ATOM     16  C   UNL     1       1.419   8.797  19.342  0.00  0.00    +0.000 A 
ATOM     17  C   UNL     1       1.283   7.859  20.391  0.00  0.00    +0.000 A 
ATOM     18  C   UNL     1       2.048   6.688  20.454  0.00  0.00    +0.000 A 
ATOM     19  C   UNL     1       2.936   6.445  19.430  0.00  0.00    +0.000 A 
ATOM     20  N   UNL     1       3.842   5.386  19.388  0.00  0.00    +0.000 N 
ATOM     21  C   UNL     1       4.656   5.351  18.283  0.00  0.00    +0.000 A 
ATOM     22  O   UNL     1       5.549   4.543  18.072  0.00  0.00    +0.000 OA
ATOM     23  S   UNL     1       4.239   6.690  17.193  0.00  0.00    +0.000 S 
ATOM     24  C   UNL     1       3.018   7.292  18.332  0.00  0.00    +0.000 A 
ATOM     25  C   UNL     1       2.259   8.457  18.264  0.00  0.00    +0.000 A 
ATOM     26  H   UNL     1       3.962   4.719  20.132  0.00  0.00    +0.000 HD
ENDBRANCH  12  16
BRANCH   1  28
ATOM     27  N   UNL     1      -0.216  16.289  21.529  0.00  0.00    +0.000 N 
ATOM     28  C   UNL     1      -1.341  15.492  21.297  0.00  0.00    +0.000 C 
ATOM     29  O   UNL     1      -2.050  15.708  20.307  0.00  0.00    +0.000 OA
BRANCH  27  31
ATOM     30  C   UNL     1       0.679  18.627  21.085  0.00  0.00    +0.000 C 
ATOM     31  C   UNL     1       0.123  17.316  20.507  0.00  0.00    +0.000 C 
ATOM     32  C   UNL     1       1.068  16.759  19.436  0.00  0.00    +0.000 C 
ENDBRANCH  27  31
BRANCH  27  33
ATOM     33  C   UNL     1       0.663  16.111  22.700  0.00  0.00    +0.000 C 
BRANCH  33  34
ATOM     34  C   UNL     1       2.158  15.816  22.503  0.00  0.00    +0.000 C 
BRANCH  34  35
ATOM     35  O   UNL     1       2.373  14.479  22.076  0.00  0.00    +0.000 OA
ATOM     36  H   UNL     1       3.245  14.442  21.649  0.00  0.00    +0.000 HD
ENDBRANCH  34  35
ENDBRANCH  33  34
ENDBRANCH  27  33
ENDBRANCH   1  28
TORSDOF 6
ENDMDL
MODEL 3
REMARK VINA RESULT:      -6.2      1.789      2.086
REMARK  Name = 
REMARK  8 active torsions:
REMARK  status: ('A' for Active; 'I' for Inactive)
REMARK    1  A    between atoms: C_1  and  C_2
REMARK    2  A    between atoms: C_2  and  C_3
REMARK    3  A    between atoms: C_2  and  N_4
REMARK    4  A    between atoms: N_4  and  C_5
REMARK    5  A    between atoms: C_5  and  C_6
REMARK    6  A    between atoms: C_6  and  O_7
REMARK    7  A    between atoms: C_8  and  C_10
REMARK    8  A    between atoms: N_21  and  C_22
REMARK                            x       y       z     vdW  Elec       q    Type
REMARK                         _______ _______ _______ _____ _____    ______ ____
ROOT
ATOM      1  C   UNL     1      -1.868  14.351  22.464  0.00  0.00    +0.000 C 
ATOM      2  C   UNL     1      -0.786  13.264  22.652  0.00  0.00    +0.000 C 
ATOM      3  C   UNL     1      -0.379  12.578  21.342  0.00  0.00    +0.000 C 
ATOM      4  C   UNL     1      -1.562  12.216  20.497  0.00  0.00    +0.000 A 
ATOM      5  C   UNL     1      -2.818  12.726  20.799  0.00  0.00    +0.000 A 
ATOM      6  S   UNL     1      -3.992  12.285  19.662  0.00  0.00    +0.000 S 
ATOM      7  C   UNL     1      -2.854  11.417  18.739  0.00  0.00    +0.000 A 
ATOM      8  N   UNL     1      -3.255  10.827  17.604  0.00  0.00    +0.000 NA
ATOM      9  C   UNL     1      -2.272  10.180  16.993  0.00  0.00    +0.000 A 
ATOM     10  N   UNL     1      -1.012  10.040  17.421  0.00  0.00    +0.000 NA
ATOM     11  C   UNL     1      -0.618  10.604  18.593  0.00  0.00    +0.000 A 
ATOM     12  N   UNL     1       0.701  10.366  19.042  0.00  0.00    +0.000 N 
ATOM     13  C   UNL     1      -1.575  11.397  19.295  0.00  0.00    +0.000 A 
ATOM     14  C   UNL     1      -3.152  13.612  21.978  0.00  0.00    +0.000 C 
ATOM     15  H   UNL     1       0.948  10.913  19.851  0.00  0.00    +0.000 HD
ENDROOT
BRANCH  12  16
ATOM     16  C   UNL     1       1.472   9.176  18.936  0.00  0.00    +0.000 A 
ATOM     17  C   UNL     1       2.390   8.939  17.887  0.00  0.00    +0.000 A 
ATOM     18  C   UNL     1       3.054   7.715  17.734  0.00  0.00    +0.000 A 
ATOM     19  C   UNL     1       2.814   6.733  18.668  0.00  0.00    +0.000 A 
ATOM     20  N   UNL     1       3.308   5.431  18.609  0.00  0.00    +0.000 N 
ATOM     21  C   UNL     1       2.919   4.606  19.635  0.00  0.00    +0.000 A 
ATOM     22  O   UNL     1       3.195   3.420  19.750  0.00  0.00    +0.000 OA
ATOM     23  S   UNL     1       1.913   5.515  20.781  0.00  0.00    +0.000 S 
ATOM     24  C   UNL     1       2.000   6.970  19.769  0.00  0.00    +0.000 A 
ATOM     25  C   UNL     1       1.339   8.184  19.926  0.00  0.00    +0.000 A 
ATOM     26  H   UNL     1       3.857   5.072  17.845  0.00  0.00    +0.000 HD
ENDBRANCH  12  16
BRANCH   1  28
ATOM     27  N   UNL     1      -0.416  16.281  21.553  0.00  0.00    +0.000 N 
ATOM     28  C   UNL     1      -1.592  15.527  21.493  0.00  0.00    +0.000 C 
ATOM     29  O   UNL     1      -2.483  15.844  20.697  0.00  0.00    +0.000 OA
BRANCH  27  31
ATOM     30  C   UNL     1       0.460  18.631  21.130  0.00  0.00    +0.000 C 
ATOM     31  C   UNL     1      -0.261  17.392  20.575  0.00  0.00    +0.000 C 
ATOM     32  C   UNL     1       0.410  16.917  19.280  0.00  0.00    +0.000 C 
ENDBRANCH  27  31
BRANCH  27  33
ATOM     33  C   UNL     1       0.679  15.982  22.493  0.00  0.00    +0.000 C 
BRANCH  33  34
ATOM     34  C   UNL     1       2.117  15.819  21.975  0.00  0.00    +0.000 C 
BRANCH  34  35
ATOM     35  O   UNL     1       2.304  14.557  21.350  0.00  0.00    +0.000 OA
ATOM     36  H   UNL     1       3.075  14.134  21.765  0.00  0.00    +0.000 HD
ENDBRANCH  34  35
ENDBRANCH  33  34
ENDBRANCH  27  33
ENDBRANCH   1  28
TORSDOF 6
ENDMDL
MODEL 4
REMARK VINA RESULT:      -6.1      4.877      6.152
REMARK  Name = 
REMARK  8 active torsions:
REMARK  status: ('A' for Active; 'I' for Inactive)
REMARK    1  A    between atoms: C_1  and  C_2
REMARK    2  A    between atoms: C_2  and  C_3
REMARK    3  A    between atoms: C_2  and  N_4
REMARK    4  A    between atoms: N_4  and  C_5
REMARK    5  A    between atoms: C_5  and  C_6
REMARK    6  A    between atoms: C_6  and  O_7
REMARK    7  A    between atoms: C_8  and  C_10
REMARK    8  A    between atoms: N_21  and  C_22
REMARK                            x       y       z     vdW  Elec       q    Type
REMARK                         _______ _______ _______ _____ _____    ______ ____
ROOT
ATOM      1  C   UNL     1      -2.207  12.578  23.161  0.00  0.00    +0.000 C 
ATOM      2  C   UNL     1      -1.057  13.606  23.088  0.00  0.00    +0.000 C 
ATOM      3  C   UNL     1      -0.319  13.601  21.743  0.00  0.00    +0.000 C 
ATOM      4  C   UNL     1      -0.018  12.213  21.265  0.00  0.00    +0.000 A 
ATOM      5  C   UNL     1      -0.615  11.119  21.876  0.00  0.00    +0.000 A 
ATOM      6  S   UNL     1      -0.229   9.656  21.117  0.00  0.00    +0.000 S 
ATOM      7  C   UNL     1       0.730  10.448  19.953  0.00  0.00    +0.000 A 
ATOM      8  N   UNL     1       1.315   9.719  18.991  0.00  0.00    +0.000 NA
ATOM      9  C   UNL     1       2.037  10.460  18.161  0.00  0.00    +0.000 A 
ATOM     10  N   UNL     1       2.250  11.778  18.237  0.00  0.00    +0.000 NA
ATOM     11  C   UNL     1       1.689  12.508  19.236  0.00  0.00    +0.000 A 
ATOM     12  N   UNL     1       2.004  13.884  19.320  0.00  0.00    +0.000 N 
ATOM     13  C   UNL     1       0.822  11.826  20.142  0.00  0.00    +0.000 A 
ATOM     14  C   UNL     1      -1.544  11.169  23.068  0.00  0.00    +0.000 C 
ATOM     15  H   UNL     1       1.458  14.374  20.011  0.00  0.00    +0.000 HD
ENDROOT
BRANCH  12  16
ATOM     16  C   UNL     1       3.244  14.528  19.053  0.00  0.00    +0.000 A 
ATOM     17  C   UNL     1       3.564  15.103  17.802  0.00  0.00    +0.000 A 
ATOM     18  C   UNL     1       4.831  15.628  17.521  0.00  0.00    +0.000 A 
ATOM     19  C   UNL     1       5.774  15.604  18.524  0.00  0.00    +0.000 A 
ATOM     20  N   UNL     1       7.106  15.989  18.383  0.00  0.00    +0.000 N 
ATOM     21  C   UNL     1       7.880  15.855  19.509  0.00  0.00    +0.000 A 
ATOM     22  O   UNL     1       9.078  16.085  19.591  0.00  0.00    +0.000 OA
ATOM     23  S   UNL     1       6.882  15.260  20.851  0.00  0.00    +0.000 S 
ATOM     24  C   UNL     1       5.459  15.143  19.797  0.00  0.00    +0.000 A 
ATOM     25  C   UNL     1       4.201  14.620  20.081  0.00  0.00    +0.000 A 
ATOM     26  H   UNL     1       7.517  16.283  17.512  0.00  0.00    +0.000 HD
ENDBRANCH  12  16
BRANCH   1  28
ATOM     27  N   UNL     1      -4.629  13.094  22.429  0.00  0.00    +0.000 N 
ATOM     28  C   UNL     1      -3.343  12.645  22.108  0.00  0.00    +0.000 C 
ATOM     29  O   UNL     1      -3.111  12.213  20.974  0.00  0.00    +0.000 OA
BRANCH  27  31
ATOM     30  C   UNL     1      -7.039  12.629  21.767  0.00  0.00    +0.000 C 
ATOM     31  C   UNL     1      -5.643  13.109  21.340  0.00  0.00    +0.000 C 
ATOM     32  C   UNL     1      -5.731  14.485  20.668  0.00  0.00    +0.000 C 
ENDBRANCH  27  31
BRANCH  27  33
ATOM     33  C   UNL     1      -4.990  13.597  23.767  0.00  0.00    +0.000 C 
BRANCH  33  34
ATOM     34  C   UNL     1      -4.713  15.062  24.140  0.00  0.00    +0.000 C 
BRANCH  34  35
ATOM     35  O   UNL     1      -5.917  15.772  24.390  0.00  0.00    +0.000 OA
ATOM     36  H   UNL     1      -6.571  15.135  24.725  0.00  0.00    +0.000 HD
ENDBRANCH  34  35
ENDBRANCH  33  34
ENDBRANCH  27  33
ENDBRANCH   1  28
TORSDOF 6
ENDMDL
MODEL 5
REMARK VINA RESULT:      -6.1      2.327      3.063
REMARK  Name = 
REMARK  8 active torsions:
REMARK  status: ('A' for Active; 'I' for Inactive)
REMARK    1  A    between atoms: C_1  and  C_2
REMARK    2  A    between atoms: C_2  and  C_3
REMARK    3  A    between atoms: C_2  and  N_4
REMARK    4  A    between atoms: N_4  and  C_5
REMARK    5  A    between atoms: C_5  and  C_6
REMARK    6  A    between atoms: C_6  and  O_7
REMARK    7  A    between atoms: C_8  and  C_10
REMARK    8  A    between atoms: N_21  and  C_22
REMARK                            x       y       z     vdW  Elec       q    Type
REMARK                         _______ _______ _______ _____ _____    ______ ____
ROOT
ATOM      1  C   UNL     1       0.073  15.074  21.147  0.00  0.00    +0.000 C 
ATOM      2  C   UNL     1       1.096  13.942  21.379  0.00  0.00    +0.000 C 
ATOM      3  C   UNL     1       1.103  12.888  20.265  0.00  0.00    +0.000 C 
ATOM      4  C   UNL     1      -0.281  12.476  19.864  0.00  0.00    +0.000 A 
ATOM      5  C   UNL     1      -1.379  13.209  20.293  0.00  0.00    +0.000 A 
ATOM      6  S   UNL     1      -2.836  12.645  19.640  0.00  0.00    +0.000 S 
ATOM      7  C   UNL     1      -2.036  11.422  18.765  0.00  0.00    +0.000 A 
ATOM      8  N   UNL     1      -2.758  10.613  17.975  0.00  0.00    +0.000 NA
ATOM      9  C   UNL     1      -2.010   9.704  17.363  0.00  0.00    +0.000 A 
ATOM     10  N   UNL     1      -0.694   9.516  17.504  0.00  0.00    +0.000 NA
ATOM     11  C   UNL     1       0.028  10.311  18.337  0.00  0.00    +0.000 A 
ATOM     12  N   UNL     1       1.402  10.026  18.513  0.00  0.00    +0.000 N 
ATOM     13  C   UNL     1      -0.660  11.379  18.986  0.00  0.00    +0.000 A 
ATOM     14  C   UNL     1      -1.338  14.410  21.210  0.00  0.00    +0.000 C 
ATOM     15  H   UNL     1       1.886  10.729  19.048  0.00  0.00    +0.000 HD
ENDROOT
BRANCH  12  16
ATOM     16  C   UNL     1       2.044   8.759  18.575  0.00  0.00    +0.000 A 
ATOM     17  C   UNL     1       2.997   8.326  17.625  0.00  0.00    +0.000 A 
ATOM     18  C   UNL     1       3.532   7.031  17.635  0.00  0.00    +0.000 A 
ATOM     19  C   UNL     1       3.125   6.177  18.635  0.00  0.00    +0.000 A 
ATOM     20  N   UNL     1       3.477   4.831  18.733  0.00  0.00    +0.000 N 
ATOM     21  C   UNL     1       2.932   4.156  19.798  0.00  0.00    +0.000 A 
ATOM     22  O   UNL     1       3.069   2.966  20.041  0.00  0.00    +0.000 OA
ATOM     23  S   UNL     1       1.958   5.273  20.776  0.00  0.00    +0.000 S 
ATOM     24  C   UNL     1       2.271   6.604  19.645  0.00  0.00    +0.000 A 
ATOM     25  C   UNL     1       1.737   7.889  19.639  0.00  0.00    +0.000 A 
ATOM     26  H   UNL     1       4.032   4.344  18.049  0.00  0.00    +0.000 HD
ENDBRANCH  12  16
BRANCH   1  28
ATOM     27  N   UNL     1      -0.602  17.067  19.652  0.00  0.00    +0.000 N 
ATOM     28  C   UNL     1       0.154  15.906  19.842  0.00  0.00    +0.000 C 
ATOM     29  O   UNL     1       0.857  15.476  18.921  0.00  0.00    +0.000 OA
BRANCH  27  31
ATOM     30  C   UNL     1      -1.665  18.631  17.952  0.00  0.00    +0.000 C 
ATOM     31  C   UNL     1      -0.448  17.783  18.356  0.00  0.00    +0.000 C 
ATOM     32  C   UNL     1       0.829  18.631  18.326  0.00  0.00    +0.000 C 
ENDBRANCH  27  31
BRANCH  27  33
ATOM     33  C   UNL     1      -1.483  17.628  20.693  0.00  0.00    +0.000 C 
BRANCH  33  34
ATOM     34  C   UNL     1      -0.897  18.515  21.802  0.00  0.00    +0.000 C 
BRANCH  34  35
ATOM     35  O   UNL     1      -1.034  17.908  23.080  0.00  0.00    +0.000 OA
ATOM     36  H   UNL     1      -0.225  18.098  23.584  0.00  0.00    +0.000 HD
ENDBRANCH  34  35
ENDBRANCH  33  34
ENDBRANCH  27  33
ENDBRANCH   1  28
TORSDOF 6
ENDMDL
MODEL 6
REMARK VINA RESULT:      -6.0      2.482      3.106
REMARK  Name = 
REMARK  8 active torsions:
REMARK  status: ('A' for Active; 'I' for Inactive)
REMARK    1  A    between atoms: C_1  and  C_2
REMARK    2  A    between atoms: C_2  and  C_3
REMARK    3  A    between atoms: C_2  and  N_4
REMARK    4  A    between atoms: N_4  and  C_5
REMARK    5  A    between atoms: C_5  and  C_6
REMARK    6  A    between atoms: C_6  and  O_7
REMARK    7  A    between atoms: C_8  and  C_10
REMARK    8  A    between atoms: N_21  and  C_22
REMARK                            x       y       z     vdW  Elec       q    Type
REMARK                         _______ _______ _______ _____ _____    ______ ____
ROOT
ATOM      1  C   UNL     1      -0.531  14.444  21.708  0.00  0.00    +0.000 C 
ATOM      2  C   UNL     1       0.474  13.299  21.957  0.00  0.00    +0.000 C 
ATOM      3  C   UNL     1       0.695  12.404  20.731  0.00  0.00    +0.000 C 
ATOM      4  C   UNL     1      -0.591  12.039  20.054  0.00  0.00    +0.000 A 
ATOM      5  C   UNL     1      -1.766  12.700  20.386  0.00  0.00    +0.000 A 
ATOM      6  S   UNL     1      -3.078  12.217  19.431  0.00  0.00    +0.000 S 
ATOM      7  C   UNL     1      -2.109  11.129  18.549  0.00  0.00    +0.000 A 
ATOM      8  N   UNL     1      -2.666  10.427  17.551  0.00  0.00    +0.000 NA
ATOM      9  C   UNL     1      -1.801   9.615  16.958  0.00  0.00    +0.000 A 
ATOM     10  N   UNL     1      -0.521   9.420  17.292  0.00  0.00    +0.000 NA
ATOM     11  C   UNL     1       0.030  10.101  18.330  0.00  0.00    +0.000 A 
ATOM     12  N   UNL     1       1.364   9.806  18.694  0.00  0.00    +0.000 N 
ATOM     13  C   UNL     1      -0.787  11.067  18.989  0.00  0.00    +0.000 A 
ATOM     14  C   UNL     1      -1.912  13.767  21.447  0.00  0.00    +0.000 C 
ATOM     15  H   UNL     1       1.733  10.434  19.390  0.00  0.00    +0.000 HD
ENDROOT
BRANCH  12  16
ATOM     16  C   UNL     1       2.025   8.547  18.696  0.00  0.00    +0.000 A 
ATOM     17  C   UNL     1       2.961   8.162  17.709  0.00  0.00    +0.000 A 
ATOM     18  C   UNL     1       3.514   6.876  17.660  0.00  0.00    +0.000 A 
ATOM     19  C   UNL     1       3.143   5.980  18.638  0.00  0.00    +0.000 A 
ATOM     20  N   UNL     1       3.516   4.638  18.680  0.00  0.00    +0.000 N 
ATOM     21  C   UNL     1       3.007   3.918  19.733  0.00  0.00    +0.000 A 
ATOM     22  O   UNL     1       3.166   2.722  19.931  0.00  0.00    +0.000 OA
ATOM     23  S   UNL     1       2.041   4.985  20.773  0.00  0.00    +0.000 S 
ATOM     24  C   UNL     1       2.308   6.360  19.683  0.00  0.00    +0.000 A 
ATOM     25  C   UNL     1       1.757   7.636  19.735  0.00  0.00    +0.000 A 
ATOM     26  H   UNL     1       4.061   4.183  17.967  0.00  0.00    +0.000 HD
ENDBRANCH  12  16
BRANCH   1  28
ATOM     27  N   UNL     1       0.868  16.270  20.536  0.00  0.00    +0.000 N 
ATOM     28  C   UNL     1      -0.261  15.445  20.555  0.00  0.00    +0.000 C 
ATOM     29  O   UNL     1      -1.118  15.560  19.672  0.00  0.00    +0.000 OA
BRANCH  27  31
ATOM     30  C   UNL     1       1.424  18.630  19.770  0.00  0.00    +0.000 C 
ATOM     31  C   UNL     1       1.022  17.198  19.382  0.00  0.00    +0.000 C 
ATOM     32  C   UNL     1       1.985  16.637  18.329  0.00  0.00    +0.000 C 
ENDBRANCH  27  31
BRANCH  27  33
ATOM     33  C   UNL     1       1.920  16.211  21.567  0.00  0.00    +0.000 C 
BRANCH  33  34
ATOM     34  C   UNL     1       3.367  15.877  21.174  0.00  0.00    +0.000 C 
BRANCH  34  35
ATOM     35  O   UNL     1       3.534  14.487  20.934  0.00  0.00    +0.000 OA
ATOM     36  H   UNL     1       3.522  14.036  21.795  0.00  0.00    +0.000 HD
ENDBRANCH  34  35
ENDBRANCH  33  34
ENDBRANCH  27  33
ENDBRANCH   1  28
TORSDOF 6
ENDMDL
MODEL 7
REMARK VINA RESULT:      -6.0      1.868      2.252
REMARK  Name = 
REMARK  8 active torsions:
REMARK  status: ('A' for Active; 'I' for Inactive)
REMARK    1  A    between atoms: C_1  and  C_2
REMARK    2  A    between atoms: C_2  and  C_3
REMARK    3  A    between atoms: C_2  and  N_4
REMARK    4  A    between atoms: N_4  and  C_5
REMARK    5  A    between atoms: C_5  and  C_6
REMARK    6  A    between atoms: C_6  and  O_7
REMARK    7  A    between atoms: C_8  and  C_10
REMARK    8  A    between atoms: N_21  and  C_22
REMARK                            x       y       z     vdW  Elec       q    Type
REMARK                         _______ _______ _______ _____ _____    ______ ____
ROOT
ATOM      1  C   UNL     1      -1.760  14.529  21.864  0.00  0.00    +0.000 C 
ATOM      2  C   UNL     1      -0.646  13.492  22.119  0.00  0.00    +0.000 C 
ATOM      3  C   UNL     1      -0.274  12.677  20.874  0.00  0.00    +0.000 C 
ATOM      4  C   UNL     1      -1.482  12.202  20.124  0.00  0.00    +0.000 A 
ATOM      5  C   UNL     1      -2.736  12.716  20.423  0.00  0.00    +0.000 A 
ATOM      6  S   UNL     1      -3.944  12.132  19.391  0.00  0.00    +0.000 S 
ATOM      7  C   UNL     1      -2.823  11.193  18.518  0.00  0.00    +0.000 A 
ATOM      8  N   UNL     1      -3.255  10.476  17.470  0.00  0.00    +0.000 NA
ATOM      9  C   UNL     1      -2.281   9.788  16.890  0.00  0.00    +0.000 A 
ATOM     10  N   UNL     1      -1.002   9.720  17.276  0.00  0.00    +0.000 NA
ATOM     11  C   UNL     1      -0.576  10.415  18.363  0.00  0.00    +0.000 A 
ATOM     12  N   UNL     1       0.766  10.253  18.779  0.00  0.00    +0.000 N 
ATOM     13  C   UNL     1      -1.523  11.258  19.017  0.00  0.00    +0.000 A 
ATOM     14  C   UNL     1      -3.045  13.717  21.514  0.00  0.00    +0.000 C 
ATOM     15  H   UNL     1       1.033  10.889  19.513  0.00  0.00    +0.000 HD
ENDROOT
BRANCH  12  16
ATOM     16  C   UNL     1       1.562   9.074  18.767  0.00  0.00    +0.000 A 
ATOM     17  C   UNL     1       2.508   8.789  17.756  0.00  0.00    +0.000 A 
ATOM     18  C   UNL     1       3.198   7.571  17.697  0.00  0.00    +0.000 A 
ATOM     19  C   UNL     1       2.955   6.647  18.688  0.00  0.00    +0.000 A 
ATOM     20  N   UNL     1       3.475   5.354  18.724  0.00  0.00    +0.000 N 
ATOM     21  C   UNL     1       3.077   4.589  19.793  0.00  0.00    +0.000 A 
ATOM     22  O   UNL     1       3.373   3.419  19.991  0.00  0.00    +0.000 OA
ATOM     23  S   UNL     1       2.028   5.550  20.856  0.00  0.00    +0.000 S 
ATOM     24  C   UNL     1       2.111   6.938  19.753  0.00  0.00    +0.000 A 
ATOM     25  C   UNL     1       1.424   8.146  19.817  0.00  0.00    +0.000 A 
ATOM     26  H   UNL     1       4.048   4.958  17.998  0.00  0.00    +0.000 HD
ENDBRANCH  12  16
BRANCH   1  28
ATOM     27  N   UNL     1      -2.444  16.663  20.581  0.00  0.00    +0.000 N 
ATOM     28  C   UNL     1      -1.554  15.600  20.762  0.00  0.00    +0.000 C 
ATOM     29  O   UNL     1      -0.610  15.452  19.977  0.00  0.00    +0.000 OA
BRANCH  27  31
ATOM     30  C   UNL     1      -3.384  18.364  18.942  0.00  0.00    +0.000 C 
ATOM     31  C   UNL     1      -2.150  17.628  19.487  0.00  0.00    +0.000 C 
ATOM     32  C   UNL     1      -1.063  18.631  19.894  0.00  0.00    +0.000 C 
ENDBRANCH  27  31
BRANCH  27  33
ATOM     33  C   UNL     1      -3.608  16.890  21.458  0.00  0.00    +0.000 C 
BRANCH  33  34
ATOM     34  C   UNL     1      -3.456  17.723  22.740  0.00  0.00    +0.000 C 
BRANCH  34  35
ATOM     35  O   UNL     1      -4.679  17.800  23.458  0.00  0.00    +0.000 OA
ATOM     36  H   UNL     1      -4.829  16.936  23.879  0.00  0.00    +0.000 HD
ENDBRANCH  34  35
ENDBRANCH  33  34
ENDBRANCH  27  33
ENDBRANCH   1  28
TORSDOF 6
ENDMDL
MODEL 8
REMARK VINA RESULT:      -6.0      1.692      2.108
REMARK  Name = 
REMARK  8 active torsions:
REMARK  status: ('A' for Active; 'I' for Inactive)
REMARK    1  A    between atoms: C_1  and  C_2
REMARK    2  A    between atoms: C_2  and  C_3
REMARK    3  A    between atoms: C_2  and  N_4
REMARK    4  A    between atoms: N_4  and  C_5
REMARK    5  A    between atoms: C_5  and  C_6
REMARK    6  A    between atoms: C_6  and  O_7
REMARK    7  A    between atoms: C_8  and  C_10
REMARK    8  A    between atoms: N_21  and  C_22
REMARK                            x       y       z     vdW  Elec       q    Type
REMARK                         _______ _______ _______ _____ _____    ______ ____
ROOT
ATOM      1  C   UNL     1      -1.841  14.238  22.432  0.00  0.00    +0.000 C 
ATOM      2  C   UNL     1      -0.908  13.057  22.780  0.00  0.00    +0.000 C 
ATOM      3  C   UNL     1      -0.393  12.305  21.546  0.00  0.00    +0.000 C 
ATOM      4  C   UNL     1      -1.478  12.038  20.548  0.00  0.00    +0.000 A 
ATOM      5  C   UNL     1      -2.707  12.674  20.666  0.00  0.00    +0.000 A 
ATOM      6  S   UNL     1      -3.750  12.321  19.380  0.00  0.00    +0.000 S 
ATOM      7  C   UNL     1      -2.586  11.327  18.634  0.00  0.00    +0.000 A 
ATOM      8  N   UNL     1      -2.883  10.751  17.459  0.00  0.00    +0.000 NA
ATOM      9  C   UNL     1      -1.892   9.999  16.999  0.00  0.00    +0.000 A 
ATOM     10  N   UNL     1      -0.724   9.749  17.600  0.00  0.00    +0.000 NA
ATOM     11  C   UNL     1      -0.443  10.300  18.810  0.00  0.00    +0.000 A 
ATOM     12  N   UNL     1       0.772   9.946  19.442  0.00  0.00    +0.000 N 
ATOM     13  C   UNL     1      -1.405  11.197  19.363  0.00  0.00    +0.000 A 
ATOM     14  C   UNL     1      -3.112  13.615  21.778  0.00  0.00    +0.000 C 
ATOM     15  H   UNL     1       0.958  10.486  20.272  0.00  0.00    +0.000 HD
ENDROOT
BRANCH  12  16
ATOM     16  C   UNL     1       1.430   8.685  19.456  0.00  0.00    +0.000 A 
ATOM     17  C   UNL     1       1.258   7.733  20.486  0.00  0.00    +0.000 A 
ATOM     18  C   UNL     1       2.002   6.548  20.544  0.00  0.00    +0.000 A 
ATOM     19  C   UNL     1       2.904   6.306  19.532  0.00  0.00    +0.000 A 
ATOM     20  N   UNL     1       3.792   5.233  19.489  0.00  0.00    +0.000 N 
ATOM     21  C   UNL     1       4.625   5.202  18.398  0.00  0.00    +0.000 A 
ATOM     22  O   UNL     1       5.508   4.382  18.189  0.00  0.00    +0.000 OA
ATOM     23  S   UNL     1       4.252   6.565  17.324  0.00  0.00    +0.000 S 
ATOM     24  C   UNL     1       3.021   7.170  18.450  0.00  0.00    +0.000 A 
ATOM     25  C   UNL     1       2.284   8.349  18.388  0.00  0.00    +0.000 A 
ATOM     26  H   UNL     1       3.887   4.552  20.224  0.00  0.00    +0.000 HD
ENDBRANCH  12  16
BRANCH   1  28
ATOM     27  N   UNL     1      -0.908  16.603  21.986  0.00  0.00    +0.000 N 
ATOM     28  C   UNL     1      -1.319  15.359  21.498  0.00  0.00    +0.000 C 
ATOM     29  O   UNL     1      -1.346  15.159  20.278  0.00  0.00    +0.000 OA
BRANCH  27  31
ATOM     30  C   UNL     1      -1.507  18.606  20.539  0.00  0.00    +0.000 C 
ATOM     31  C   UNL     1      -0.432  17.608  20.997  0.00  0.00    +0.000 C 
ATOM     32  C   UNL     1       0.812  18.352  21.499  0.00  0.00    +0.000 C 
ENDBRANCH  27  31
BRANCH  27  33
ATOM     33  C   UNL     1      -0.875  16.927  23.425  0.00  0.00    +0.000 C 
BRANCH  33  34
ATOM     34  C   UNL     1      -2.006  17.754  24.055  0.00  0.00    +0.000 C 
BRANCH  34  35
ATOM     35  O   UNL     1      -3.267  17.121  23.892  0.00  0.00    +0.000 OA
ATOM     36  H   UNL     1      -3.684  17.493  23.097  0.00  0.00    +0.000 HD
ENDBRANCH  34  35
ENDBRANCH  33  34
ENDBRANCH  27  33
ENDBRANCH   1  28
TORSDOF 6
ENDMDL
MODEL 9
REMARK VINA RESULT:      -6.0      2.988      3.774
REMARK  Name = 
REMARK  8 active torsions:
REMARK  status: ('A' for Active; 'I' for Inactive)
REMARK    1  A    between atoms: C_1  and  C_2
REMARK    2  A    between atoms: C_2  and  C_3
REMARK    3  A    between atoms: C_2  and  N_4
REMARK    4  A    between atoms: N_4  and  C_5
REMARK    5  A    between atoms: C_5  and  C_6
REMARK    6  A    between atoms: C_6  and  O_7
REMARK    7  A    between atoms: C_8  and  C_10
REMARK    8  A    between atoms: N_21  and  C_22
REMARK                            x       y       z     vdW  Elec       q    Type
REMARK                         _______ _______ _______ _____ _____    ______ ____
ROOT
ATOM      1  C   UNL     1       0.336  14.817  21.352  0.00  0.00    +0.000 C 
ATOM      2  C   UNL     1       1.350  13.666  21.530  0.00  0.00    +0.000 C 
ATOM      3  C   UNL     1       1.315  12.641  20.390  0.00  0.00    +0.000 C 
ATOM      4  C   UNL     1      -0.084  12.257  20.013  0.00  0.00    +0.000 A 
ATOM      5  C   UNL     1      -1.161  12.994  20.487  0.00  0.00    +0.000 A 
ATOM      6  S   UNL     1      -2.641  12.465  19.856  0.00  0.00    +0.000 S 
ATOM      7  C   UNL     1      -1.879  11.255  18.932  0.00  0.00    +0.000 A 
ATOM      8  N   UNL     1      -2.630  10.475  18.140  0.00  0.00    +0.000 NA
ATOM      9  C   UNL     1      -1.911   9.572  17.487  0.00  0.00    +0.000 A 
ATOM     10  N   UNL     1      -0.593   9.364  17.591  0.00  0.00    +0.000 NA
ATOM     11  C   UNL     1       0.159  10.128  18.425  0.00  0.00    +0.000 A 
ATOM     12  N   UNL     1       1.533   9.821  18.560  0.00  0.00    +0.000 N 
ATOM     13  C   UNL     1      -0.499  11.188  19.117  0.00  0.00    +0.000 A 
ATOM     14  C   UNL     1      -1.081  14.170  21.433  0.00  0.00    +0.000 C 
ATOM     15  H   UNL     1       2.040  10.504  19.100  0.00  0.00    +0.000 HD
ENDROOT
BRANCH  12  16
ATOM     16  C   UNL     1       2.159   8.544  18.574  0.00  0.00    +0.000 A 
ATOM     17  C   UNL     1       1.941   7.586  19.590  0.00  0.00    +0.000 A 
ATOM     18  C   UNL     1       2.654   6.382  19.651  0.00  0.00    +0.000 A 
ATOM     19  C   UNL     1       3.572   6.128  18.656  0.00  0.00    +0.000 A 
ATOM     20  N   UNL     1       4.434   5.034  18.620  0.00  0.00    +0.000 N 
ATOM     21  C   UNL     1       5.290   4.993  17.547  0.00  0.00    +0.000 A 
ATOM     22  O   UNL     1       6.157   4.154  17.349  0.00  0.00    +0.000 OA
ATOM     23  S   UNL     1       4.974   6.377  16.480  0.00  0.00    +0.000 S 
ATOM     24  C   UNL     1       3.734   7.001  17.586  0.00  0.00    +0.000 A 
ATOM     25  C   UNL     1       3.027   8.197  17.521  0.00  0.00    +0.000 A 
ATOM     26  H   UNL     1       4.496   4.343  19.349  0.00  0.00    +0.000 HD
ENDBRANCH  12  16
BRANCH   1  28
ATOM     27  N   UNL     1       1.572  16.317  19.653  0.00  0.00    +0.000 N 
ATOM     28  C   UNL     1       0.397  15.681  20.067  0.00  0.00    +0.000 C 
ATOM     29  O   UNL     1      -0.652  15.868  19.440  0.00  0.00    +0.000 OA
BRANCH  27  31
ATOM     30  C   UNL     1       1.293  18.631  18.637  0.00  0.00    +0.000 C 
ATOM     31  C   UNL     1       1.514  17.127  18.406  0.00  0.00    +0.000 C 
ATOM     32  C   UNL     1       2.745  16.895  17.522  0.00  0.00    +0.000 C 
ENDBRANCH  27  31
BRANCH  27  33
ATOM     33  C   UNL     1       2.856  16.166  20.362  0.00  0.00    +0.000 C 
BRANCH  33  34
ATOM     34  C   UNL     1       3.197  17.088  21.542  0.00  0.00    +0.000 C 
BRANCH  34  35
ATOM     35  O   UNL     1       3.979  16.415  22.520  0.00  0.00    +0.000 OA
ATOM     36  H   UNL     1       3.370  16.037  23.176  0.00  0.00    +0.000 HD
ENDBRANCH  34  35
ENDBRANCH  33  34
ENDBRANCH  27  33
ENDBRANCH   1  28
TORSDOF 6
ENDMDL
