MODEL 1
REMARK VINA RESULT:      -7.7      0.000      0.000
REMARK  Name = 
REMARK  10 active torsions:
REMARK  status: ('A' for Active; 'I' for Inactive)
REMARK    1  A    between atoms: C_1  and  C_2
REMARK    2  A    between atoms: C_2  and  C_3
REMARK    3  A    between atoms: C_2  and  C_4
REMARK    4  A    between atoms: C_2  and  C_5
REMARK    5  A    between atoms: C_8  and  S_9
REMARK    6  A    between atoms: S_9  and  N_12
REMARK    7  A    between atoms: N_12  and  C_13
REMARK    8  A    between atoms: C_13  and  C_14
REMARK    9  A    between atoms: C_17  and  S_18
REMARK   10  A    between atoms: S_18  and  N_19
REMARK                            x       y       z     vdW  Elec       q    Type
REMARK                         _______ _______ _______ _____ _____    ______ ____
ROOT
ATOM      1  N   UNL     1       0.896   4.393  20.567  0.00  0.00    +0.000 NA
ATOM      2  H   UNL     1       0.248   4.328  21.354  0.00  0.00    +0.000 HD
ENDROOT
BRANCH   1   3
ATOM      3  S   UNL     1       1.320   2.853  20.006  0.00  0.00    +0.000 S 
ATOM      4  O   UNL     1       0.252   2.348  19.171  0.00  0.00    +0.000 OA
ATOM      5  O   UNL     1       1.818   2.114  21.144  0.00  0.00    +0.000 OA
BRANCH   3   9
ATOM      6  C   UNL     1       4.877   4.041  17.339  0.00  0.00    +0.000 A 
ATOM      7  C   UNL     1       3.566   3.952  16.832  0.00  0.00    +0.000 A 
ATOM      8  C   UNL     1       2.492   3.562  17.636  0.00  0.00    +0.000 A 
ATOM      9  C   UNL     1       2.716   3.215  18.966  0.00  0.00    +0.000 A 
ATOM     10  C   UNL     1       4.007   3.237  19.487  0.00  0.00    +0.000 A 
ATOM     11  C   UNL     1       5.078   3.634  18.673  0.00  0.00    +0.000 A 
BRANCH   6  13
ATOM     12  C   UNL     1       7.380   4.530  17.213  0.00  0.00    +0.000 C 
ATOM     13  C   UNL     1       6.025   4.588  16.464  0.00  0.00    +0.000 C 
ATOM     14  C   UNL     1       5.738   6.052  16.081  0.00  0.00    +0.000 C 
ATOM     15  C   UNL     1       6.225   3.781  15.158  0.00  0.00    +0.000 C 
ENDBRANCH   6  13
ENDBRANCH   3   9
ENDBRANCH   1   3
BRANCH   1  16
ATOM     16  C   UNL     1       2.032   5.282  20.860  0.00  0.00    +0.000 C 
BRANCH  16  17
ATOM     17  C   UNL     1       1.832   6.686  20.333  0.00  0.00    +0.000 A 
ATOM     18  C   UNL     1       1.193   7.632  21.151  0.00  0.00    +0.000 A 
ATOM     19  C   UNL     1       0.991   8.937  20.705  0.00  0.00    +0.000 A 
ATOM     20  C   UNL     1       1.445   9.311  19.438  0.00  0.00    +0.000 A 
ATOM     21  C   UNL     1       2.112   8.395  18.622  0.00  0.00    +0.000 A 
ATOM     22  C   UNL     1       2.317   7.089  19.078  0.00  0.00    +0.000 A 
BRANCH  20  23
ATOM     23  S   UNL     1       1.108  10.940  18.845  0.00  0.00    +0.000 S 
ATOM     24  O   UNL     1       0.584  11.743  19.924  0.00  0.00    +0.000 OA
ATOM     25  O   UNL     1       2.212  11.381  18.018  0.00  0.00    +0.000 OA
BRANCH  23  26
ATOM     26  N   UNL     1      -0.174  10.673  17.796  0.00  0.00    +0.000 NA
ATOM     27  H   UNL     1       0.007   9.838  17.238  0.00  0.00    +0.000 HD
ATOM     28  H   UNL     1      -1.049  10.641  18.317  0.00  0.00    +0.000 HD
ENDBRANCH  23  26
ENDBRANCH  20  23
ENDBRANCH  16  17
ENDBRANCH   1  16
TORSDOF 7
ENDMDL
MODEL 2
REMARK VINA RESULT:      -7.7      0.726      1.102
REMARK  Name = 
REMARK  10 active torsions:
REMARK  status: ('A' for Active; 'I' for Inactive)
REMARK    1  A    between atoms: C_1  and  C_2
REMARK    2  A    between atoms: C_2  and  C_3
REMARK    3  A    between atoms: C_2  and  C_4
REMARK    4  A    between atoms: C_2  and  C_5
REMARK    5  A    between atoms: C_8  and  S_9
REMARK    6  A    between atoms: S_9  and  N_12
REMARK    7  A    between atoms: N_12  and  C_13
REMARK    8  A    between atoms: C_13  and  C_14
REMARK    9  A    between atoms: C_17  and  S_18
REMARK   10  A    between atoms: S_18  and  N_19
REMARK                            x       y       z     vdW  Elec       q    Type
REMARK                         _______ _______ _______ _____ _____    ______ ____
ROOT
ATOM      1  N   UNL     1       0.835   4.354  20.418  0.00  0.00    +0.000 NA
ATOM      2  H   UNL     1       0.073   4.235  21.088  0.00  0.00    +0.000 HD
ENDROOT
BRANCH   1   3
ATOM      3  S   UNL     1       1.409   2.854  19.884  0.00  0.00    +0.000 S 
ATOM      4  O   UNL     1       0.444   2.281  18.971  0.00  0.00    +0.000 OA
ATOM      5  O   UNL     1       1.874   2.141  21.052  0.00  0.00    +0.000 OA
BRANCH   3   9
ATOM      6  C   UNL     1       5.064   4.319  17.502  0.00  0.00    +0.000 A 
ATOM      7  C   UNL     1       3.789   4.207  16.912  0.00  0.00    +0.000 A 
ATOM      8  C   UNL     1       2.687   3.734  17.628  0.00  0.00    +0.000 A 
ATOM      9  C   UNL     1       2.847   3.324  18.950  0.00  0.00    +0.000 A 
ATOM     10  C   UNL     1       4.103   3.367  19.549  0.00  0.00    +0.000 A 
ATOM     11  C   UNL     1       5.203   3.848  18.823  0.00  0.00    +0.000 A 
BRANCH   6  13
ATOM     12  C   UNL     1       6.169   6.503  16.778  0.00  0.00    +0.000 C 
ATOM     13  C   UNL     1       6.237   4.956  16.728  0.00  0.00    +0.000 C 
ATOM     14  C   UNL     1       6.194   4.510  15.255  0.00  0.00    +0.000 C 
ATOM     15  C   UNL     1       7.621   4.571  17.306  0.00  0.00    +0.000 C 
ENDBRANCH   6  13
ENDBRANCH   3   9
ENDBRANCH   1   3
BRANCH   1  16
ATOM     16  C   UNL     1       1.871   5.273  20.917  0.00  0.00    +0.000 C 
BRANCH  16  17
ATOM     17  C   UNL     1       1.717   6.680  20.381  0.00  0.00    +0.000 A 
ATOM     18  C   UNL     1       1.055   7.636  21.168  0.00  0.00    +0.000 A 
ATOM     19  C   UNL     1       0.895   8.944  20.713  0.00  0.00    +0.000 A 
ATOM     20  C   UNL     1       1.414   9.310  19.469  0.00  0.00    +0.000 A 
ATOM     21  C   UNL     1       2.103   8.383  18.685  0.00  0.00    +0.000 A 
ATOM     22  C   UNL     1       2.266   7.075  19.150  0.00  0.00    +0.000 A 
BRANCH  20  23
ATOM     23  S   UNL     1       1.129  10.943  18.861  0.00  0.00    +0.000 S 
ATOM     24  O   UNL     1      -0.201  11.024  18.308  0.00  0.00    +0.000 OA
ATOM     25  O   UNL     1       1.624  11.901  19.829  0.00  0.00    +0.000 OA
BRANCH  23  26
ATOM     26  N   UNL     1       2.183  11.021  17.558  0.00  0.00    +0.000 NA
ATOM     27  H   UNL     1       2.948  11.663  17.772  0.00  0.00    +0.000 HD
ATOM     28  H   UNL     1       2.490  10.084  17.302  0.00  0.00    +0.000 HD
ENDBRANCH  23  26
ENDBRANCH  20  23
ENDBRANCH  16  17
ENDBRANCH   1  16
TORSDOF 7
ENDMDL
MODEL 3
REMARK VINA RESULT:      -7.5      0.742      1.611
REMARK  Name = 
REMARK  10 active torsions:
REMARK  status: ('A' for Active; 'I' for Inactive)
REMARK    1  A    between atoms: C_1  and  C_2
REMARK    2  A    between atoms: C_2  and  C_3
REMARK    3  A    between atoms: C_2  and  C_4
REMARK    4  A    between atoms: C_2  and  C_5
REMARK    5  A    between atoms: C_8  and  S_9
REMARK    6  A    between atoms: S_9  and  N_12
REMARK    7  A    between atoms: N_12  and  C_13
REMARK    8  A    between atoms: C_13  and  C_14
REMARK    9  A    between atoms: C_17  and  S_18
REMARK   10  A    between atoms: S_18  and  N_19
REMARK                            x       y       z     vdW  Elec       q    Type
REMARK                         _______ _______ _______ _____ _____    ______ ____
ROOT
ATOM      1  N   UNL     1       0.964   4.492  20.473  0.00  0.00    +0.000 NA
ATOM      2  H   UNL     1       0.313   4.435  21.257  0.00  0.00    +0.000 HD
ENDROOT
BRANCH   1   3
ATOM      3  S   UNL     1       1.409   2.946  19.943  0.00  0.00    +0.000 S 
ATOM      4  O   UNL     1       0.339   2.402  19.136  0.00  0.00    +0.000 OA
ATOM      5  O   UNL     1       1.935   2.244  21.092  0.00  0.00    +0.000 OA
BRANCH   3   9
ATOM      6  C   UNL     1       4.908   4.132  17.200  0.00  0.00    +0.000 A 
ATOM      7  C   UNL     1       3.590   4.016  16.715  0.00  0.00    +0.000 A 
ATOM      8  C   UNL     1       2.534   3.627  17.542  0.00  0.00    +0.000 A 
ATOM      9  C   UNL     1       2.784   3.307  18.875  0.00  0.00    +0.000 A 
ATOM     10  C   UNL     1       4.082   3.356  19.376  0.00  0.00    +0.000 A 
ATOM     11  C   UNL     1       5.135   3.752  18.538  0.00  0.00    +0.000 A 
BRANCH   6  13
ATOM     12  C   UNL     1       6.144   3.865  14.982  0.00  0.00    +0.000 C 
ATOM     13  C   UNL     1       6.034   4.678  16.297  0.00  0.00    +0.000 C 
ATOM     14  C   UNL     1       7.382   4.599  17.036  0.00  0.00    +0.000 C 
ATOM     15  C   UNL     1       5.805   6.149  15.870  0.00  0.00    +0.000 C 
ENDBRANCH   6  13
ENDBRANCH   3   9
ENDBRANCH   1   3
BRANCH   1  16
ATOM     16  C   UNL     1       2.089   5.399  20.753  0.00  0.00    +0.000 C 
BRANCH  16  17
ATOM     17  C   UNL     1       1.824   6.820  20.306  0.00  0.00    +0.000 A 
ATOM     18  C   UNL     1       2.277   7.229  19.041  0.00  0.00    +0.000 A 
ATOM     19  C   UNL     1       2.051   8.529  18.591  0.00  0.00    +0.000 A 
ATOM     20  C   UNL     1       1.353   9.427  19.400  0.00  0.00    +0.000 A 
ATOM     21  C   UNL     1       0.867   9.032  20.648  0.00  0.00    +0.000 A 
ATOM     22  C   UNL     1       1.090   7.725  21.091  0.00  0.00    +0.000 A 
BRANCH  20  23
ATOM     23  S   UNL     1       1.149  11.097  18.861  0.00  0.00    +0.000 S 
ATOM     24  O   UNL     1       2.318  11.507  18.121  0.00  0.00    +0.000 OA
ATOM     25  O   UNL     1      -0.193  11.266  18.343  0.00  0.00    +0.000 OA
BRANCH  23  26
ATOM     26  N   UNL     1       1.192  11.941  20.309  0.00  0.00    +0.000 NA
ATOM     27  H   UNL     1       2.018  11.668  20.843  0.00  0.00    +0.000 HD
ATOM     28  H   UNL     1       1.127  12.943  20.130  0.00  0.00    +0.000 HD
ENDBRANCH  23  26
ENDBRANCH  20  23
ENDBRANCH  16  17
ENDBRANCH   1  16
TORSDOF 7
ENDMDL
MODEL 4
REMARK VINA RESULT:      -7.3      0.888      1.558
REMARK  Name = 
REMARK  10 active torsions:
REMARK  status: ('A' for Active; 'I' for Inactive)
REMARK    1  A    between atoms: C_1  and  C_2
REMARK    2  A    between atoms: C_2  and  C_3
REMARK    3  A    between atoms: C_2  and  C_4
REMARK    4  A    between atoms: C_2  and  C_5
REMARK    5  A    between atoms: C_8  and  S_9
REMARK    6  A    between atoms: S_9  and  N_12
REMARK    7  A    between atoms: N_12  and  C_13
REMARK    8  A    between atoms: C_13  and  C_14
REMARK    9  A    between atoms: C_17  and  S_18
REMARK   10  A    between atoms: S_18  and  N_19
REMARK                            x       y       z     vdW  Elec       q    Type
REMARK                         _______ _______ _______ _____ _____    ______ ____
ROOT
ATOM      1  N   UNL     1       0.940   4.483  20.476  0.00  0.00    +0.000 NA
ATOM      2  H   UNL     1       0.198   4.337  21.162  0.00  0.00    +0.000 HD
ENDROOT
BRANCH   1   3
ATOM      3  S   UNL     1       1.551   3.005  19.921  0.00  0.00    +0.000 S 
ATOM      4  O   UNL     1       0.577   2.397  19.040  0.00  0.00    +0.000 OA
ATOM      5  O   UNL     1       2.080   2.310  21.073  0.00  0.00    +0.000 OA
BRANCH   3   9
ATOM      6  C   UNL     1       5.064   4.600  17.413  0.00  0.00    +0.000 A 
ATOM      7  C   UNL     1       3.783   4.404  16.858  0.00  0.00    +0.000 A 
ATOM      8  C   UNL     1       2.726   3.892  17.613  0.00  0.00    +0.000 A 
ATOM      9  C   UNL     1       2.939   3.527  18.940  0.00  0.00    +0.000 A 
ATOM     10  C   UNL     1       4.205   3.653  19.507  0.00  0.00    +0.000 A 
ATOM     11  C   UNL     1       5.259   4.173  18.742  0.00  0.00    +0.000 A 
BRANCH   6  13
ATOM     12  C   UNL     1       6.432   6.729  17.077  0.00  0.00    +0.000 C 
ATOM     13  C   UNL     1       6.182   5.278  16.594  0.00  0.00    +0.000 C 
ATOM     14  C   UNL     1       5.789   5.317  15.106  0.00  0.00    +0.000 C 
ATOM     15  C   UNL     1       7.543   4.549  16.712  0.00  0.00    +0.000 C 
ENDBRANCH   6  13
ENDBRANCH   3   9
ENDBRANCH   1   3
BRANCH   1  16
ATOM     16  C   UNL     1       1.958   5.433  20.956  0.00  0.00    +0.000 C 
BRANCH  16  17
ATOM     17  C   UNL     1       1.726   6.845  20.462  0.00  0.00    +0.000 A 
ATOM     18  C   UNL     1       2.189   7.200  19.185  0.00  0.00    +0.000 A 
ATOM     19  C   UNL     1       1.993   8.489  18.691  0.00  0.00    +0.000 A 
ATOM     20  C   UNL     1       1.314   9.430  19.469  0.00  0.00    +0.000 A 
ATOM     21  C   UNL     1       0.817   9.087  20.727  0.00  0.00    +0.000 A 
ATOM     22  C   UNL     1       1.011   7.791  21.214  0.00  0.00    +0.000 A 
BRANCH  20  23
ATOM     23  S   UNL     1       1.148  11.084  18.873  0.00  0.00    +0.000 S 
ATOM     24  O   UNL     1       2.291  11.417  18.059  0.00  0.00    +0.000 OA
ATOM     25  O   UNL     1      -0.212  11.289  18.418  0.00  0.00    +0.000 OA
BRANCH  23  26
ATOM     26  N   UNL     1       1.300  11.981  20.283  0.00  0.00    +0.000 NA
ATOM     27  H   UNL     1       0.374  12.202  20.651  0.00  0.00    +0.000 HD
ATOM     28  H   UNL     1       1.903  11.492  20.943  0.00  0.00    +0.000 HD
ENDBRANCH  23  26
ENDBRANCH  20  23
ENDBRANCH  16  17
ENDBRANCH   1  16
TORSDOF 7
ENDMDL
MODEL 5
REMARK VINA RESULT:      -7.3      0.417      1.320
REMARK  Name = 
REMARK  10 active torsions:
REMARK  status: ('A' for Active; 'I' for Inactive)
REMARK    1  A    between atoms: C_1  and  C_2
REMARK    2  A    between atoms: C_2  and  C_3
REMARK    3  A    between atoms: C_2  and  C_4
REMARK    4  A    between atoms: C_2  and  C_5
REMARK    5  A    between atoms: C_8  and  S_9
REMARK    6  A    between atoms: S_9  and  N_12
REMARK    7  A    between atoms: N_12  and  C_13
REMARK    8  A    between atoms: C_13  and  C_14
REMARK    9  A    between atoms: C_17  and  S_18
REMARK   10  A    between atoms: S_18  and  N_19
REMARK                            x       y       z     vdW  Elec       q    Type
REMARK                         _______ _______ _______ _____ _____    ______ ____
ROOT
ATOM      1  N   UNL     1       0.759   4.265  20.391  0.00  0.00    +0.000 NA
ATOM      2  H   UNL     1       0.003   4.009  21.028  0.00  0.00    +0.000 HD
ENDROOT
BRANCH   1   3
ATOM      3  S   UNL     1       1.460   2.888  19.700  0.00  0.00    +0.000 S 
ATOM      4  O   UNL     1       0.552   2.345  18.713  0.00  0.00    +0.000 OA
ATOM      5  O   UNL     1       1.976   2.088  20.788  0.00  0.00    +0.000 OA
BRANCH   3   9
ATOM      6  C   UNL     1       5.179   4.435  17.476  0.00  0.00    +0.000 A 
ATOM      7  C   UNL     1       5.199   4.168  18.859  0.00  0.00    +0.000 A 
ATOM      8  C   UNL     1       4.061   3.727  19.538  0.00  0.00    +0.000 A 
ATOM      9  C   UNL     1       2.860   3.578  18.848  0.00  0.00    +0.000 A 
ATOM     10  C   UNL     1       2.788   3.886  17.493  0.00  0.00    +0.000 A 
ATOM     11  C   UNL     1       3.938   4.324  16.819  0.00  0.00    +0.000 A 
BRANCH   6  13
ATOM     12  C   UNL     1       6.570   6.334  16.487  0.00  0.00    +0.000 C 
ATOM     13  C   UNL     1       6.477   4.806  16.727  0.00  0.00    +0.000 C 
ATOM     14  C   UNL     1       6.516   4.092  15.364  0.00  0.00    +0.000 C 
ATOM     15  C   UNL     1       7.756   4.418  17.509  0.00  0.00    +0.000 C 
ENDBRANCH   6  13
ENDBRANCH   3   9
ENDBRANCH   1   3
BRANCH   1  16
ATOM     16  C   UNL     1       1.711   5.201  21.011  0.00  0.00    +0.000 C 
BRANCH  16  17
ATOM     17  C   UNL     1       1.603   6.605  20.456  0.00  0.00    +0.000 A 
ATOM     18  C   UNL     1       0.919   7.578  21.202  0.00  0.00    +0.000 A 
ATOM     19  C   UNL     1       0.799   8.884  20.727  0.00  0.00    +0.000 A 
ATOM     20  C   UNL     1       1.381   9.229  19.505  0.00  0.00    +0.000 A 
ATOM     21  C   UNL     1       2.093   8.285  18.764  0.00  0.00    +0.000 A 
ATOM     22  C   UNL     1       2.215   6.979  19.248  0.00  0.00    +0.000 A 
BRANCH  20  23
ATOM     23  S   UNL     1       1.149  10.861  18.869  0.00  0.00    +0.000 S 
ATOM     24  O   UNL     1       0.686  11.726  19.928  0.00  0.00    +0.000 OA
ATOM     25  O   UNL     1       2.275  11.205  18.026  0.00  0.00    +0.000 OA
BRANCH  23  26
ATOM     26  N   UNL     1      -0.154  10.651  17.833  0.00  0.00    +0.000 NA
ATOM     27  H   UNL     1       0.177  10.312  16.929  0.00  0.00    +0.000 HD
ATOM     28  H   UNL     1      -0.853  10.052  18.269  0.00  0.00    +0.000 HD
ENDBRANCH  23  26
ENDBRANCH  20  23
ENDBRANCH  16  17
ENDBRANCH   1  16
TORSDOF 7
ENDMDL
MODEL 6
REMARK VINA RESULT:      -7.3      0.872      1.368
REMARK  Name = 
REMARK  10 active torsions:
REMARK  status: ('A' for Active; 'I' for Inactive)
REMARK    1  A    between atoms: C_1  and  C_2
REMARK    2  A    between atoms: C_2  and  C_3
REMARK    3  A    between atoms: C_2  and  C_4
REMARK    4  A    between atoms: C_2  and  C_5
REMARK    5  A    between atoms: C_8  and  S_9
REMARK    6  A    between atoms: S_9  and  N_12
REMARK    7  A    between atoms: N_12  and  C_13
REMARK    8  A    between atoms: C_13  and  C_14
REMARK    9  A    between atoms: C_17  and  S_18
REMARK   10  A    between atoms: S_18  and  N_19
REMARK                            x       y       z     vdW  Elec       q    Type
REMARK                         _______ _______ _______ _____ _____    ______ ____
ROOT
ATOM      1  N   UNL     1       1.384   4.795  20.793  0.00  0.00    +0.000 NA
ATOM      2  H   UNL     1       0.997   4.806  21.737  0.00  0.00    +0.000 HD
ENDROOT
BRANCH   1   3
ATOM      3  S   UNL     1       1.766   3.216  20.316  0.00  0.00    +0.000 S 
ATOM      4  O   UNL     1       0.605   2.623  19.689  0.00  0.00    +0.000 OA
ATOM      5  O   UNL     1       2.437   2.590  21.432  0.00  0.00    +0.000 OA
BRANCH   3   9
ATOM      6  C   UNL     1       4.877   4.201  17.072  0.00  0.00    +0.000 A 
ATOM      7  C   UNL     1       3.515   4.016  16.762  0.00  0.00    +0.000 A 
ATOM      8  C   UNL     1       2.577   3.687  17.744  0.00  0.00    +0.000 A 
ATOM      9  C   UNL     1       2.993   3.500  19.060  0.00  0.00    +0.000 A 
ATOM     10  C   UNL     1       4.339   3.619  19.393  0.00  0.00    +0.000 A 
ATOM     11  C   UNL     1       5.273   3.954  18.401  0.00  0.00    +0.000 A 
BRANCH   6  13
ATOM     12  C   UNL     1       7.308   4.793  16.563  0.00  0.00    +0.000 C 
ATOM     13  C   UNL     1       5.872   4.680  15.992  0.00  0.00    +0.000 C 
ATOM     14  C   UNL     1       5.444   6.061  15.463  0.00  0.00    +0.000 C 
ATOM     15  C   UNL     1       5.966   3.712  14.788  0.00  0.00    +0.000 C 
ENDBRANCH   6  13
ENDBRANCH   3   9
ENDBRANCH   1   3
BRANCH   1  16
ATOM     16  C   UNL     1       2.473   5.772  20.630  0.00  0.00    +0.000 C 
BRANCH  16  17
ATOM     17  C   UNL     1       1.976   7.148  20.244  0.00  0.00    +0.000 A 
ATOM     18  C   UNL     1       2.254   7.633  18.955  0.00  0.00    +0.000 A 
ATOM     19  C   UNL     1       1.812   8.894  18.560  0.00  0.00    +0.000 A 
ATOM     20  C   UNL     1       1.070   9.676  19.449  0.00  0.00    +0.000 A 
ATOM     21  C   UNL     1       0.755   9.199  20.722  0.00  0.00    +0.000 A 
ATOM     22  C   UNL     1       1.196   7.931  21.111  0.00  0.00    +0.000 A 
BRANCH  20  23
ATOM     23  S   UNL     1       0.590  11.307  18.971  0.00  0.00    +0.000 S 
ATOM     24  O   UNL     1      -0.631  11.241  18.204  0.00  0.00    +0.000 OA
ATOM     25  O   UNL     1       0.746  12.197  20.103  0.00  0.00    +0.000 OA
BRANCH  23  26
ATOM     26  N   UNL     1       1.801  11.725  17.888  0.00  0.00    +0.000 NA
ATOM     27  H   UNL     1       1.654  12.681  17.561  0.00  0.00    +0.000 HD
ATOM     28  H   UNL     1       2.715  11.568  18.310  0.00  0.00    +0.000 HD
ENDBRANCH  23  26
ENDBRANCH  20  23
ENDBRANCH  16  17
ENDBRANCH   1  16
TORSDOF 7
ENDMDL
MODEL 7
REMARK VINA RESULT:      -7.3      0.767      1.278
REMARK  Name = 
REMARK  10 active torsions:
REMARK  status: ('A' for Active; 'I' for Inactive)
REMARK    1  A    between atoms: C_1  and  C_2
REMARK    2  A    between atoms: C_2  and  C_3
REMARK    3  A    between atoms: C_2  and  C_4
REMARK    4  A    between atoms: C_2  and  C_5
REMARK    5  A    between atoms: C_8  and  S_9
REMARK    6  A    between atoms: S_9  and  N_12
REMARK    7  A    between atoms: N_12  and  C_13
REMARK    8  A    between atoms: C_13  and  C_14
REMARK    9  A    between atoms: C_17  and  S_18
REMARK   10  A    between atoms: S_18  and  N_19
REMARK                            x       y       z     vdW  Elec       q    Type
REMARK                         _______ _______ _______ _____ _____    ______ ____
ROOT
ATOM      1  N   UNL     1       0.823   4.386  20.429  0.00  0.00    +0.000 NA
ATOM      2  H   UNL     1       0.058   4.160  21.067  0.00  0.00    +0.000 HD
ENDROOT
BRANCH   1   3
ATOM      3  S   UNL     1       1.520   2.979  19.798  0.00  0.00    +0.000 S 
ATOM      4  O   UNL     1       0.598   2.381  18.857  0.00  0.00    +0.000 OA
ATOM      5  O   UNL     1       2.059   2.239  20.917  0.00  0.00    +0.000 OA
BRANCH   3   9
ATOM      6  C   UNL     1       5.170   4.424  17.397  0.00  0.00    +0.000 A 
ATOM      7  C   UNL     1       5.272   4.052  18.752  0.00  0.00    +0.000 A 
ATOM      8  C   UNL     1       4.158   3.642  19.488  0.00  0.00    +0.000 A 
ATOM      9  C   UNL     1       2.901   3.631  18.888  0.00  0.00    +0.000 A 
ATOM     10  C   UNL     1       2.752   4.046  17.567  0.00  0.00    +0.000 A 
ATOM     11  C   UNL     1       3.878   4.452  16.836  0.00  0.00    +0.000 A 
BRANCH   6  13
ATOM     12  C   UNL     1       7.722   4.484  17.389  0.00  0.00    +0.000 C 
ATOM     13  C   UNL     1       6.432   4.758  16.575  0.00  0.00    +0.000 C 
ATOM     14  C   UNL     1       6.414   6.243  16.169  0.00  0.00    +0.000 C 
ATOM     15  C   UNL     1       6.554   3.910  15.286  0.00  0.00    +0.000 C 
ENDBRANCH   6  13
ENDBRANCH   3   9
ENDBRANCH   1   3
BRANCH   1  16
ATOM     16  C   UNL     1       1.775   5.337  21.025  0.00  0.00    +0.000 C 
BRANCH  16  17
ATOM     17  C   UNL     1       1.606   6.747  20.501  0.00  0.00    +0.000 A 
ATOM     18  C   UNL     1       0.920   7.685  21.289  0.00  0.00    +0.000 A 
ATOM     19  C   UNL     1       0.745   8.995  20.844  0.00  0.00    +0.000 A 
ATOM     20  C   UNL     1       1.273   9.380  19.610  0.00  0.00    +0.000 A 
ATOM     21  C   UNL     1       1.986   8.471  18.826  0.00  0.00    +0.000 A 
ATOM     22  C   UNL     1       2.164   7.162  19.280  0.00  0.00    +0.000 A 
BRANCH  20  23
ATOM     23  S   UNL     1       0.971  11.015  19.014  0.00  0.00    +0.000 S 
ATOM     24  O   UNL     1      -0.328  11.063  18.386  0.00  0.00    +0.000 OA
ATOM     25  O   UNL     1       1.377  11.970  20.025  0.00  0.00    +0.000 OA
BRANCH  23  26
ATOM     26  N   UNL     1       2.095  11.150  17.776  0.00  0.00    +0.000 NA
ATOM     27  H   UNL     1       2.678  11.973  17.930  0.00  0.00    +0.000 HD
ATOM     28  H   UNL     1       2.619  10.281  17.686  0.00  0.00    +0.000 HD
ENDBRANCH  23  26
ENDBRANCH  20  23
ENDBRANCH  16  17
ENDBRANCH   1  16
TORSDOF 7
ENDMDL
MODEL 8
REMARK VINA RESULT:      -7.2      0.693      1.700
REMARK  Name = 
REMARK  10 active torsions:
REMARK  status: ('A' for Active; 'I' for Inactive)
REMARK    1  A    between atoms: C_1  and  C_2
REMARK    2  A    between atoms: C_2  and  C_3
REMARK    3  A    between atoms: C_2  and  C_4
REMARK    4  A    between atoms: C_2  and  C_5
REMARK    5  A    between atoms: C_8  and  S_9
REMARK    6  A    between atoms: S_9  and  N_12
REMARK    7  A    between atoms: N_12  and  C_13
REMARK    8  A    between atoms: C_13  and  C_14
REMARK    9  A    between atoms: C_17  and  S_18
REMARK   10  A    between atoms: S_18  and  N_19
REMARK                            x       y       z     vdW  Elec       q    Type
REMARK                         _______ _______ _______ _____ _____    ______ ____
ROOT
ATOM      1  N   UNL     1       0.811   4.489  20.245  0.00  0.00    +0.000 NA
ATOM      2  H   UNL     1       0.054   4.213  20.873  0.00  0.00    +0.000 HD
ENDROOT
BRANCH   1   3
ATOM      3  S   UNL     1       1.521   3.132  19.523  0.00  0.00    +0.000 S 
ATOM      4  O   UNL     1       0.670   2.677  18.445  0.00  0.00    +0.000 OA
ATOM      5  O   UNL     1       1.935   2.254  20.594  0.00  0.00    +0.000 OA
BRANCH   3   9
ATOM      6  C   UNL     1       5.418   4.687  17.633  0.00  0.00    +0.000 A 
ATOM      7  C   UNL     1       5.372   4.215  18.960  0.00  0.00    +0.000 A 
ATOM      8  C   UNL     1       4.183   3.772  19.542  0.00  0.00    +0.000 A 
ATOM      9  C   UNL     1       2.996   3.826  18.814  0.00  0.00    +0.000 A 
ATOM     10  C   UNL     1       2.992   4.338  17.519  0.00  0.00    +0.000 A 
ATOM     11  C   UNL     1       4.193   4.776  16.942  0.00  0.00    +0.000 A 
BRANCH   6  13
ATOM     12  C   UNL     1       6.985   6.592  16.976  0.00  0.00    +0.000 C 
ATOM     13  C   UNL     1       6.763   5.058  16.975  0.00  0.00    +0.000 C 
ATOM     14  C   UNL     1       6.788   4.560  15.518  0.00  0.00    +0.000 C 
ATOM     15  C   UNL     1       7.982   4.451  17.711  0.00  0.00    +0.000 C 
ENDBRANCH   6  13
ENDBRANCH   3   9
ENDBRANCH   1   3
BRANCH   1  16
ATOM     16  C   UNL     1       1.756   5.413  20.892  0.00  0.00    +0.000 C 
BRANCH  16  17
ATOM     17  C   UNL     1       1.586   6.846  20.434  0.00  0.00    +0.000 A 
ATOM     18  C   UNL     1       2.098   7.222  19.182  0.00  0.00    +0.000 A 
ATOM     19  C   UNL     1       1.960   8.531  18.723  0.00  0.00    +0.000 A 
ATOM     20  C   UNL     1       1.290   9.471  19.509  0.00  0.00    +0.000 A 
ATOM     21  C   UNL     1       0.746   9.109  20.742  0.00  0.00    +0.000 A 
ATOM     22  C   UNL     1       0.882   7.794  21.195  0.00  0.00    +0.000 A 
BRANCH  20  23
ATOM     23  S   UNL     1       1.197  11.147  18.959  0.00  0.00    +0.000 S 
ATOM     24  O   UNL     1       0.914  12.005  20.084  0.00  0.00    +0.000 OA
ATOM     25  O   UNL     1       2.290  11.407  18.044  0.00  0.00    +0.000 OA
BRANCH  23  26
ATOM     26  N   UNL     1      -0.193  11.132  18.021  0.00  0.00    +0.000 NA
ATOM     27  H   UNL     1       0.058  11.175  17.033  0.00  0.00    +0.000 HD
ATOM     28  H   UNL     1      -0.770  10.328  18.266  0.00  0.00    +0.000 HD
ENDBRANCH  23  26
ENDBRANCH  20  23
ENDBRANCH  16  17
ENDBRANCH   1  16
TORSDOF 7
ENDMDL
MODEL 9
REMARK VINA RESULT:      -7.2      1.020      1.717
REMARK  Name = 
REMARK  10 active torsions:
REMARK  status: ('A' for Active; 'I' for Inactive)
REMARK    1  A    between atoms: C_1  and  C_2
REMARK    2  A    between atoms: C_2  and  C_3
REMARK    3  A    between atoms: C_2  and  C_4
REMARK    4  A    between atoms: C_2  and  C_5
REMARK    5  A    between atoms: C_8  and  S_9
REMARK    6  A    between atoms: S_9  and  N_12
REMARK    7  A    between atoms: N_12  and  C_13
REMARK    8  A    between atoms: C_13  and  C_14
REMARK    9  A    between atoms: C_17  and  S_18
REMARK   10  A    between atoms: S_18  and  N_19
REMARK                            x       y       z     vdW  Elec       q    Type
REMARK                         _______ _______ _______ _____ _____    ______ ____
ROOT
ATOM      1  N   UNL     1       1.009   4.465  20.394  0.00  0.00    +0.000 NA
ATOM      2  H   UNL     1       0.484   4.099  21.189  0.00  0.00    +0.000 HD
ENDROOT
BRANCH   1   3
ATOM      3  S   UNL     1       1.552   3.209  19.398  0.00  0.00    +0.000 S 
ATOM      4  O   UNL     1       0.609   3.029  18.315  0.00  0.00    +0.000 OA
ATOM      5  O   UNL     1       1.937   2.120  20.266  0.00  0.00    +0.000 OA
BRANCH   3   9
ATOM      6  C   UNL     1       5.496   4.747  17.593  0.00  0.00    +0.000 A 
ATOM      7  C   UNL     1       5.431   4.224  18.899  0.00  0.00    +0.000 A 
ATOM      8  C   UNL     1       4.228   3.785  19.456  0.00  0.00    +0.000 A 
ATOM      9  C   UNL     1       3.048   3.896  18.724  0.00  0.00    +0.000 A 
ATOM     10  C   UNL     1       3.064   4.459  17.451  0.00  0.00    +0.000 A 
ATOM     11  C   UNL     1       4.278   4.893  16.899  0.00  0.00    +0.000 A 
BRANCH   6  13
ATOM     12  C   UNL     1       6.941   4.616  15.492  0.00  0.00    +0.000 C 
ATOM     13  C   UNL     1       6.854   5.113  16.957  0.00  0.00    +0.000 C 
ATOM     14  C   UNL     1       7.998   4.471  17.762  0.00  0.00    +0.000 C 
ATOM     15  C   UNL     1       7.102   6.640  16.904  0.00  0.00    +0.000 C 
ENDBRANCH   6  13
ENDBRANCH   3   9
ENDBRANCH   1   3
BRANCH   1  16
ATOM     16  C   UNL     1       2.050   5.419  20.811  0.00  0.00    +0.000 C 
BRANCH  16  17
ATOM     17  C   UNL     1       1.773   6.833  20.347  0.00  0.00    +0.000 A 
ATOM     18  C   UNL     1       1.046   7.692  21.186  0.00  0.00    +0.000 A 
ATOM     19  C   UNL     1       0.772   9.003  20.797  0.00  0.00    +0.000 A 
ATOM     20  C   UNL     1       1.241   9.469  19.567  0.00  0.00    +0.000 A 
ATOM     21  C   UNL     1       1.994   8.641  18.732  0.00  0.00    +0.000 A 
ATOM     22  C   UNL     1       2.271   7.330  19.131  0.00  0.00    +0.000 A 
BRANCH  20  23
ATOM     23  S   UNL     1       0.815  11.101  19.043  0.00  0.00    +0.000 S 
ATOM     24  O   UNL     1      -0.413  11.055  18.286  0.00  0.00    +0.000 OA
ATOM     25  O   UNL     1       1.010  12.019  20.146  0.00  0.00    +0.000 OA
BRANCH  23  26
ATOM     26  N   UNL     1       2.031  11.444  17.940  0.00  0.00    +0.000 NA
ATOM     27  H   UNL     1       2.387  10.575  17.539  0.00  0.00    +0.000 HD
ATOM     28  H   UNL     1       1.696  12.112  17.248  0.00  0.00    +0.000 HD
ENDBRANCH  23  26
ENDBRANCH  20  23
ENDBRANCH  16  17
ENDBRANCH   1  16
TORSDOF 7
ENDMDL
