MODEL 1
REMARK VINA RESULT:      -7.0      0.000      0.000
REMARK  Name = 
REMARK  7 active torsions:
REMARK  status: ('A' for Active; 'I' for Inactive)
REMARK    1  A    between atoms: C_1  and  O_2
REMARK    2  A    between atoms: O_2  and  C_3
REMARK    3  A    between atoms: C_3  and  C_5
REMARK    4  A    between atoms: C_8  and  C_9
REMARK    5  A    between atoms: N_10  and  C_11
REMARK    6  A    between atoms: C_14  and  S_15
REMARK    7  A    between atoms: S_15  and  N_16
REMARK                            x       y       z     vdW  Elec       q    Type
REMARK                         _______ _______ _______ _____ _____    ______ ____
ROOT
ATOM      1  C   UNL     1       1.103   8.424  20.777  0.00  0.00    +0.000 C 
ATOM      2  N   UNL     1       1.652   8.570  19.615  0.00  0.00    +0.000 NA
ENDROOT
BRANCH   1   6
ATOM      3  C   UNL     1      -1.324  11.427  22.586  0.00  0.00    +0.000 A 
ATOM      4  C   UNL     1      -0.861  11.598  21.272  0.00  0.00    +0.000 A 
ATOM      5  C   UNL     1      -0.053  10.628  20.679  0.00  0.00    +0.000 A 
ATOM      6  C   UNL     1       0.291   9.483  21.398  0.00  0.00    +0.000 A 
ATOM      7  C   UNL     1      -0.160   9.303  22.709  0.00  0.00    +0.000 A 
ATOM      8  C   UNL     1      -0.966  10.277  23.303  0.00  0.00    +0.000 A 
BRANCH   3   9
ATOM      9  C   UNL     1      -2.194  12.485  23.160  0.00  0.00    +0.000 C 
ATOM     10  O   UNL     1      -1.788  13.598  23.458  0.00  0.00    +0.000 OA
BRANCH   9  12
ATOM     11  C   UNL     1      -4.111  12.513  24.485  0.00  0.00    +0.000 C 
ATOM     12  O   UNL     1      -3.466  12.041  23.300  0.00  0.00    +0.000 OA
ENDBRANCH   9  12
ENDBRANCH   3   9
ENDBRANCH   1   6
BRANCH   2  13
ATOM     13  C   UNL     1       2.363   7.498  19.051  0.00  0.00    +0.000 A 
ATOM     14  C   UNL     1       2.289   6.257  19.695  0.00  0.00    +0.000 A 
ATOM     15  C   UNL     1       3.003   5.154  19.217  0.00  0.00    +0.000 A 
ATOM     16  C   UNL     1       3.790   5.294  18.073  0.00  0.00    +0.000 A 
ATOM     17  C   UNL     1       3.859   6.515  17.402  0.00  0.00    +0.000 A 
ATOM     18  C   UNL     1       3.130   7.602  17.881  0.00  0.00    +0.000 A 
BRANCH  16  19
ATOM     19  S   UNL     1       4.745   3.930  17.486  0.00  0.00    +0.000 S 
ATOM     20  O   UNL     1       4.073   2.698  17.827  0.00  0.00    +0.000 OA
ATOM     21  O   UNL     1       5.207   4.211  16.147  0.00  0.00    +0.000 OA
BRANCH  19  22
ATOM     22  N   UNL     1       6.096   4.012  18.475  0.00  0.00    +0.000 NA
ATOM     23  H   UNL     1       5.813   4.163  19.442  0.00  0.00    +0.000 HD
ATOM     24  H   UNL     1       6.684   3.193  18.333  0.00  0.00    +0.000 HD
ENDBRANCH  19  22
ENDBRANCH  16  19
ENDBRANCH   2  13
TORSDOF 6
ENDMDL
MODEL 2
REMARK VINA RESULT:      -6.9      1.074      1.850
REMARK  Name = 
REMARK  7 active torsions:
REMARK  status: ('A' for Active; 'I' for Inactive)
REMARK    1  A    between atoms: C_1  and  O_2
REMARK    2  A    between atoms: O_2  and  C_3
REMARK    3  A    between atoms: C_3  and  C_5
REMARK    4  A    between atoms: C_8  and  C_9
REMARK    5  A    between atoms: N_10  and  C_11
REMARK    6  A    between atoms: C_14  and  S_15
REMARK    7  A    between atoms: S_15  and  N_16
REMARK                            x       y       z     vdW  Elec       q    Type
REMARK                         _______ _______ _______ _____ _____    ______ ____
ROOT
ATOM      1  C   UNL     1       0.911   8.164  21.259  0.00  0.00    +0.000 C 
ATOM      2  N   UNL     1       1.667   8.086  20.212  0.00  0.00    +0.000 NA
ENDROOT
BRANCH   1   6
ATOM      3  C   UNL     1      -0.798  11.867  22.504  0.00  0.00    +0.000 A 
ATOM      4  C   UNL     1      -1.082  10.691  23.214  0.00  0.00    +0.000 A 
ATOM      5  C   UNL     1      -0.541   9.472  22.804  0.00  0.00    +0.000 A 
ATOM      6  C   UNL     1       0.290   9.430  21.684  0.00  0.00    +0.000 A 
ATOM      7  C   UNL     1       0.578  10.594  20.965  0.00  0.00    +0.000 A 
ATOM      8  C   UNL     1       0.032  11.813  21.375  0.00  0.00    +0.000 A 
BRANCH   3   9
ATOM      9  C   UNL     1      -1.389  13.137  22.996  0.00  0.00    +0.000 C 
ATOM     10  O   UNL     1      -0.738  14.009  23.552  0.00  0.00    +0.000 OA
BRANCH   9  12
ATOM     11  C   UNL     1      -3.510  13.495  23.894  0.00  0.00    +0.000 C 
ATOM     12  O   UNL     1      -2.720  13.180  22.745  0.00  0.00    +0.000 OA
ENDBRANCH   9  12
ENDBRANCH   3   9
ENDBRANCH   1   6
BRANCH   2  13
ATOM     13  C   UNL     1       2.179   6.836  19.826  0.00  0.00    +0.000 A 
ATOM     14  C   UNL     1       2.968   6.784  18.671  0.00  0.00    +0.000 A 
ATOM     15  C   UNL     1       3.478   5.570  18.201  0.00  0.00    +0.000 A 
ATOM     16  C   UNL     1       3.204   4.397  18.905  0.00  0.00    +0.000 A 
ATOM     17  C   UNL     1       2.440   4.429  20.071  0.00  0.00    +0.000 A 
ATOM     18  C   UNL     1       1.951   5.648  20.537  0.00  0.00    +0.000 A 
BRANCH  16  19
ATOM     19  S   UNL     1       3.789   2.847  18.297  0.00  0.00    +0.000 S 
ATOM     20  O   UNL     1       2.770   1.843  18.493  0.00  0.00    +0.000 OA
ATOM     21  O   UNL     1       4.439   3.047  17.023  0.00  0.00    +0.000 OA
BRANCH  19  22
ATOM     22  N   UNL     1       5.008   2.492  19.392  0.00  0.00    +0.000 NA
ATOM     23  H   UNL     1       4.874   3.027  20.249  0.00  0.00    +0.000 HD
ATOM     24  H   UNL     1       5.071   1.485  19.532  0.00  0.00    +0.000 HD
ENDBRANCH  19  22
ENDBRANCH  16  19
ENDBRANCH   2  13
TORSDOF 6
ENDMDL
MODEL 3
REMARK VINA RESULT:      -6.9      7.218      9.524
REMARK  Name = 
REMARK  7 active torsions:
REMARK  status: ('A' for Active; 'I' for Inactive)
REMARK    1  A    between atoms: C_1  and  O_2
REMARK    2  A    between atoms: O_2  and  C_3
REMARK    3  A    between atoms: C_3  and  C_5
REMARK    4  A    between atoms: C_8  and  C_9
REMARK    5  A    between atoms: N_10  and  C_11
REMARK    6  A    between atoms: C_14  and  S_15
REMARK    7  A    between atoms: S_15  and  N_16
REMARK                            x       y       z     vdW  Elec       q    Type
REMARK                         _______ _______ _______ _____ _____    ______ ____
ROOT
ATOM      1  C   UNL     1       8.277   9.570  18.438  0.00  0.00    +0.000 C 
ATOM      2  N   UNL     1       8.424   8.531  17.681  0.00  0.00    +0.000 NA
ENDROOT
BRANCH   1   6
ATOM      3  C   UNL     1      10.699  13.062  18.096  0.00  0.00    +0.000 A 
ATOM      4  C   UNL     1       9.376  13.079  17.630  0.00  0.00    +0.000 A 
ATOM      5  C   UNL     1       8.581  11.936  17.723  0.00  0.00    +0.000 A 
ATOM      6  C   UNL     1       9.110  10.774  18.286  0.00  0.00    +0.000 A 
ATOM      7  C   UNL     1      10.427  10.743  18.750  0.00  0.00    +0.000 A 
ATOM      8  C   UNL     1      11.223  11.887  18.653  0.00  0.00    +0.000 A 
BRANCH   3   9
ATOM      9  C   UNL     1      11.491  14.312  17.985  0.00  0.00    +0.000 C 
ATOM     10  O   UNL     1      12.259  14.699  18.854  0.00  0.00    +0.000 OA
BRANCH   9  12
ATOM     11  C   UNL     1      11.099  16.358  16.939  0.00  0.00    +0.000 C 
ATOM     12  O   UNL     1      11.241  14.942  16.812  0.00  0.00    +0.000 OA
ENDBRANCH   9  12
ENDBRANCH   3   9
ENDBRANCH   1   6
BRANCH   2  13
ATOM     13  C   UNL     1       7.555   7.438  17.837  0.00  0.00    +0.000 A 
ATOM     14  C   UNL     1       6.350   7.456  17.123  0.00  0.00    +0.000 A 
ATOM     15  C   UNL     1       5.417   6.424  17.260  0.00  0.00    +0.000 A 
ATOM     16  C   UNL     1       5.701   5.356  18.112  0.00  0.00    +0.000 A 
ATOM     17  C   UNL     1       6.906   5.306  18.814  0.00  0.00    +0.000 A 
ATOM     18  C   UNL     1       7.834   6.334  18.656  0.00  0.00    +0.000 A 
BRANCH  16  19
ATOM     19  S   UNL     1       4.512   4.072  18.343  0.00  0.00    +0.000 S 
ATOM     20  O   UNL     1       3.355   4.611  19.016  0.00  0.00    +0.000 OA
ATOM     21  O   UNL     1       4.407   3.294  17.130  0.00  0.00    +0.000 OA
BRANCH  19  22
ATOM     22  N   UNL     1       5.286   3.091  19.460  0.00  0.00    +0.000 NA
ATOM     23  H   UNL     1       5.886   3.653  20.063  0.00  0.00    +0.000 HD
ATOM     24  H   UNL     1       4.603   2.524  19.960  0.00  0.00    +0.000 HD
ENDBRANCH  19  22
ENDBRANCH  16  19
ENDBRANCH   2  13
TORSDOF 6
ENDMDL
MODEL 4
REMARK VINA RESULT:      -6.9      0.543      1.165
REMARK  Name = 
REMARK  7 active torsions:
REMARK  status: ('A' for Active; 'I' for Inactive)
REMARK    1  A    between atoms: C_1  and  O_2
REMARK    2  A    between atoms: O_2  and  C_3
REMARK    3  A    between atoms: C_3  and  C_5
REMARK    4  A    between atoms: C_8  and  C_9
REMARK    5  A    between atoms: N_10  and  C_11
REMARK    6  A    between atoms: C_14  and  S_15
REMARK    7  A    between atoms: S_15  and  N_16
REMARK                            x       y       z     vdW  Elec       q    Type
REMARK                         _______ _______ _______ _____ _____    ______ ____
ROOT
ATOM      1  C   UNL     1       1.060   8.432  20.864  0.00  0.00    +0.000 C 
ATOM      2  N   UNL     1       1.577   8.551  19.685  0.00  0.00    +0.000 NA
ENDROOT
BRANCH   1   6
ATOM      3  C   UNL     1      -1.422  11.480  22.515  0.00  0.00    +0.000 A 
ATOM      4  C   UNL     1      -0.993  10.415  23.320  0.00  0.00    +0.000 A 
ATOM      5  C   UNL     1      -0.194   9.404  22.784  0.00  0.00    +0.000 A 
ATOM      6  C   UNL     1       0.179   9.461  21.441  0.00  0.00    +0.000 A 
ATOM      7  C   UNL     1      -0.245  10.515  20.627  0.00  0.00    +0.000 A 
ATOM      8  C   UNL     1      -1.048  11.524  21.164  0.00  0.00    +0.000 A 
BRANCH   3   9
ATOM      9  C   UNL     1      -2.257  12.535  23.144  0.00  0.00    +0.000 C 
ATOM     10  O   UNL     1      -1.874  13.684  23.309  0.00  0.00    +0.000 OA
BRANCH   9  12
ATOM     11  C   UNL     1      -4.551  12.939  23.225  0.00  0.00    +0.000 C 
ATOM     12  O   UNL     1      -3.469  12.045  23.498  0.00  0.00    +0.000 OA
ENDBRANCH   9  12
ENDBRANCH   3   9
ENDBRANCH   1   6
BRANCH   2  13
ATOM     13  C   UNL     1       2.360   7.505  19.168  0.00  0.00    +0.000 A 
ATOM     14  C   UNL     1       2.449   6.326  19.919  0.00  0.00    +0.000 A 
ATOM     15  C   UNL     1       3.242   5.258  19.490  0.00  0.00    +0.000 A 
ATOM     16  C   UNL     1       3.943   5.367  18.289  0.00  0.00    +0.000 A 
ATOM     17  C   UNL     1       3.849   6.523  17.513  0.00  0.00    +0.000 A 
ATOM     18  C   UNL     1       3.042   7.575  17.945  0.00  0.00    +0.000 A 
BRANCH  16  19
ATOM     19  S   UNL     1       4.995   4.053  17.758  0.00  0.00    +0.000 S 
ATOM     20  O   UNL     1       4.192   3.017  17.152  0.00  0.00    +0.000 OA
ATOM     21  O   UNL     1       6.159   4.606  17.106  0.00  0.00    +0.000 OA
BRANCH  19  22
ATOM     22  N   UNL     1       5.528   3.434  19.221  0.00  0.00    +0.000 NA
ATOM     23  H   UNL     1       6.277   2.762  19.064  0.00  0.00    +0.000 HD
ATOM     24  H   UNL     1       5.773   4.194  19.854  0.00  0.00    +0.000 HD
ENDBRANCH  19  22
ENDBRANCH  16  19
ENDBRANCH   2  13
TORSDOF 6
ENDMDL
MODEL 5
REMARK VINA RESULT:      -6.9      7.305      9.489
REMARK  Name = 
REMARK  7 active torsions:
REMARK  status: ('A' for Active; 'I' for Inactive)
REMARK    1  A    between atoms: C_1  and  O_2
REMARK    2  A    between atoms: O_2  and  C_3
REMARK    3  A    between atoms: C_3  and  C_5
REMARK    4  A    between atoms: C_8  and  C_9
REMARK    5  A    between atoms: N_10  and  C_11
REMARK    6  A    between atoms: C_14  and  S_15
REMARK    7  A    between atoms: S_15  and  N_16
REMARK                            x       y       z     vdW  Elec       q    Type
REMARK                         _______ _______ _______ _____ _____    ______ ____
ROOT
ATOM      1  C   UNL     1       8.639   9.574  18.594  0.00  0.00    +0.000 C 
ATOM      2  N   UNL     1       8.293   8.839  17.588  0.00  0.00    +0.000 NA
ENDROOT
BRANCH   1   6
ATOM      3  C   UNL     1      10.788  13.236  18.201  0.00  0.00    +0.000 A 
ATOM      4  C   UNL     1       9.503  13.116  17.652  0.00  0.00    +0.000 A 
ATOM      5  C   UNL     1       8.799  11.916  17.761  0.00  0.00    +0.000 A 
ATOM      6  C   UNL     1       9.380  10.835  18.425  0.00  0.00    +0.000 A 
ATOM      7  C   UNL     1      10.661  10.941  18.973  0.00  0.00    +0.000 A 
ATOM      8  C   UNL     1      11.366  12.141  18.859  0.00  0.00    +0.000 A 
BRANCH   3   9
ATOM      9  C   UNL     1      11.482  14.542  18.068  0.00  0.00    +0.000 C 
ATOM     10  O   UNL     1      11.818  15.016  16.993  0.00  0.00    +0.000 OA
BRANCH   9  12
ATOM     11  C   UNL     1      10.790  16.189  19.565  0.00  0.00    +0.000 C 
ATOM     12  O   UNL     1      11.683  15.109  19.282  0.00  0.00    +0.000 OA
ENDBRANCH   9  12
ENDBRANCH   3   9
ENDBRANCH   1   6
BRANCH   2  13
ATOM     13  C   UNL     1       7.533   7.679  17.813  0.00  0.00    +0.000 A 
ATOM     14  C   UNL     1       6.309   7.562  17.143  0.00  0.00    +0.000 A 
ATOM     15  C   UNL     1       5.479   6.456  17.349  0.00  0.00    +0.000 A 
ATOM     16  C   UNL     1       5.886   5.451  18.226  0.00  0.00    +0.000 A 
ATOM     17  C   UNL     1       7.112   5.536  18.886  0.00  0.00    +0.000 A 
ATOM     18  C   UNL     1       7.937   6.636  18.660  0.00  0.00    +0.000 A 
BRANCH  16  19
ATOM     19  S   UNL     1       4.827   4.075  18.544  0.00  0.00    +0.000 S 
ATOM     20  O   UNL     1       5.385   3.282  19.614  0.00  0.00    +0.000 OA
ATOM     21  O   UNL     1       3.453   4.521  18.551  0.00  0.00    +0.000 OA
BRANCH  19  22
ATOM     22  N   UNL     1       5.018   3.170  17.146  0.00  0.00    +0.000 NA
ATOM     23  H   UNL     1       5.503   3.719  16.439  0.00  0.00    +0.000 HD
ATOM     24  H   UNL     1       5.463   2.280  17.364  0.00  0.00    +0.000 HD
ENDBRANCH  19  22
ENDBRANCH  16  19
ENDBRANCH   2  13
TORSDOF 6
ENDMDL
MODEL 6
REMARK VINA RESULT:      -6.8      0.930      1.016
REMARK  Name = 
REMARK  7 active torsions:
REMARK  status: ('A' for Active; 'I' for Inactive)
REMARK    1  A    between atoms: C_1  and  O_2
REMARK    2  A    between atoms: O_2  and  C_3
REMARK    3  A    between atoms: C_3  and  C_5
REMARK    4  A    between atoms: C_8  and  C_9
REMARK    5  A    between atoms: N_10  and  C_11
REMARK    6  A    between atoms: C_14  and  S_15
REMARK    7  A    between atoms: S_15  and  N_16
REMARK                            x       y       z     vdW  Elec       q    Type
REMARK                         _______ _______ _______ _____ _____    ______ ____
ROOT
ATOM      1  C   UNL     1       1.168   8.598  20.880  0.00  0.00    +0.000 C 
ATOM      2  N   UNL     1       1.543   8.607  19.642  0.00  0.00    +0.000 NA
ENDROOT
BRANCH   1   6
ATOM      3  C   UNL     1      -1.466  11.530  22.506  0.00  0.00    +0.000 A 
ATOM      4  C   UNL     1      -1.002  11.659  21.189  0.00  0.00    +0.000 A 
ATOM      5  C   UNL     1      -0.127  10.713  20.654  0.00  0.00    +0.000 A 
ATOM      6  C   UNL     1       0.283   9.634  21.437  0.00  0.00    +0.000 A 
ATOM      7  C   UNL     1      -0.168   9.496  22.753  0.00  0.00    +0.000 A 
ATOM      8  C   UNL     1      -1.042  10.446  23.288  0.00  0.00    +0.000 A 
BRANCH   3   9
ATOM      9  C   UNL     1      -2.408  12.558  23.016  0.00  0.00    +0.000 C 
ATOM     10  O   UNL     1      -2.049  13.652  23.428  0.00  0.00    +0.000 OA
BRANCH   9  12
ATOM     11  C   UNL     1      -4.526  12.891  22.102  0.00  0.00    +0.000 C 
ATOM     12  O   UNL     1      -3.687  12.114  22.959  0.00  0.00    +0.000 OA
ENDBRANCH   9  12
ENDBRANCH   3   9
ENDBRANCH   1   6
BRANCH   2  13
ATOM     13  C   UNL     1       2.339   7.555  19.158  0.00  0.00    +0.000 A 
ATOM     14  C   UNL     1       2.424   6.392  19.934  0.00  0.00    +0.000 A 
ATOM     15  C   UNL     1       3.229   5.320  19.538  0.00  0.00    +0.000 A 
ATOM     16  C   UNL     1       3.946   5.409  18.344  0.00  0.00    +0.000 A 
ATOM     17  C   UNL     1       3.856   6.548  17.544  0.00  0.00    +0.000 A 
ATOM     18  C   UNL     1       3.038   7.604  17.943  0.00  0.00    +0.000 A 
BRANCH  16  19
ATOM     19  S   UNL     1       5.012   4.090  17.854  0.00  0.00    +0.000 S 
ATOM     20  O   UNL     1       4.881   3.875  16.433  0.00  0.00    +0.000 OA
ATOM     21  O   UNL     1       6.297   4.252  18.495  0.00  0.00    +0.000 OA
BRANCH  19  22
ATOM     22  N   UNL     1       4.284   2.774  18.593  0.00  0.00    +0.000 NA
ATOM     23  H   UNL     1       3.313   2.699  18.295  0.00  0.00    +0.000 HD
ATOM     24  H   UNL     1       4.837   1.933  18.435  0.00  0.00    +0.000 HD
ENDBRANCH  19  22
ENDBRANCH  16  19
ENDBRANCH   2  13
TORSDOF 6
ENDMDL
MODEL 7
REMARK VINA RESULT:      -6.8      1.175      1.639
REMARK  Name = 
REMARK  7 active torsions:
REMARK  status: ('A' for Active; 'I' for Inactive)
REMARK    1  A    between atoms: C_1  and  O_2
REMARK    2  A    between atoms: O_2  and  C_3
REMARK    3  A    between atoms: C_3  and  C_5
REMARK    4  A    between atoms: C_8  and  C_9
REMARK    5  A    between atoms: N_10  and  C_11
REMARK    6  A    between atoms: C_14  and  S_15
REMARK    7  A    between atoms: S_15  and  N_16
REMARK                            x       y       z     vdW  Elec       q    Type
REMARK                         _______ _______ _______ _____ _____    ______ ____
ROOT
ATOM      1  C   UNL     1       0.833   8.234  21.097  0.00  0.00    +0.000 C 
ATOM      2  N   UNL     1       1.686   8.184  20.126  0.00  0.00    +0.000 NA
ENDROOT
BRANCH   1   6
ATOM      3  C   UNL     1      -0.792  11.946  22.425  0.00  0.00    +0.000 A 
ATOM      4  C   UNL     1      -0.984  10.785  23.188  0.00  0.00    +0.000 A 
ATOM      5  C   UNL     1      -0.470   9.563  22.753  0.00  0.00    +0.000 A 
ATOM      6  C   UNL     1       0.241   9.502  21.554  0.00  0.00    +0.000 A 
ATOM      7  C   UNL     1       0.436  10.652  20.782  0.00  0.00    +0.000 A 
ATOM      8  C   UNL     1      -0.083  11.874  21.218  0.00  0.00    +0.000 A 
BRANCH   3   9
ATOM      9  C   UNL     1      -1.347  13.221  22.946  0.00  0.00    +0.000 C 
ATOM     10  O   UNL     1      -0.887  13.807  23.915  0.00  0.00    +0.000 OA
BRANCH   9  12
ATOM     11  C   UNL     1      -3.658  13.097  22.669  0.00  0.00    +0.000 C 
ATOM     12  O   UNL     1      -2.411  13.622  22.209  0.00  0.00    +0.000 OA
ENDBRANCH   9  12
ENDBRANCH   3   9
ENDBRANCH   1   6
BRANCH   2  13
ATOM     13  C   UNL     1       2.167   6.936  19.698  0.00  0.00    +0.000 A 
ATOM     14  C   UNL     1       1.903   5.823  20.507  0.00  0.00    +0.000 A 
ATOM     15  C   UNL     1       2.385   4.556  20.168  0.00  0.00    +0.000 A 
ATOM     16  C   UNL     1       3.130   4.399  18.998  0.00  0.00    +0.000 A 
ATOM     17  C   UNL     1       3.385   5.489  18.165  0.00  0.00    +0.000 A 
ATOM     18  C   UNL     1       2.885   6.745  18.508  0.00  0.00    +0.000 A 
BRANCH  16  19
ATOM     19  S   UNL     1       3.796   2.819  18.581  0.00  0.00    +0.000 S 
ATOM     20  O   UNL     1       2.860   1.790  18.970  0.00  0.00    +0.000 OA
ATOM     21  O   UNL     1       4.373   2.877  17.258  0.00  0.00    +0.000 OA
BRANCH  19  22
ATOM     22  N   UNL     1       5.084   2.703  19.648  0.00  0.00    +0.000 NA
ATOM     23  H   UNL     1       5.134   1.762  20.035  0.00  0.00    +0.000 HD
ATOM     24  H   UNL     1       5.942   3.016  19.196  0.00  0.00    +0.000 HD
ENDBRANCH  19  22
ENDBRANCH  16  19
ENDBRANCH   2  13
TORSDOF 6
ENDMDL
MODEL 8
REMARK VINA RESULT:      -6.8      1.403      1.927
REMARK  Name = 
REMARK  7 active torsions:
REMARK  status: ('A' for Active; 'I' for Inactive)
REMARK    1  A    between atoms: C_1  and  O_2
REMARK    2  A    between atoms: O_2  and  C_3
REMARK    3  A    between atoms: C_3  and  C_5
REMARK    4  A    between atoms: C_8  and  C_9
REMARK    5  A    between atoms: N_10  and  C_11
REMARK    6  A    between atoms: C_14  and  S_15
REMARK    7  A    between atoms: S_15  and  N_16
REMARK                            x       y       z     vdW  Elec       q    Type
REMARK                         _______ _______ _______ _____ _____    ______ ____
ROOT
ATOM      1  C   UNL     1       0.911   8.175  21.228  0.00  0.00    +0.000 C 
ATOM      2  N   UNL     1       1.660   8.105  20.176  0.00  0.00    +0.000 NA
ENDROOT
BRANCH   1   6
ATOM      3  C   UNL     1      -0.773  11.872  22.522  0.00  0.00    +0.000 A 
ATOM      4  C   UNL     1      -1.082  10.686  23.204  0.00  0.00    +0.000 A 
ATOM      5  C   UNL     1      -0.549   9.469  22.777  0.00  0.00    +0.000 A 
ATOM      6  C   UNL     1       0.298   9.439  21.668  0.00  0.00    +0.000 A 
ATOM      7  C   UNL     1       0.610  10.614  20.979  0.00  0.00    +0.000 A 
ATOM      8  C   UNL     1       0.073  11.831  21.405  0.00  0.00    +0.000 A 
BRANCH   3   9
ATOM      9  C   UNL     1      -1.357  13.139  23.032  0.00  0.00    +0.000 C 
ATOM     10  O   UNL     1      -0.763  13.897  23.785  0.00  0.00    +0.000 OA
BRANCH   9  12
ATOM     11  C   UNL     1      -3.585  13.565  23.570  0.00  0.00    +0.000 C 
ATOM     12  O   UNL     1      -2.611  13.321  22.552  0.00  0.00    +0.000 OA
ENDBRANCH   9  12
ENDBRANCH   3   9
ENDBRANCH   1   6
BRANCH   2  13
ATOM     13  C   UNL     1       2.164   6.856  19.774  0.00  0.00    +0.000 A 
ATOM     14  C   UNL     1       1.891   5.751  20.589  0.00  0.00    +0.000 A 
ATOM     15  C   UNL     1       2.394   4.484  20.276  0.00  0.00    +0.000 A 
ATOM     16  C   UNL     1       3.169   4.322  19.127  0.00  0.00    +0.000 A 
ATOM     17  C   UNL     1       3.433   5.405  18.288  0.00  0.00    +0.000 A 
ATOM     18  C   UNL     1       2.912   6.659  18.603  0.00  0.00    +0.000 A 
BRANCH  16  19
ATOM     19  S   UNL     1       3.861   2.744  18.745  0.00  0.00    +0.000 S 
ATOM     20  O   UNL     1       4.314   2.743  17.374  0.00  0.00    +0.000 OA
ATOM     21  O   UNL     1       4.705   2.316  19.836  0.00  0.00    +0.000 OA
BRANCH  19  22
ATOM     22  N   UNL     1       2.505   1.760  18.789  0.00  0.00    +0.000 NA
ATOM     23  H   UNL     1       1.734   2.248  19.241  0.00  0.00    +0.000 HD
ATOM     24  H   UNL     1       2.293   1.415  17.854  0.00  0.00    +0.000 HD
ENDBRANCH  19  22
ENDBRANCH  16  19
ENDBRANCH   2  13
TORSDOF 6
ENDMDL
MODEL 9
REMARK VINA RESULT:      -6.8      1.221      1.518
REMARK  Name = 
REMARK  7 active torsions:
REMARK  status: ('A' for Active; 'I' for Inactive)
REMARK    1  A    between atoms: C_1  and  O_2
REMARK    2  A    between atoms: O_2  and  C_3
REMARK    3  A    between atoms: C_3  and  C_5
REMARK    4  A    between atoms: C_8  and  C_9
REMARK    5  A    between atoms: N_10  and  C_11
REMARK    6  A    between atoms: C_14  and  S_15
REMARK    7  A    between atoms: S_15  and  N_16
REMARK                            x       y       z     vdW  Elec       q    Type
REMARK                         _______ _______ _______ _____ _____    ______ ____
ROOT
ATOM      1  C   UNL     1       1.153   8.421  20.822  0.00  0.00    +0.000 C 
ATOM      2  N   UNL     1       0.919   7.173  21.069  0.00  0.00    +0.000 NA
ENDROOT
BRANCH   1   6
ATOM      3  C   UNL     1      -1.260  11.486  22.545  0.00  0.00    +0.000 A 
ATOM      4  C   UNL     1      -0.749  11.643  21.248  0.00  0.00    +0.000 A 
ATOM      5  C   UNL     1       0.055  10.653  20.682  0.00  0.00    +0.000 A 
ATOM      6  C   UNL     1       0.346   9.501  21.414  0.00  0.00    +0.000 A 
ATOM      7  C   UNL     1      -0.154   9.334  22.709  0.00  0.00    +0.000 A 
ATOM      8  C   UNL     1      -0.955  10.328  23.275  0.00  0.00    +0.000 A 
BRANCH   3   9
ATOM      9  C   UNL     1      -2.122  12.565  23.088  0.00  0.00    +0.000 C 
ATOM     10  O   UNL     1      -1.713  13.690  23.336  0.00  0.00    +0.000 OA
BRANCH   9  12
ATOM     11  C   UNL     1      -4.372  12.926  22.597  0.00  0.00    +0.000 C 
ATOM     12  O   UNL     1      -3.393  12.127  23.264  0.00  0.00    +0.000 OA
ENDBRANCH   9  12
ENDBRANCH   3   9
ENDBRANCH   1   6
BRANCH   2  13
ATOM     13  C   UNL     1       1.764   6.194  20.521  0.00  0.00    +0.000 A 
ATOM     14  C   UNL     1       1.533   4.860  20.880  0.00  0.00    +0.000 A 
ATOM     15  C   UNL     1       2.359   3.835  20.408  0.00  0.00    +0.000 A 
ATOM     16  C   UNL     1       3.419   4.149  19.557  0.00  0.00    +0.000 A 
ATOM     17  C   UNL     1       3.653   5.469  19.169  0.00  0.00    +0.000 A 
ATOM     18  C   UNL     1       2.813   6.479  19.634  0.00  0.00    +0.000 A 
BRANCH  16  19
ATOM     19  S   UNL     1       4.508   2.878  18.997  0.00  0.00    +0.000 S 
ATOM     20  O   UNL     1       4.957   2.103  20.129  0.00  0.00    +0.000 OA
ATOM     21  O   UNL     1       3.955   2.263  17.812  0.00  0.00    +0.000 OA
BRANCH  19  22
ATOM     22  N   UNL     1       5.834   3.767  18.487  0.00  0.00    +0.000 NA
ATOM     23  H   UNL     1       6.627   3.596  19.102  0.00  0.00    +0.000 HD
ATOM     24  H   UNL     1       6.020   3.585  17.502  0.00  0.00    +0.000 HD
ENDBRANCH  19  22
ENDBRANCH  16  19
ENDBRANCH   2  13
TORSDOF 6
ENDMDL
