MODEL 1
REMARK VINA RESULT:      -7.7      0.000      0.000
REMARK  Name = 
REMARK  4 active torsions:
REMARK  status: ('A' for Active; 'I' for Inactive)
REMARK    1  A    between atoms: N_1  and  C_2
REMARK    2  A    between atoms: C_3  and  C_4
REMARK    3  A    between atoms: C_4  and  C_6
REMARK    4  A    between atoms: C_18  and  C_19
REMARK                            x       y       z     vdW  Elec       q    Type
REMARK                         _______ _______ _______ _____ _____    ______ ____
ROOT
ATOM      1  C   UNL     1       1.872   8.574  18.716  0.00  0.00    +0.000 A 
ATOM      2  C   UNL     1       2.386   7.316  19.115  0.00  0.00    +0.000 A 
ATOM      3  C   UNL     1       2.062   6.781  20.362  0.00  0.00    +0.000 A 
ATOM      4  C   UNL     1       1.248   7.499  21.220  0.00  0.00    +0.000 A 
ATOM      5  N   UNL     1       0.691   8.719  20.863  0.00  0.00    +0.000 N 
ATOM      6  O   UNL     1      -0.087   9.268  21.715  0.00  0.00    +0.000 OA
ATOM      7  C   UNL     1       0.972   9.274  19.591  0.00  0.00    +0.000 A 
ENDROOT
BRANCH   7   8
ATOM      8  C   UNL     1       0.243  10.523  19.205  0.00  0.00    +0.000 A 
ATOM      9  C   UNL     1       0.774  11.807  19.442  0.00  0.00    +0.000 A 
ATOM     10  C   UNL     1       0.045  12.972  19.169  0.00  0.00    +0.000 A 
ATOM     11  C   UNL     1      -1.217  12.887  18.592  0.00  0.00    +0.000 A 
ATOM     12  C   UNL     1      -1.749  11.635  18.308  0.00  0.00    +0.000 A 
ATOM     13 CL   UNL     1      -3.287  11.510  17.550  0.00  0.00    +0.000 Cl
ATOM     14  C   UNL     1      -1.045  10.472  18.636  0.00  0.00    +0.000 A 
ENDBRANCH   7   8
BRANCH   1  15
ATOM     15  N   UNL     1       2.215   9.087  17.443  0.00  0.00    +0.000 N 
ATOM     16  H   UNL     1       2.439  10.079  17.428  0.00  0.00    +0.000 HD
ATOM     17  H   UNL     1       2.863   8.526  16.897  0.00  0.00    +0.000 HD
ENDBRANCH   1  15
BRANCH   2  18
ATOM     18  C   UNL     1       3.234   6.445  18.255  0.00  0.00    +0.000 C 
ATOM     19  O   UNL     1       3.977   6.997  17.442  0.00  0.00    +0.000 OA
BRANCH  18  20
ATOM     20  C   UNL     1       3.235   4.969  18.322  0.00  0.00    +0.000 A 
ATOM     21  C   UNL     1       4.370   4.335  18.862  0.00  0.00    +0.000 A 
ATOM     22  C   UNL     1       4.423   2.942  18.932  0.00  0.00    +0.000 A 
ATOM     23  C   UNL     1       3.346   2.194  18.470  0.00  0.00    +0.000 A 
ATOM     24  F   UNL     1       3.396   0.854  18.546  0.00  0.00    +0.000 F 
ATOM     25  C   UNL     1       2.225   2.803  17.924  0.00  0.00    +0.000 A 
ATOM     26  C   UNL     1       2.187   4.192  17.834  0.00  0.00    +0.000 A 
ATOM     27  F   UNL     1       1.122   4.754  17.243  0.00  0.00    +0.000 F 
ENDBRANCH  18  20
ENDBRANCH   2  18
TORSDOF 4
ENDMDL
MODEL 2
REMARK VINA RESULT:      -7.7      1.122      1.476
REMARK  Name = 
REMARK  4 active torsions:
REMARK  status: ('A' for Active; 'I' for Inactive)
REMARK    1  A    between atoms: N_1  and  C_2
REMARK    2  A    between atoms: C_3  and  C_4
REMARK    3  A    between atoms: C_4  and  C_6
REMARK    4  A    between atoms: C_18  and  C_19
REMARK                            x       y       z     vdW  Elec       q    Type
REMARK                         _______ _______ _______ _____ _____    ______ ____
ROOT
ATOM      1  C   UNL     1       1.903   8.629  18.678  0.00  0.00    +0.000 A 
ATOM      2  C   UNL     1       2.389   7.364  19.087  0.00  0.00    +0.000 A 
ATOM      3  C   UNL     1       2.044   6.841  20.333  0.00  0.00    +0.000 A 
ATOM      4  C   UNL     1       1.236   7.579  21.181  0.00  0.00    +0.000 A 
ATOM      5  N   UNL     1       0.706   8.808  20.814  0.00  0.00    +0.000 N 
ATOM      6  O   UNL     1      -0.068   9.376  21.657  0.00  0.00    +0.000 OA
ATOM      7  C   UNL     1       1.010   9.351  19.541  0.00  0.00    +0.000 A 
ENDROOT
BRANCH   7   8
ATOM      8  C   UNL     1       0.309  10.612  19.144  0.00  0.00    +0.000 A 
ATOM      9  C   UNL     1      -0.953  10.606  18.515  0.00  0.00    +0.000 A 
ATOM     10  C   UNL     1      -1.558  11.783  18.058  0.00  0.00    +0.000 A 
ATOM     11  C   UNL     1      -0.945  13.013  18.271  0.00  0.00    +0.000 A 
ATOM     12  C   UNL     1       0.279  13.054  18.926  0.00  0.00    +0.000 A 
ATOM     13 CL   UNL     1       1.030  14.568  19.244  0.00  0.00    +0.000 Cl
ATOM     14  C   UNL     1       0.911  11.873  19.330  0.00  0.00    +0.000 A 
ENDBRANCH   7   8
BRANCH   1  15
ATOM     15  N   UNL     1       2.267   9.130  17.406  0.00  0.00    +0.000 N 
ATOM     16  H   UNL     1       2.800   8.485  16.828  0.00  0.00    +0.000 HD
ATOM     17  H   UNL     1       1.535   9.611  16.890  0.00  0.00    +0.000 HD
ENDBRANCH   1  15
BRANCH   2  18
ATOM     18  C   UNL     1       3.227   6.472  18.238  0.00  0.00    +0.000 C 
ATOM     19  O   UNL     1       3.977   7.006  17.419  0.00  0.00    +0.000 OA
BRANCH  18  20
ATOM     20  C   UNL     1       3.210   4.997  18.322  0.00  0.00    +0.000 A 
ATOM     21  C   UNL     1       4.337   4.357  18.872  0.00  0.00    +0.000 A 
ATOM     22  C   UNL     1       4.374   2.964  18.959  0.00  0.00    +0.000 A 
ATOM     23  C   UNL     1       3.288   2.223  18.505  0.00  0.00    +0.000 A 
ATOM     24  F   UNL     1       3.323   0.884  18.597  0.00  0.00    +0.000 F 
ATOM     25  C   UNL     1       2.176   2.839  17.949  0.00  0.00    +0.000 A 
ATOM     26  C   UNL     1       2.154   4.227  17.843  0.00  0.00    +0.000 A 
ATOM     27  F   UNL     1       1.097   4.794  17.243  0.00  0.00    +0.000 F 
ENDBRANCH  18  20
ENDBRANCH   2  18
TORSDOF 4
ENDMDL
MODEL 3
REMARK VINA RESULT:      -7.6      5.450      7.722
REMARK  Name = 
REMARK  4 active torsions:
REMARK  status: ('A' for Active; 'I' for Inactive)
REMARK    1  A    between atoms: N_1  and  C_2
REMARK    2  A    between atoms: C_3  and  C_4
REMARK    3  A    between atoms: C_4  and  C_6
REMARK    4  A    between atoms: C_18  and  C_19
REMARK                            x       y       z     vdW  Elec       q    Type
REMARK                         _______ _______ _______ _____ _____    ______ ____
ROOT
ATOM      1  C   UNL     1       5.867   4.974  16.840  0.00  0.00    +0.000 A 
ATOM      2  C   UNL     1       5.164   5.520  17.941  0.00  0.00    +0.000 A 
ATOM      3  C   UNL     1       4.373   6.658  17.784  0.00  0.00    +0.000 A 
ATOM      4  C   UNL     1       4.295   7.266  16.544  0.00  0.00    +0.000 A 
ATOM      5  N   UNL     1       4.936   6.751  15.426  0.00  0.00    +0.000 N 
ATOM      6  O   UNL     1       4.752   7.367  14.321  0.00  0.00    +0.000 OA
ATOM      7  C   UNL     1       5.719   5.577  15.544  0.00  0.00    +0.000 A 
ENDROOT
BRANCH   7   8
ATOM      8  C   UNL     1       6.280   4.991  14.287  0.00  0.00    +0.000 A 
ATOM      9  C   UNL     1       7.492   5.437  13.723  0.00  0.00    +0.000 A 
ATOM     10  C   UNL     1       7.961   4.954  12.495  0.00  0.00    +0.000 A 
ATOM     11  C   UNL     1       7.259   3.961  11.822  0.00  0.00    +0.000 A 
ATOM     12  C   UNL     1       6.083   3.471  12.374  0.00  0.00    +0.000 A 
ATOM     13 CL   UNL     1       5.225   2.207  11.581  0.00  0.00    +0.000 Cl
ATOM     14  C   UNL     1       5.584   3.996  13.570  0.00  0.00    +0.000 A 
ENDBRANCH   7   8
BRANCH   1  15
ATOM     15  N   UNL     1       6.657   3.816  17.031  0.00  0.00    +0.000 N 
ATOM     16  H   UNL     1       7.247   3.565  16.242  0.00  0.00    +0.000 HD
ATOM     17  H   UNL     1       7.139   3.747  17.923  0.00  0.00    +0.000 HD
ENDBRANCH   1  15
BRANCH   2  18
ATOM     18  C   UNL     1       5.146   4.922  19.306  0.00  0.00    +0.000 C 
ATOM     19  O   UNL     1       6.188   4.968  19.961  0.00  0.00    +0.000 OA
BRANCH  18  20
ATOM     20  C   UNL     1       3.959   4.281  19.910  0.00  0.00    +0.000 A 
ATOM     21  C   UNL     1       2.900   5.113  20.319  0.00  0.00    +0.000 A 
ATOM     22  C   UNL     1       1.764   4.556  20.909  0.00  0.00    +0.000 A 
ATOM     23  C   UNL     1       1.691   3.178  21.081  0.00  0.00    +0.000 A 
ATOM     24  F   UNL     1       0.593   2.644  21.642  0.00  0.00    +0.000 F 
ATOM     25  C   UNL     1       2.732   2.346  20.695  0.00  0.00    +0.000 A 
ATOM     26  C   UNL     1       3.873   2.909  20.128  0.00  0.00    +0.000 A 
ATOM     27  F   UNL     1       4.891   2.091  19.823  0.00  0.00    +0.000 F 
ENDBRANCH  18  20
ENDBRANCH   2  18
TORSDOF 4
ENDMDL
MODEL 4
REMARK VINA RESULT:      -7.6      0.981      1.376
REMARK  Name = 
REMARK  4 active torsions:
REMARK  status: ('A' for Active; 'I' for Inactive)
REMARK    1  A    between atoms: N_1  and  C_2
REMARK    2  A    between atoms: C_3  and  C_4
REMARK    3  A    between atoms: C_4  and  C_6
REMARK    4  A    between atoms: C_18  and  C_19
REMARK                            x       y       z     vdW  Elec       q    Type
REMARK                         _______ _______ _______ _____ _____    ______ ____
ROOT
ATOM      1  C   UNL     1       1.835   8.713  18.727  0.00  0.00    +0.000 A 
ATOM      2  C   UNL     1       2.387   7.463  19.098  0.00  0.00    +0.000 A 
ATOM      3  C   UNL     1       2.086   6.894  20.334  0.00  0.00    +0.000 A 
ATOM      4  C   UNL     1       1.255   7.570  21.211  0.00  0.00    +0.000 A 
ATOM      5  N   UNL     1       0.661   8.780  20.881  0.00  0.00    +0.000 N 
ATOM      6  O   UNL     1      -0.128   9.288  21.748  0.00  0.00    +0.000 OA
ATOM      7  C   UNL     1       0.919   9.368  19.620  0.00  0.00    +0.000 A 
ENDROOT
BRANCH   7   8
ATOM      8  C   UNL     1       0.152  10.603  19.263  0.00  0.00    +0.000 A 
ATOM      9  C   UNL     1       0.634  11.897  19.546  0.00  0.00    +0.000 A 
ATOM     10  C   UNL     1      -0.131  13.043  19.299  0.00  0.00    +0.000 A 
ATOM     11  C   UNL     1      -1.382  12.933  18.704  0.00  0.00    +0.000 A 
ATOM     12  C   UNL     1      -1.866  11.674  18.375  0.00  0.00    +0.000 A 
ATOM     13 CL   UNL     1      -3.391  11.519  17.592  0.00  0.00    +0.000 Cl
ATOM     14  C   UNL     1      -1.127  10.526  18.675  0.00  0.00    +0.000 A 
ENDBRANCH   7   8
BRANCH   1  15
ATOM     15  N   UNL     1       2.156   9.262  17.463  0.00  0.00    +0.000 N 
ATOM     16  H   UNL     1       2.442  10.238  17.480  0.00  0.00    +0.000 HD
ATOM     17  H   UNL     1       2.743   8.688  16.864  0.00  0.00    +0.000 HD
ENDBRANCH   1  15
BRANCH   2  18
ATOM     18  C   UNL     1       3.257   6.635  18.216  0.00  0.00    +0.000 C 
ATOM     19  O   UNL     1       3.951   7.224  17.386  0.00  0.00    +0.000 OA
BRANCH  18  20
ATOM     20  C   UNL     1       3.331   5.161  18.280  0.00  0.00    +0.000 A 
ATOM     21  C   UNL     1       2.300   4.423  17.669  0.00  0.00    +0.000 A 
ATOM     22  C   UNL     1       2.319   3.028  17.717  0.00  0.00    +0.000 A 
ATOM     23  C   UNL     1       3.365   2.381  18.365  0.00  0.00    +0.000 A 
ATOM     24  F   UNL     1       3.385   1.039  18.402  0.00  0.00    +0.000 F 
ATOM     25  C   UNL     1       4.382   3.094  18.982  0.00  0.00    +0.000 A 
ATOM     26  C   UNL     1       4.347   4.486  18.953  0.00  0.00    +0.000 A 
ATOM     27  F   UNL     1       5.306   5.153  19.612  0.00  0.00    +0.000 F 
ENDBRANCH  18  20
ENDBRANCH   2  18
TORSDOF 4
ENDMDL
MODEL 5
REMARK VINA RESULT:      -7.6      1.455      1.995
REMARK  Name = 
REMARK  4 active torsions:
REMARK  status: ('A' for Active; 'I' for Inactive)
REMARK    1  A    between atoms: N_1  and  C_2
REMARK    2  A    between atoms: C_3  and  C_4
REMARK    3  A    between atoms: C_4  and  C_6
REMARK    4  A    between atoms: C_18  and  C_19
REMARK                            x       y       z     vdW  Elec       q    Type
REMARK                         _______ _______ _______ _____ _____    ______ ____
ROOT
ATOM      1  C   UNL     1       1.854   8.704  18.710  0.00  0.00    +0.000 A 
ATOM      2  C   UNL     1       2.384   7.449  19.097  0.00  0.00    +0.000 A 
ATOM      3  C   UNL     1       2.062   6.895  20.336  0.00  0.00    +0.000 A 
ATOM      4  C   UNL     1       1.234   7.592  21.198  0.00  0.00    +0.000 A 
ATOM      5  N   UNL     1       0.661   8.808  20.853  0.00  0.00    +0.000 N 
ATOM      6  O   UNL     1      -0.128   9.336  21.707  0.00  0.00    +0.000 OA
ATOM      7  C   UNL     1       0.941   9.381  19.588  0.00  0.00    +0.000 A 
ENDROOT
BRANCH   7   8
ATOM      8  C   UNL     1       0.196  10.624  19.213  0.00  0.00    +0.000 A 
ATOM      9  C   UNL     1      -1.069  10.586  18.593  0.00  0.00    +0.000 A 
ATOM     10  C   UNL     1      -1.716  11.748  18.156  0.00  0.00    +0.000 A 
ATOM     11  C   UNL     1      -1.142  12.994  18.383  0.00  0.00    +0.000 A 
ATOM     12  C   UNL     1       0.084  13.066  19.031  0.00  0.00    +0.000 A 
ATOM     13 CL   UNL     1       0.788  14.600  19.365  0.00  0.00    +0.000 Cl
ATOM     14  C   UNL     1       0.757  11.902  19.413  0.00  0.00    +0.000 A 
ENDBRANCH   7   8
BRANCH   1  15
ATOM     15  N   UNL     1       2.196   9.237  17.444  0.00  0.00    +0.000 N 
ATOM     16  H   UNL     1       2.880   9.989  17.467  0.00  0.00    +0.000 HD
ATOM     17  H   UNL     1       2.377   8.558  16.710  0.00  0.00    +0.000 HD
ENDBRANCH   1  15
BRANCH   2  18
ATOM     18  C   UNL     1       3.249   6.600  18.231  0.00  0.00    +0.000 C 
ATOM     19  O   UNL     1       3.955   7.170  17.399  0.00  0.00    +0.000 OA
BRANCH  18  20
ATOM     20  C   UNL     1       3.305   5.125  18.313  0.00  0.00    +0.000 A 
ATOM     21  C   UNL     1       2.251   4.394  17.733  0.00  0.00    +0.000 A 
ATOM     22  C   UNL     1       2.252   2.999  17.799  0.00  0.00    +0.000 A 
ATOM     23  C   UNL     1       3.303   2.347  18.435  0.00  0.00    +0.000 A 
ATOM     24  F   UNL     1       3.305   1.005  18.489  0.00  0.00    +0.000 F 
ATOM     25  C   UNL     1       4.342   3.054  19.022  0.00  0.00    +0.000 A 
ATOM     26  C   UNL     1       4.324   4.446  18.975  0.00  0.00    +0.000 A 
ATOM     27  F   UNL     1       5.305   5.108  19.607  0.00  0.00    +0.000 F 
ENDBRANCH  18  20
ENDBRANCH   2  18
TORSDOF 4
ENDMDL
MODEL 6
REMARK VINA RESULT:      -7.4      3.698      7.636
REMARK  Name = 
REMARK  4 active torsions:
REMARK  status: ('A' for Active; 'I' for Inactive)
REMARK    1  A    between atoms: N_1  and  C_2
REMARK    2  A    between atoms: C_3  and  C_4
REMARK    3  A    between atoms: C_4  and  C_6
REMARK    4  A    between atoms: C_18  and  C_19
REMARK                            x       y       z     vdW  Elec       q    Type
REMARK                         _______ _______ _______ _____ _____    ______ ____
ROOT
ATOM      1  C   UNL     1       1.964   8.160  18.702  0.00  0.00    +0.000 A 
ATOM      2  C   UNL     1       1.231   9.042  19.531  0.00  0.00    +0.000 A 
ATOM      3  C   UNL     1       0.855   8.658  20.818  0.00  0.00    +0.000 A 
ATOM      4  C   UNL     1       1.186   7.394  21.275  0.00  0.00    +0.000 A 
ATOM      5  N   UNL     1       1.933   6.505  20.515  0.00  0.00    +0.000 N 
ATOM      6  O   UNL     1       2.223   5.386  21.059  0.00  0.00    +0.000 OA
ATOM      7  C   UNL     1       2.360   6.878  19.217  0.00  0.00    +0.000 A 
ENDROOT
BRANCH   7   8
ATOM      8  C   UNL     1       3.272   5.938  18.494  0.00  0.00    +0.000 A 
ATOM      9  C   UNL     1       2.787   4.860  17.726  0.00  0.00    +0.000 A 
ATOM     10  C   UNL     1       3.646   3.927  17.133  0.00  0.00    +0.000 A 
ATOM     11  C   UNL     1       5.024   4.079  17.240  0.00  0.00    +0.000 A 
ATOM     12  C   UNL     1       5.532   5.156  17.955  0.00  0.00    +0.000 A 
ATOM     13 CL   UNL     1       7.233   5.390  18.057  0.00  0.00    +0.000 Cl
ATOM     14  C   UNL     1       4.673   6.054  18.596  0.00  0.00    +0.000 A 
ENDBRANCH   7   8
BRANCH   1  15
ATOM     15  N   UNL     1       2.336   8.581  17.404  0.00  0.00    +0.000 N 
ATOM     16  H   UNL     1       1.559   8.814  16.790  0.00  0.00    +0.000 HD
ATOM     17  H   UNL     1       3.095   9.255  17.354  0.00  0.00    +0.000 HD
ENDBRANCH   1  15
BRANCH   2  18
ATOM     18  C   UNL     1       0.860  10.435  19.154  0.00  0.00    +0.000 C 
ATOM     19  O   UNL     1       1.777  11.236  18.962  0.00  0.00    +0.000 OA
BRANCH  18  20
ATOM     20  C   UNL     1      -0.532  10.906  19.001  0.00  0.00    +0.000 A 
ATOM     21  C   UNL     1      -1.020  11.833  19.941  0.00  0.00    +0.000 A 
ATOM     22  C   UNL     1      -2.334  12.295  19.846  0.00  0.00    +0.000 A 
ATOM     23  C   UNL     1      -3.146  11.836  18.816  0.00  0.00    +0.000 A 
ATOM     24  F   UNL     1      -4.407  12.290  18.722  0.00  0.00    +0.000 F 
ATOM     25  C   UNL     1      -2.684  10.914  17.889  0.00  0.00    +0.000 A 
ATOM     26  C   UNL     1      -1.380  10.437  18.001  0.00  0.00    +0.000 A 
ATOM     27  F   UNL     1      -0.978   9.497  17.133  0.00  0.00    +0.000 F 
ENDBRANCH  18  20
ENDBRANCH   2  18
TORSDOF 4
ENDMDL
MODEL 7
REMARK VINA RESULT:      -7.3      5.111      7.176
REMARK  Name = 
REMARK  4 active torsions:
REMARK  status: ('A' for Active; 'I' for Inactive)
REMARK    1  A    between atoms: N_1  and  C_2
REMARK    2  A    between atoms: C_3  and  C_4
REMARK    3  A    between atoms: C_4  and  C_6
REMARK    4  A    between atoms: C_18  and  C_19
REMARK                            x       y       z     vdW  Elec       q    Type
REMARK                         _______ _______ _______ _____ _____    ______ ____
ROOT
ATOM      1  C   UNL     1       4.664   4.401  17.125  0.00  0.00    +0.000 A 
ATOM      2  C   UNL     1       5.620   5.278  16.558  0.00  0.00    +0.000 A 
ATOM      3  C   UNL     1       5.464   6.660  16.659  0.00  0.00    +0.000 A 
ATOM      4  C   UNL     1       4.351   7.173  17.302  0.00  0.00    +0.000 A 
ATOM      5  N   UNL     1       3.403   6.358  17.904  0.00  0.00    +0.000 N 
ATOM      6  O   UNL     1       2.444   6.943  18.513  0.00  0.00    +0.000 OA
ATOM      7  C   UNL     1       3.551   4.951  17.849  0.00  0.00    +0.000 A 
ENDROOT
BRANCH   7   8
ATOM      8  C   UNL     1       2.575   4.123  18.625  0.00  0.00    +0.000 A 
ATOM      9  C   UNL     1       1.430   3.555  18.032  0.00  0.00    +0.000 A 
ATOM     10  C   UNL     1       0.470   2.865  18.783  0.00  0.00    +0.000 A 
ATOM     11  C   UNL     1       0.659   2.669  20.146  0.00  0.00    +0.000 A 
ATOM     12  C   UNL     1       1.800   3.180  20.751  0.00  0.00    +0.000 A 
ATOM     13 CL   UNL     1       2.077   2.905  22.427  0.00  0.00    +0.000 Cl
ATOM     14  C   UNL     1       2.728   3.920  20.012  0.00  0.00    +0.000 A 
ENDBRANCH   7   8
BRANCH   1  15
ATOM     15  N   UNL     1       4.854   3.004  17.010  0.00  0.00    +0.000 N 
ATOM     16  H   UNL     1       4.912   2.657  16.056  0.00  0.00    +0.000 HD
ATOM     17  H   UNL     1       5.556   2.598  17.623  0.00  0.00    +0.000 HD
ENDBRANCH   1  15
BRANCH   2  18
ATOM     18  C   UNL     1       6.872   4.832  15.883  0.00  0.00    +0.000 C 
ATOM     19  O   UNL     1       7.809   4.476  16.599  0.00  0.00    +0.000 OA
BRANCH  18  20
ATOM     20  C   UNL     1       7.050   4.792  14.417  0.00  0.00    +0.000 A 
ATOM     21  C   UNL     1       7.954   5.703  13.840  0.00  0.00    +0.000 A 
ATOM     22  C   UNL     1       8.145   5.715  12.457  0.00  0.00    +0.000 A 
ATOM     23  C   UNL     1       7.439   4.817  11.664  0.00  0.00    +0.000 A 
ATOM     24  F   UNL     1       7.631   4.824  10.334  0.00  0.00    +0.000 F 
ATOM     25  C   UNL     1       6.535   3.921  12.216  0.00  0.00    +0.000 A 
ATOM     26  C   UNL     1       6.331   3.930  13.594  0.00  0.00    +0.000 A 
ATOM     27  F   UNL     1       5.404   3.100  14.096  0.00  0.00    +0.000 F 
ENDBRANCH  18  20
ENDBRANCH   2  18
TORSDOF 4
ENDMDL
MODEL 8
REMARK VINA RESULT:      -7.3      5.456      7.670
REMARK  Name = 
REMARK  4 active torsions:
REMARK  status: ('A' for Active; 'I' for Inactive)
REMARK    1  A    between atoms: N_1  and  C_2
REMARK    2  A    between atoms: C_3  and  C_4
REMARK    3  A    between atoms: C_4  and  C_6
REMARK    4  A    between atoms: C_18  and  C_19
REMARK                            x       y       z     vdW  Elec       q    Type
REMARK                         _______ _______ _______ _____ _____    ______ ____
ROOT
ATOM      1  C   UNL     1       5.855   5.010  16.817  0.00  0.00    +0.000 A 
ATOM      2  C   UNL     1       5.152   5.576  17.908  0.00  0.00    +0.000 A 
ATOM      3  C   UNL     1       4.370   6.717  17.733  0.00  0.00    +0.000 A 
ATOM      4  C   UNL     1       4.300   7.309  16.484  0.00  0.00    +0.000 A 
ATOM      5  N   UNL     1       4.940   6.774  15.375  0.00  0.00    +0.000 N 
ATOM      6  O   UNL     1       4.764   7.376  14.262  0.00  0.00    +0.000 OA
ATOM      7  C   UNL     1       5.715   5.596  15.513  0.00  0.00    +0.000 A 
ENDROOT
BRANCH   7   8
ATOM      8  C   UNL     1       6.275   4.989  14.265  0.00  0.00    +0.000 A 
ATOM      9  C   UNL     1       7.499   5.409  13.707  0.00  0.00    +0.000 A 
ATOM     10  C   UNL     1       7.970   4.905  12.487  0.00  0.00    +0.000 A 
ATOM     11  C   UNL     1       7.256   3.919  11.817  0.00  0.00    +0.000 A 
ATOM     12  C   UNL     1       6.067   3.454  12.365  0.00  0.00    +0.000 A 
ATOM     13 CL   UNL     1       5.194   2.198  11.577  0.00  0.00    +0.000 Cl
ATOM     14  C   UNL     1       5.568   3.999  13.552  0.00  0.00    +0.000 A 
ENDBRANCH   7   8
BRANCH   1  15
ATOM     15  N   UNL     1       6.636   3.849  17.026  0.00  0.00    +0.000 N 
ATOM     16  H   UNL     1       6.458   3.365  17.903  0.00  0.00    +0.000 HD
ATOM     17  H   UNL     1       6.715   3.217  16.234  0.00  0.00    +0.000 HD
ENDBRANCH   1  15
BRANCH   2  18
ATOM     18  C   UNL     1       5.126   4.997  19.281  0.00  0.00    +0.000 C 
ATOM     19  O   UNL     1       6.171   5.029  19.933  0.00  0.00    +0.000 OA
BRANCH  18  20
ATOM     20  C   UNL     1       3.928   4.391  19.898  0.00  0.00    +0.000 A 
ATOM     21  C   UNL     1       3.883   2.988  20.007  0.00  0.00    +0.000 A 
ATOM     22  C   UNL     1       2.765   2.369  20.569  0.00  0.00    +0.000 A 
ATOM     23  C   UNL     1       1.708   3.150  21.022  0.00  0.00    +0.000 A 
ATOM     24  F   UNL     1       0.637   2.551  21.570  0.00  0.00    +0.000 F 
ATOM     25  C   UNL     1       1.731   4.532  20.910  0.00  0.00    +0.000 A 
ATOM     26  C   UNL     1       2.838   5.144  20.327  0.00  0.00    +0.000 A 
ATOM     27  F   UNL     1       2.809   6.476  20.170  0.00  0.00    +0.000 F 
ENDBRANCH  18  20
ENDBRANCH   2  18
TORSDOF 4
ENDMDL
MODEL 9
REMARK VINA RESULT:      -7.3      4.231      7.746
REMARK  Name = 
REMARK  4 active torsions:
REMARK  status: ('A' for Active; 'I' for Inactive)
REMARK    1  A    between atoms: N_1  and  C_2
REMARK    2  A    between atoms: C_3  and  C_4
REMARK    3  A    between atoms: C_4  and  C_6
REMARK    4  A    between atoms: C_18  and  C_19
REMARK                            x       y       z     vdW  Elec       q    Type
REMARK                         _______ _______ _______ _____ _____    ______ ____
ROOT
ATOM      1  C   UNL     1       2.023   8.056  18.659  0.00  0.00    +0.000 A 
ATOM      2  C   UNL     1       1.276   8.938  19.477  0.00  0.00    +0.000 A 
ATOM      3  C   UNL     1       0.891   8.558  20.762  0.00  0.00    +0.000 A 
ATOM      4  C   UNL     1       1.227   7.299  21.229  0.00  0.00    +0.000 A 
ATOM      5  N   UNL     1       1.987   6.412  20.481  0.00  0.00    +0.000 N 
ATOM      6  O   UNL     1       2.280   5.297  21.034  0.00  0.00    +0.000 OA
ATOM      7  C   UNL     1       2.423   6.780  19.185  0.00  0.00    +0.000 A 
ENDROOT
BRANCH   7   8
ATOM      8  C   UNL     1       3.348   5.843  18.476  0.00  0.00    +0.000 A 
ATOM      9  C   UNL     1       2.878   4.784  17.673  0.00  0.00    +0.000 A 
ATOM     10  C   UNL     1       3.746   3.851  17.092  0.00  0.00    +0.000 A 
ATOM     11  C   UNL     1       5.120   3.986  17.246  0.00  0.00    +0.000 A 
ATOM     12  C   UNL     1       5.616   5.045  17.996  0.00  0.00    +0.000 A 
ATOM     13 CL   UNL     1       7.316   5.258  18.158  0.00  0.00    +0.000 Cl
ATOM     14  C   UNL     1       4.747   5.941  18.625  0.00  0.00    +0.000 A 
ENDBRANCH   7   8
BRANCH   1  15
ATOM     15  N   UNL     1       2.403   8.473  17.362  0.00  0.00    +0.000 N 
ATOM     16  H   UNL     1       3.305   8.941  17.309  0.00  0.00    +0.000 HD
ATOM     17  H   UNL     1       2.265   7.795  16.618  0.00  0.00    +0.000 HD
ENDBRANCH   1  15
BRANCH   2  18
ATOM     18  C   UNL     1       0.899  10.326  19.089  0.00  0.00    +0.000 C 
ATOM     19  O   UNL     1       1.810  11.138  18.923  0.00  0.00    +0.000 OA
BRANCH  18  20
ATOM     20  C   UNL     1      -0.494  10.779  18.895  0.00  0.00    +0.000 A 
ATOM     21  C   UNL     1      -1.224  10.221  17.828  0.00  0.00    +0.000 A 
ATOM     22  C   UNL     1      -2.539  10.629  17.595  0.00  0.00    +0.000 A 
ATOM     23  C   UNL     1      -3.115  11.581  18.428  0.00  0.00    +0.000 A 
ATOM     24  F   UNL     1      -4.384  11.965  18.206  0.00  0.00    +0.000 F 
ATOM     25  C   UNL     1      -2.406  12.149  19.475  0.00  0.00    +0.000 A 
ATOM     26  C   UNL     1      -1.086  11.757  19.689  0.00  0.00    +0.000 A 
ATOM     27  F   UNL     1      -0.400  12.368  20.667  0.00  0.00    +0.000 F 
ENDBRANCH  18  20
ENDBRANCH   2  18
TORSDOF 4
ENDMDL
