MODEL 1
REMARK VINA RESULT:      -7.5      0.000      0.000
REMARK  Name = 
REMARK  4 active torsions:
REMARK  status: ('A' for Active; 'I' for Inactive)
REMARK    1  A    between atoms: C_1  and  C_2
REMARK    2  A    between atoms: N_9  and  C_10
REMARK    3  A    between atoms: C_10  and  C_11
REMARK    4  A    between atoms: C_15  and  O_16
REMARK                            x       y       z     vdW  Elec       q    Type
REMARK                         _______ _______ _______ _____ _____    ______ ____
ROOT
ATOM      1  C   UNL     1       4.425   3.151  11.758  0.00  0.00    +0.000 C 
ATOM      2  C   UNL     1       5.342   3.830  12.735  0.00  0.00    +0.000 A 
ATOM      3  C   UNL     1       6.717   3.981  12.439  0.00  0.00    +0.000 A 
ATOM      4  C   UNL     1       7.590   4.575  13.355  0.00  0.00    +0.000 A 
ATOM      5  C   UNL     1       7.060   5.007  14.553  0.00  0.00    +0.000 A 
ATOM      6  O   UNL     1       7.785   5.592  15.577  0.00  0.00    +0.000 OA
ATOM      7  C   UNL     1       6.797   5.815  16.534  0.00  0.00    +0.000 A 
ATOM      8  S   UNL     1       7.275   6.506  17.968  0.00  0.00    +0.000 S 
ATOM      9  N   UNL     1       5.546   5.414  16.109  0.00  0.00    +0.000 N 
ATOM     10  C   UNL     1       5.716   4.878  14.846  0.00  0.00    +0.000 A 
ATOM     11  C   UNL     1       4.832   4.299  13.957  0.00  0.00    +0.000 A 
ENDROOT
BRANCH   9  12
ATOM     12  C   UNL     1       4.284   5.452  16.829  0.00  0.00    +0.000 C 
BRANCH  12  13
ATOM     13  C   UNL     1       3.943   4.127  17.470  0.00  0.00    +0.000 A 
ATOM     14  C   UNL     1       2.818   3.397  17.059  0.00  0.00    +0.000 A 
ATOM     15  C   UNL     1       2.457   2.216  17.711  0.00  0.00    +0.000 A 
ATOM     16  C   UNL     1       3.216   1.747  18.781  0.00  0.00    +0.000 A 
ATOM     17  C   UNL     1       4.347   2.454  19.172  0.00  0.00    +0.000 A 
ATOM     18  C   UNL     1       4.725   3.623  18.519  0.00  0.00    +0.000 A 
BRANCH  17  19
ATOM     19  O   UNL     1       5.116   2.039  20.219  0.00  0.00    +0.000 OA
ATOM     20  H   UNL     1       5.280   1.087  20.120  0.00  0.00    +0.000 HD
ENDBRANCH  17  19
ENDBRANCH  12  13
ENDBRANCH   9  12
TORSDOF 3
ENDMDL
MODEL 2
REMARK VINA RESULT:      -7.4      3.944      6.709
REMARK  Name = 
REMARK  4 active torsions:
REMARK  status: ('A' for Active; 'I' for Inactive)
REMARK    1  A    between atoms: C_1  and  C_2
REMARK    2  A    between atoms: N_9  and  C_10
REMARK    3  A    between atoms: C_10  and  C_11
REMARK    4  A    between atoms: C_15  and  O_16
REMARK                            x       y       z     vdW  Elec       q    Type
REMARK                         _______ _______ _______ _____ _____    ______ ____
ROOT
ATOM      1  C   UNL     1       1.769  10.252  18.292  0.00  0.00    +0.000 C 
ATOM      2  C   UNL     1       1.731   8.943  19.027  0.00  0.00    +0.000 A 
ATOM      3  C   UNL     1       0.985   8.816  20.223  0.00  0.00    +0.000 A 
ATOM      4  C   UNL     1       0.972   7.615  20.939  0.00  0.00    +0.000 A 
ATOM      5  C   UNL     1       1.710   6.564  20.436  0.00  0.00    +0.000 A 
ATOM      6  O   UNL     1       1.826   5.320  21.030  0.00  0.00    +0.000 OA
ATOM      7  C   UNL     1       2.675   4.659  20.144  0.00  0.00    +0.000 A 
ATOM      8  S   UNL     1       3.091   3.095  20.520  0.00  0.00    +0.000 S 
ATOM      9  N   UNL     1       3.032   5.444  19.067  0.00  0.00    +0.000 N 
ATOM     10  C   UNL     1       2.429   6.674  19.262  0.00  0.00    +0.000 A 
ATOM     11  C   UNL     1       2.456   7.846  18.533  0.00  0.00    +0.000 A 
ENDROOT
BRANCH   9  12
ATOM     12  C   UNL     1       3.920   5.125  17.961  0.00  0.00    +0.000 C 
BRANCH  12  13
ATOM     13  C   UNL     1       5.306   5.697  18.147  0.00  0.00    +0.000 A 
ATOM     14  C   UNL     1       5.857   6.570  17.197  0.00  0.00    +0.000 A 
ATOM     15  C   UNL     1       7.169   7.029  17.326  0.00  0.00    +0.000 A 
ATOM     16  C   UNL     1       7.947   6.626  18.410  0.00  0.00    +0.000 A 
ATOM     17  C   UNL     1       7.395   5.784  19.367  0.00  0.00    +0.000 A 
ATOM     18  C   UNL     1       6.083   5.333  19.255  0.00  0.00    +0.000 A 
BRANCH  17  19
ATOM     19  O   UNL     1       8.121   5.355  20.438  0.00  0.00    +0.000 OA
ATOM     20  H   UNL     1       7.885   4.430  20.617  0.00  0.00    +0.000 HD
ENDBRANCH  17  19
ENDBRANCH  12  13
ENDBRANCH   9  12
TORSDOF 3
ENDMDL
MODEL 3
REMARK VINA RESULT:      -7.2      1.708      2.321
REMARK  Name = 
REMARK  4 active torsions:
REMARK  status: ('A' for Active; 'I' for Inactive)
REMARK    1  A    between atoms: C_1  and  C_2
REMARK    2  A    between atoms: N_9  and  C_10
REMARK    3  A    between atoms: C_10  and  C_11
REMARK    4  A    between atoms: C_15  and  O_16
REMARK                            x       y       z     vdW  Elec       q    Type
REMARK                         _______ _______ _______ _____ _____    ______ ____
ROOT
ATOM      1  C   UNL     1       4.791   2.978  11.579  0.00  0.00    +0.000 C 
ATOM      2  C   UNL     1       5.574   3.676  12.655  0.00  0.00    +0.000 A 
ATOM      3  C   UNL     1       6.775   4.353  12.340  0.00  0.00    +0.000 A 
ATOM      4  C   UNL     1       7.535   4.974  13.336  0.00  0.00    +0.000 A 
ATOM      5  C   UNL     1       7.070   4.901  14.632  0.00  0.00    +0.000 A 
ATOM      6  O   UNL     1       7.708   5.437  15.736  0.00  0.00    +0.000 OA
ATOM      7  C   UNL     1       6.845   5.074  16.769  0.00  0.00    +0.000 A 
ATOM      8  S   UNL     1       7.276   5.524  18.309  0.00  0.00    +0.000 S 
ATOM      9  N   UNL     1       5.738   4.384  16.317  0.00  0.00    +0.000 N 
ATOM     10  C   UNL     1       5.890   4.255  14.948  0.00  0.00    +0.000 A 
ATOM     11  C   UNL     1       5.118   3.638  13.983  0.00  0.00    +0.000 A 
ENDROOT
BRANCH   9  12
ATOM     12  C   UNL     1       4.643   3.815  17.084  0.00  0.00    +0.000 C 
BRANCH  12  13
ATOM     13  C   UNL     1       3.875   4.861  17.860  0.00  0.00    +0.000 A 
ATOM     14  C   UNL     1       3.658   6.138  17.324  0.00  0.00    +0.000 A 
ATOM     15  C   UNL     1       3.024   7.129  18.075  0.00  0.00    +0.000 A 
ATOM     16  C   UNL     1       2.594   6.855  19.373  0.00  0.00    +0.000 A 
ATOM     17  C   UNL     1       2.783   5.582  19.896  0.00  0.00    +0.000 A 
ATOM     18  C   UNL     1       3.399   4.583  19.149  0.00  0.00    +0.000 A 
BRANCH  17  19
ATOM     19  O   UNL     1       2.389   5.270  21.163  0.00  0.00    +0.000 OA
ATOM     20  H   UNL     1       3.175   5.023  21.676  0.00  0.00    +0.000 HD
ENDBRANCH  17  19
ENDBRANCH  12  13
ENDBRANCH   9  12
TORSDOF 3
ENDMDL
MODEL 4
REMARK VINA RESULT:      -7.1      4.027      6.072
REMARK  Name = 
REMARK  4 active torsions:
REMARK  status: ('A' for Active; 'I' for Inactive)
REMARK    1  A    between atoms: C_1  and  C_2
REMARK    2  A    between atoms: N_9  and  C_10
REMARK    3  A    between atoms: C_10  and  C_11
REMARK    4  A    between atoms: C_15  and  O_16
REMARK                            x       y       z     vdW  Elec       q    Type
REMARK                         _______ _______ _______ _____ _____    ______ ____
ROOT
ATOM      1  C   UNL     1      -0.047   8.961  21.644  0.00  0.00    +0.000 C 
ATOM      2  C   UNL     1       0.819   8.788  20.429  0.00  0.00    +0.000 A 
ATOM      3  C   UNL     1       0.722   9.695  19.347  0.00  0.00    +0.000 A 
ATOM      4  C   UNL     1       1.492   9.525  18.193  0.00  0.00    +0.000 A 
ATOM      5  C   UNL     1       2.348   8.444  18.151  0.00  0.00    +0.000 A 
ATOM      6  O   UNL     1       3.159   8.116  17.080  0.00  0.00    +0.000 OA
ATOM      7  C   UNL     1       3.786   6.959  17.541  0.00  0.00    +0.000 A 
ATOM      8  S   UNL     1       4.858   6.217  16.510  0.00  0.00    +0.000 S 
ATOM      9  N   UNL     1       3.398   6.620  18.821  0.00  0.00    +0.000 N 
ATOM     10  C   UNL     1       2.461   7.561  19.207  0.00  0.00    +0.000 A 
ATOM     11  C   UNL     1       1.715   7.708  20.360  0.00  0.00    +0.000 A 
ENDROOT
BRANCH   9  12
ATOM     12  C   UNL     1       3.800   5.476  19.623  0.00  0.00    +0.000 C 
BRANCH  12  13
ATOM     13  C   UNL     1       3.088   4.206  19.217  0.00  0.00    +0.000 A 
ATOM     14  C   UNL     1       1.688   4.133  19.223  0.00  0.00    +0.000 A 
ATOM     15  C   UNL     1       1.034   2.935  18.931  0.00  0.00    +0.000 A 
ATOM     16  C   UNL     1       1.772   1.792  18.627  0.00  0.00    +0.000 A 
ATOM     17  C   UNL     1       3.159   1.868  18.594  0.00  0.00    +0.000 A 
ATOM     18  C   UNL     1       3.819   3.062  18.867  0.00  0.00    +0.000 A 
BRANCH  17  19
ATOM     19  O   UNL     1       3.923   0.775  18.311  0.00  0.00    +0.000 OA
ATOM     20  H   UNL     1       4.284   0.430  19.144  0.00  0.00    +0.000 HD
ENDBRANCH  17  19
ENDBRANCH  12  13
ENDBRANCH   9  12
TORSDOF 3
ENDMDL
MODEL 5
REMARK VINA RESULT:      -7.1      3.538      6.192
REMARK  Name = 
REMARK  4 active torsions:
REMARK  status: ('A' for Active; 'I' for Inactive)
REMARK    1  A    between atoms: C_1  and  C_2
REMARK    2  A    between atoms: N_9  and  C_10
REMARK    3  A    between atoms: C_10  and  C_11
REMARK    4  A    between atoms: C_15  and  O_16
REMARK                            x       y       z     vdW  Elec       q    Type
REMARK                         _______ _______ _______ _____ _____    ______ ____
ROOT
ATOM      1  C   UNL     1       1.922   9.609  17.763  0.00  0.00    +0.000 C 
ATOM      2  C   UNL     1       1.938   8.399  18.654  0.00  0.00    +0.000 A 
ATOM      3  C   UNL     1       1.556   8.507  20.012  0.00  0.00    +0.000 A 
ATOM      4  C   UNL     1       1.602   7.400  20.863  0.00  0.00    +0.000 A 
ATOM      5  C   UNL     1       2.032   6.203  20.330  0.00  0.00    +0.000 A 
ATOM      6  O   UNL     1       2.161   5.020  21.036  0.00  0.00    +0.000 OA
ATOM      7  C   UNL     1       2.634   4.151  20.053  0.00  0.00    +0.000 A 
ATOM      8  S   UNL     1       2.947   2.586  20.514  0.00  0.00    +0.000 S 
ATOM      9  N   UNL     1       2.761   4.762  18.822  0.00  0.00    +0.000 N 
ATOM     10  C   UNL     1       2.393   6.083  19.001  0.00  0.00    +0.000 A 
ATOM     11  C   UNL     1       2.352   7.161  18.138  0.00  0.00    +0.000 A 
ENDROOT
BRANCH   9  12
ATOM     12  C   UNL     1       3.250   4.203  17.573  0.00  0.00    +0.000 C 
BRANCH  12  13
ATOM     13  C   UNL     1       4.729   4.436  17.372  0.00  0.00    +0.000 A 
ATOM     14  C   UNL     1       5.316   4.283  16.108  0.00  0.00    +0.000 A 
ATOM     15  C   UNL     1       6.696   4.415  15.942  0.00  0.00    +0.000 A 
ATOM     16  C   UNL     1       7.508   4.706  17.036  0.00  0.00    +0.000 A 
ATOM     17  C   UNL     1       6.925   4.887  18.285  0.00  0.00    +0.000 A 
ATOM     18  C   UNL     1       5.549   4.773  18.458  0.00  0.00    +0.000 A 
BRANCH  17  19
ATOM     19  O   UNL     1       7.680   5.163  19.386  0.00  0.00    +0.000 OA
ATOM     20  H   UNL     1       7.949   4.323  19.791  0.00  0.00    +0.000 HD
ENDBRANCH  17  19
ENDBRANCH  12  13
ENDBRANCH   9  12
TORSDOF 3
ENDMDL
MODEL 6
REMARK VINA RESULT:      -7.1      3.562      6.564
REMARK  Name = 
REMARK  4 active torsions:
REMARK  status: ('A' for Active; 'I' for Inactive)
REMARK    1  A    between atoms: C_1  and  C_2
REMARK    2  A    between atoms: N_9  and  C_10
REMARK    3  A    between atoms: C_10  and  C_11
REMARK    4  A    between atoms: C_15  and  O_16
REMARK                            x       y       z     vdW  Elec       q    Type
REMARK                         _______ _______ _______ _____ _____    ______ ____
ROOT
ATOM      1  C   UNL     1       2.065   9.632  17.816  0.00  0.00    +0.000 C 
ATOM      2  C   UNL     1       1.965   8.449  18.735  0.00  0.00    +0.000 A 
ATOM      3  C   UNL     1       1.345   8.577  20.001  0.00  0.00    +0.000 A 
ATOM      4  C   UNL     1       1.280   7.495  20.883  0.00  0.00    +0.000 A 
ATOM      5  C   UNL     1       1.840   6.303  20.475  0.00  0.00    +0.000 A 
ATOM      6  O   UNL     1       1.884   5.146  21.232  0.00  0.00    +0.000 OA
ATOM      7  C   UNL     1       2.555   4.272  20.377  0.00  0.00    +0.000 A 
ATOM      8  S   UNL     1       2.837   2.734  20.938  0.00  0.00    +0.000 S 
ATOM      9  N   UNL     1       2.876   4.854  19.168  0.00  0.00    +0.000 N 
ATOM     10  C   UNL     1       2.435   6.163  19.235  0.00  0.00    +0.000 A 
ATOM     11  C   UNL     1       2.509   7.215  18.343  0.00  0.00    +0.000 A 
ENDROOT
BRANCH   9  12
ATOM     12  C   UNL     1       3.598   4.282  18.044  0.00  0.00    +0.000 C 
BRANCH  12  13
ATOM     13  C   UNL     1       5.023   4.777  17.958  0.00  0.00    +0.000 A 
ATOM     14  C   UNL     1       5.748   5.086  19.118  0.00  0.00    +0.000 A 
ATOM     15  C   UNL     1       7.033   5.624  19.034  0.00  0.00    +0.000 A 
ATOM     16  C   UNL     1       7.614   5.857  17.789  0.00  0.00    +0.000 A 
ATOM     17  C   UNL     1       6.909   5.526  16.638  0.00  0.00    +0.000 A 
ATOM     18  C   UNL     1       5.633   4.974  16.711  0.00  0.00    +0.000 A 
BRANCH  17  19
ATOM     19  O   UNL     1       7.432   5.745  15.398  0.00  0.00    +0.000 OA
ATOM     20  H   UNL     1       6.990   5.151  14.770  0.00  0.00    +0.000 HD
ENDBRANCH  17  19
ENDBRANCH  12  13
ENDBRANCH   9  12
TORSDOF 3
ENDMDL
MODEL 7
REMARK VINA RESULT:      -7.0      3.348      6.387
REMARK  Name = 
REMARK  4 active torsions:
REMARK  status: ('A' for Active; 'I' for Inactive)
REMARK    1  A    between atoms: C_1  and  C_2
REMARK    2  A    between atoms: N_9  and  C_10
REMARK    3  A    between atoms: C_10  and  C_11
REMARK    4  A    between atoms: C_15  and  O_16
REMARK                            x       y       z     vdW  Elec       q    Type
REMARK                         _______ _______ _______ _____ _____    ______ ____
ROOT
ATOM      1  C   UNL     1       1.852   8.465  19.942  0.00  0.00    +0.000 C 
ATOM      2  C   UNL     1       1.969   6.969  19.883  0.00  0.00    +0.000 A 
ATOM      3  C   UNL     1       1.234   6.158  20.780  0.00  0.00    +0.000 A 
ATOM      4  C   UNL     1       1.362   4.767  20.763  0.00  0.00    +0.000 A 
ATOM      5  C   UNL     1       2.228   4.216  19.842  0.00  0.00    +0.000 A 
ATOM      6  O   UNL     1       2.490   2.865  19.708  0.00  0.00    +0.000 OA
ATOM      7  C   UNL     1       3.423   2.857  18.671  0.00  0.00    +0.000 A 
ATOM      8  S   UNL     1       4.024   1.379  18.207  0.00  0.00    +0.000 S 
ATOM      9  N   UNL     1       3.690   4.122  18.189  0.00  0.00    +0.000 N 
ATOM     10  C   UNL     1       2.939   4.998  18.952  0.00  0.00    +0.000 A 
ATOM     11  C   UNL     1       2.828   6.374  18.944  0.00  0.00    +0.000 A 
ENDROOT
BRANCH   9  12
ATOM     12  C   UNL     1       4.621   4.522  17.147  0.00  0.00    +0.000 C 
BRANCH  12  13
ATOM     13  C   UNL     1       5.763   5.356  17.678  0.00  0.00    +0.000 A 
ATOM     14  C   UNL     1       6.264   6.441  16.944  0.00  0.00    +0.000 A 
ATOM     15  C   UNL     1       7.374   7.156  17.396  0.00  0.00    +0.000 A 
ATOM     16  C   UNL     1       7.997   6.800  18.590  0.00  0.00    +0.000 A 
ATOM     17  C   UNL     1       7.486   5.743  19.334  0.00  0.00    +0.000 A 
ATOM     18  C   UNL     1       6.370   5.034  18.900  0.00  0.00    +0.000 A 
BRANCH  17  19
ATOM     19  O   UNL     1       8.067   5.352  20.503  0.00  0.00    +0.000 OA
ATOM     20  H   UNL     1       7.922   4.399  20.614  0.00  0.00    +0.000 HD
ENDBRANCH  17  19
ENDBRANCH  12  13
ENDBRANCH   9  12
TORSDOF 3
ENDMDL
MODEL 8
REMARK VINA RESULT:      -6.9      3.904      5.797
REMARK  Name = 
REMARK  4 active torsions:
REMARK  status: ('A' for Active; 'I' for Inactive)
REMARK    1  A    between atoms: C_1  and  C_2
REMARK    2  A    between atoms: N_9  and  C_10
REMARK    3  A    between atoms: C_10  and  C_11
REMARK    4  A    between atoms: C_15  and  O_16
REMARK                            x       y       z     vdW  Elec       q    Type
REMARK                         _______ _______ _______ _____ _____    ______ ____
ROOT
ATOM      1  C   UNL     1       7.890   8.854  17.441  0.00  0.00    +0.000 C 
ATOM      2  C   UNL     1       7.371   7.560  18.001  0.00  0.00    +0.000 A 
ATOM      3  C   UNL     1       8.236   6.687  18.701  0.00  0.00    +0.000 A 
ATOM      4  C   UNL     1       7.779   5.461  19.193  0.00  0.00    +0.000 A 
ATOM      5  C   UNL     1       6.456   5.138  18.971  0.00  0.00    +0.000 A 
ATOM      6  O   UNL     1       5.850   3.959  19.367  0.00  0.00    +0.000 OA
ATOM      7  C   UNL     1       4.551   4.133  18.892  0.00  0.00    +0.000 A 
ATOM      8  S   UNL     1       3.477   2.893  19.153  0.00  0.00    +0.000 S 
ATOM      9  N   UNL     1       4.373   5.352  18.269  0.00  0.00    +0.000 N 
ATOM     10  C   UNL     1       5.600   5.990  18.302  0.00  0.00    +0.000 A 
ATOM     11  C   UNL     1       6.025   7.209  17.809  0.00  0.00    +0.000 A 
ENDROOT
BRANCH   9  12
ATOM     12  C   UNL     1       3.183   5.880  17.622  0.00  0.00    +0.000 C 
BRANCH  12  13
ATOM     13  C   UNL     1       2.567   7.026  18.390  0.00  0.00    +0.000 A 
ATOM     14  C   UNL     1       2.277   6.903  19.756  0.00  0.00    +0.000 A 
ATOM     15  C   UNL     1       1.629   7.931  20.444  0.00  0.00    +0.000 A 
ATOM     16  C   UNL     1       1.265   9.098  19.776  0.00  0.00    +0.000 A 
ATOM     17  C   UNL     1       1.576   9.234  18.428  0.00  0.00    +0.000 A 
ATOM     18  C   UNL     1       2.236   8.222  17.738  0.00  0.00    +0.000 A 
BRANCH  17  19
ATOM     19  O   UNL     1       1.230  10.353  17.730  0.00  0.00    +0.000 OA
ATOM     20  H   UNL     1       1.551  10.257  16.819  0.00  0.00    +0.000 HD
ENDBRANCH  17  19
ENDBRANCH  12  13
ENDBRANCH   9  12
TORSDOF 3
ENDMDL
MODEL 9
REMARK VINA RESULT:      -6.9      1.613      2.181
REMARK  Name = 
REMARK  4 active torsions:
REMARK  status: ('A' for Active; 'I' for Inactive)
REMARK    1  A    between atoms: C_1  and  C_2
REMARK    2  A    between atoms: N_9  and  C_10
REMARK    3  A    between atoms: C_10  and  C_11
REMARK    4  A    between atoms: C_15  and  O_16
REMARK                            x       y       z     vdW  Elec       q    Type
REMARK                         _______ _______ _______ _____ _____    ______ ____
ROOT
ATOM      1  C   UNL     1       5.603   2.309  11.447  0.00  0.00    +0.000 C 
ATOM      2  C   UNL     1       6.153   3.294  12.439  0.00  0.00    +0.000 A 
ATOM      3  C   UNL     1       7.049   4.306  12.021  0.00  0.00    +0.000 A 
ATOM      4  C   UNL     1       7.600   5.204  12.939  0.00  0.00    +0.000 A 
ATOM      5  C   UNL     1       7.238   5.067  14.263  0.00  0.00    +0.000 A 
ATOM      6  O   UNL     1       7.708   5.852  15.300  0.00  0.00    +0.000 OA
ATOM      7  C   UNL     1       7.056   5.294  16.398  0.00  0.00    +0.000 A 
ATOM      8  S   UNL     1       7.376   5.960  17.887  0.00  0.00    +0.000 S 
ATOM      9  N   UNL     1       6.223   4.251  16.047  0.00  0.00    +0.000 N 
ATOM     10  C   UNL     1       6.353   4.091  14.679  0.00  0.00    +0.000 A 
ATOM     11  C   UNL     1       5.791   3.194  13.792  0.00  0.00    +0.000 A 
ENDROOT
BRANCH   9  12
ATOM     12  C   UNL     1       5.410   3.405  16.904  0.00  0.00    +0.000 C 
BRANCH  12  13
ATOM     13  C   UNL     1       4.082   4.038  17.252  0.00  0.00    +0.000 A 
ATOM     14  C   UNL     1       3.971   5.425  17.428  0.00  0.00    +0.000 A 
ATOM     15  C   UNL     1       2.765   5.998  17.833  0.00  0.00    +0.000 A 
ATOM     16  C   UNL     1       1.651   5.193  18.065  0.00  0.00    +0.000 A 
ATOM     17  C   UNL     1       1.751   3.821  17.865  0.00  0.00    +0.000 A 
ATOM     18  C   UNL     1       2.944   3.242  17.445  0.00  0.00    +0.000 A 
BRANCH  17  19
ATOM     19  O   UNL     1       0.691   2.993  18.089  0.00  0.00    +0.000 OA
ATOM     20  H   UNL     1       0.580   2.422  17.312  0.00  0.00    +0.000 HD
ENDBRANCH  17  19
ENDBRANCH  12  13
ENDBRANCH   9  12
TORSDOF 3
ENDMDL
