MODEL 1
REMARK VINA RESULT:      -8.1      0.000      0.000
REMARK  Name = 
REMARK  7 active torsions:
REMARK  status: ('A' for Active; 'I' for Inactive)
REMARK    1  A    between atoms: C_1  and  C_2
REMARK    2  A    between atoms: N_4  and  C_5
REMARK    3  A    between atoms: N_4  and  S_15
REMARK    4  A    between atoms: C_5  and  C_6
REMARK    5  A    between atoms: S_15  and  C_18
REMARK    6  A    between atoms: C_21  and  C_22
REMARK    7  A    between atoms: C_22  and  O_24
REMARK                            x       y       z     vdW  Elec       q    Type
REMARK                         _______ _______ _______ _____ _____    ______ ____
ROOT
ATOM      1  C   UNL     1      -0.823  13.185  17.985  0.00  0.00    +0.000 C 
ATOM      2  C   UNL     1       0.271  13.582  18.951  0.00  0.00    +0.000 A 
ATOM      3  C   UNL     1       1.040  12.575  19.508  0.00  0.00    +0.000 A 
ATOM      4  N   UNL     1       0.404  11.548  20.253  0.00  0.00    +0.000 N 
ATOM      5  N   UNL     1       2.380  12.588  19.460  0.00  0.00    +0.000 NA
ATOM      6  C   UNL     1       2.946  13.680  18.874  0.00  0.00    +0.000 A 
ATOM      7  C   UNL     1       2.247  14.852  18.537  0.00  0.00    +0.000 A 
ATOM      8  C   UNL     1       2.813  16.022  17.991  0.00  0.00    +0.000 A 
ATOM      9  C   UNL     1       2.061  17.198  17.901  0.00  0.00    +0.000 A 
ATOM     10  C   UNL     1       0.759  17.228  18.392  0.00  0.00    +0.000 A 
ATOM     11  C   UNL     1       0.151  16.040  18.786  0.00  0.00    +0.000 A 
ATOM     12  C   UNL     1       0.873  14.833  18.771  0.00  0.00    +0.000 A 
ENDROOT
BRANCH   4  13
ATOM     13  S   UNL     1      -0.133  11.960  21.802  0.00  0.00    +0.000 S 
ATOM     14  O   UNL     1       0.093  10.830  22.685  0.00  0.00    +0.000 OA
ATOM     15  O   UNL     1       0.334  13.283  22.167  0.00  0.00    +0.000 OA
BRANCH  13  16
ATOM     16  C   UNL     1      -1.952  12.125  21.688  0.00  0.00    +0.000 A 
ATOM     17  C   UNL     1      -2.676  12.342  22.864  0.00  0.00    +0.000 A 
ATOM     18  C   UNL     1      -4.031  12.697  22.804  0.00  0.00    +0.000 A 
ATOM     19  C   UNL     1      -4.670  12.857  21.571  0.00  0.00    +0.000 A 
ATOM     20  C   UNL     1      -3.937  12.684  20.385  0.00  0.00    +0.000 A 
ATOM     21  C   UNL     1      -2.576  12.319  20.444  0.00  0.00    +0.000 A 
BRANCH  19  22
ATOM     22  C   UNL     1      -6.098  13.314  21.577  0.00  0.00    +0.000 C 
ATOM     23  O   UNL     1      -6.970  12.741  22.201  0.00  0.00    +0.000 OA
BRANCH  22  24
ATOM     24  O   UNL     1      -6.340  14.388  20.797  0.00  0.00    +0.000 OA
ATOM     25  H   UNL     1      -7.235  14.767  20.867  0.00  0.00    +0.000 HD
ENDBRANCH  22  24
ENDBRANCH  19  22
ENDBRANCH  13  16
ENDBRANCH   4  13
BRANCH   4  26
ATOM     26  C   UNL     1       0.236  10.206  19.722  0.00  0.00    +0.000 C 
BRANCH  26  27
ATOM     27  C   UNL     1       1.367   9.206  19.589  0.00  0.00    +0.000 A 
ATOM     28  C   UNL     1       1.965   9.170  18.297  0.00  0.00    +0.000 A 
ATOM     29  C   UNL     1       2.497   7.996  17.783  0.00  0.00    +0.000 A 
ATOM     30  C   UNL     1       2.439   6.889  18.597  0.00  0.00    +0.000 A 
ATOM     31  C   UNL     1       2.134   6.990  19.964  0.00  0.00    +0.000 A 
ATOM     32  C   UNL     1       1.575   8.147  20.481  0.00  0.00    +0.000 A 
ATOM     33  C   UNL     1       2.195   5.615  20.564  0.00  0.00    +0.000 C 
ATOM     34  C   UNL     1       1.599   4.869  19.366  0.00  0.00    +0.000 C 
ATOM     35  C   UNL     1       2.380   5.447  18.167  0.00  0.00    +0.000 C 
ENDBRANCH  26  27
ENDBRANCH   4  26
TORSDOF 6
ENDMDL
MODEL 2
REMARK VINA RESULT:      -8.0      3.153      6.599
REMARK  Name = 
REMARK  7 active torsions:
REMARK  status: ('A' for Active; 'I' for Inactive)
REMARK    1  A    between atoms: C_1  and  C_2
REMARK    2  A    between atoms: N_4  and  C_5
REMARK    3  A    between atoms: N_4  and  S_15
REMARK    4  A    between atoms: C_5  and  C_6
REMARK    5  A    between atoms: S_15  and  C_18
REMARK    6  A    between atoms: C_21  and  C_22
REMARK    7  A    between atoms: C_22  and  O_24
REMARK                            x       y       z     vdW  Elec       q    Type
REMARK                         _______ _______ _______ _____ _____    ______ ____
ROOT
ATOM      1  C   UNL     1      -2.081  15.606  20.910  0.00  0.00    +0.000 C 
ATOM      2  C   UNL     1      -2.286  14.883  22.223  0.00  0.00    +0.000 A 
ATOM      3  C   UNL     1      -1.166  14.402  22.879  0.00  0.00    +0.000 A 
ATOM      4  N   UNL     1      -0.315  13.482  22.213  0.00  0.00    +0.000 N 
ATOM      5  N   UNL     1      -0.909  14.690  24.163  0.00  0.00    +0.000 NA
ATOM      6  C   UNL     1      -1.845  15.446  24.803  0.00  0.00    +0.000 A 
ATOM      7  C   UNL     1      -3.119  15.737  24.288  0.00  0.00    +0.000 A 
ATOM      8  C   UNL     1      -4.133  16.460  24.952  0.00  0.00    +0.000 A 
ATOM      9  C   UNL     1      -5.431  16.498  24.433  0.00  0.00    +0.000 A 
ATOM     10  C   UNL     1      -5.738  15.784  23.278  0.00  0.00    +0.000 A 
ATOM     11  C   UNL     1      -4.711  15.202  22.543  0.00  0.00    +0.000 A 
ATOM     12  C   UNL     1      -3.384  15.259  23.005  0.00  0.00    +0.000 A 
ENDROOT
BRANCH   4  13
ATOM     13  S   UNL     1      -0.881  11.896  22.069  0.00  0.00    +0.000 S 
ATOM     14  O   UNL     1       0.225  10.986  22.306  0.00  0.00    +0.000 OA
ATOM     15  O   UNL     1      -2.132  11.736  22.786  0.00  0.00    +0.000 OA
BRANCH  13  16
ATOM     16  C   UNL     1      -1.324  11.666  20.308  0.00  0.00    +0.000 A 
ATOM     17  C   UNL     1      -0.601  10.735  19.556  0.00  0.00    +0.000 A 
ATOM     18  C   UNL     1      -1.043  10.363  18.278  0.00  0.00    +0.000 A 
ATOM     19  C   UNL     1      -2.219  10.902  17.748  0.00  0.00    +0.000 A 
ATOM     20  C   UNL     1      -2.974  11.805  18.517  0.00  0.00    +0.000 A 
ATOM     21  C   UNL     1      -2.525  12.186  19.799  0.00  0.00    +0.000 A 
BRANCH  19  22
ATOM     22  C   UNL     1      -2.678  10.404  16.411  0.00  0.00    +0.000 C 
ATOM     23  O   UNL     1      -3.192   9.313  16.257  0.00  0.00    +0.000 OA
BRANCH  22  24
ATOM     24  O   UNL     1      -2.432  11.250  15.389  0.00  0.00    +0.000 OA
ATOM     25  H   UNL     1      -1.944  10.870  14.636  0.00  0.00    +0.000 HD
ENDBRANCH  22  24
ENDBRANCH  19  22
ENDBRANCH  13  16
ENDBRANCH   4  13
BRANCH   4  26
ATOM     26  C   UNL     1       0.984  13.875  21.696  0.00  0.00    +0.000 C 
BRANCH  26  27
ATOM     27  C   UNL     1       1.269  14.111  20.226  0.00  0.00    +0.000 A 
ATOM     28  C   UNL     1       1.988  13.056  19.594  0.00  0.00    +0.000 A 
ATOM     29  C   UNL     1       2.866  13.309  18.550  0.00  0.00    +0.000 A 
ATOM     30  C   UNL     1       2.978  14.618  18.147  0.00  0.00    +0.000 A 
ATOM     31  C   UNL     1       2.060  15.600  18.554  0.00  0.00    +0.000 A 
ATOM     32  C   UNL     1       1.200  15.368  19.614  0.00  0.00    +0.000 A 
ATOM     33  C   UNL     1       2.443  16.901  17.908  0.00  0.00    +0.000 C 
ATOM     34  C   UNL     1       3.960  16.716  18.015  0.00  0.00    +0.000 C 
ATOM     35  C   UNL     1       4.174  15.273  17.509  0.00  0.00    +0.000 C 
ENDBRANCH  26  27
ENDBRANCH   4  26
TORSDOF 6
ENDMDL
MODEL 3
REMARK VINA RESULT:      -8.0      3.055      6.692
REMARK  Name = 
REMARK  7 active torsions:
REMARK  status: ('A' for Active; 'I' for Inactive)
REMARK    1  A    between atoms: C_1  and  C_2
REMARK    2  A    between atoms: N_4  and  C_5
REMARK    3  A    between atoms: N_4  and  S_15
REMARK    4  A    between atoms: C_5  and  C_6
REMARK    5  A    between atoms: S_15  and  C_18
REMARK    6  A    between atoms: C_21  and  C_22
REMARK    7  A    between atoms: C_22  and  O_24
REMARK                            x       y       z     vdW  Elec       q    Type
REMARK                         _______ _______ _______ _____ _____    ______ ____
ROOT
ATOM      1  C   UNL     1      -1.688  10.364  18.931  0.00  0.00    +0.000 C 
ATOM      2  C   UNL     1      -0.435  10.488  19.769  0.00  0.00    +0.000 A 
ATOM      3  C   UNL     1      -0.578  10.827  21.103  0.00  0.00    +0.000 A 
ATOM      4  N   UNL     1      -1.232  12.039  21.444  0.00  0.00    +0.000 N 
ATOM      5  N   UNL     1      -0.029  10.103  22.089  0.00  0.00    +0.000 NA
ATOM      6  C   UNL     1       0.726   9.037  21.697  0.00  0.00    +0.000 A 
ATOM      7  C   UNL     1       1.135   8.797  20.375  0.00  0.00    +0.000 A 
ATOM      8  C   UNL     1       1.968   7.742  19.947  0.00  0.00    +0.000 A 
ATOM      9  C   UNL     1       2.484   7.730  18.647  0.00  0.00    +0.000 A 
ATOM     10  C   UNL     1       2.210   8.785  17.782  0.00  0.00    +0.000 A 
ATOM     11  C   UNL     1       1.269   9.741  18.148  0.00  0.00    +0.000 A 
ATOM     12  C   UNL     1       0.661   9.692  19.416  0.00  0.00    +0.000 A 
ENDROOT
BRANCH   4  13
ATOM     13  S   UNL     1      -0.355  13.464  21.202  0.00  0.00    +0.000 S 
ATOM     14  O   UNL     1       1.013  13.245  21.635  0.00  0.00    +0.000 OA
ATOM     15  O   UNL     1      -0.631  14.014  19.889  0.00  0.00    +0.000 OA
BRANCH  13  16
ATOM     16  C   UNL     1      -1.039  14.693  22.372  0.00  0.00    +0.000 A 
ATOM     17  C   UNL     1      -1.916  15.666  21.880  0.00  0.00    +0.000 A 
ATOM     18  C   UNL     1      -2.635  16.481  22.765  0.00  0.00    +0.000 A 
ATOM     19  C   UNL     1      -2.501  16.322  24.147  0.00  0.00    +0.000 A 
ATOM     20  C   UNL     1      -1.656  15.317  24.649  0.00  0.00    +0.000 A 
ATOM     21  C   UNL     1      -0.925  14.501  23.759  0.00  0.00    +0.000 A 
BRANCH  19  22
ATOM     22  C   UNL     1      -3.357  17.172  25.037  0.00  0.00    +0.000 C 
ATOM     23  O   UNL     1      -4.563  17.038  25.112  0.00  0.00    +0.000 OA
BRANCH  22  24
ATOM     24  O   UNL     1      -2.681  18.124  25.713  0.00  0.00    +0.000 OA
ATOM     25  H   UNL     1      -1.716  17.999  25.766  0.00  0.00    +0.000 HD
ENDBRANCH  22  24
ENDBRANCH  19  22
ENDBRANCH  13  16
ENDBRANCH   4  13
BRANCH   4  26
ATOM     26  C   UNL     1      -2.578  12.059  21.989  0.00  0.00    +0.000 C 
BRANCH  26  27
ATOM     27  C   UNL     1      -3.774  12.633  21.257  0.00  0.00    +0.000 A 
ATOM     28  C   UNL     1      -4.923  12.825  22.077  0.00  0.00    +0.000 A 
ATOM     29  C   UNL     1      -6.204  12.706  21.558  0.00  0.00    +0.000 A 
ATOM     30  C   UNL     1      -6.299  12.424  20.216  0.00  0.00    +0.000 A 
ATOM     31  C   UNL     1      -5.195  12.537  19.356  0.00  0.00    +0.000 A 
ATOM     32  C   UNL     1      -3.909  12.625  19.863  0.00  0.00    +0.000 A 
ATOM     33  C   UNL     1      -5.644  12.201  17.963  0.00  0.00    +0.000 C 
ATOM     34  C   UNL     1      -6.614  11.080  18.351  0.00  0.00    +0.000 C 
ATOM     35  C   UNL     1      -7.417  11.699  19.516  0.00  0.00    +0.000 C 
ENDBRANCH  26  27
ENDBRANCH   4  26
TORSDOF 6
ENDMDL
MODEL 4
REMARK VINA RESULT:      -7.9      2.320      4.717
REMARK  Name = 
REMARK  7 active torsions:
REMARK  status: ('A' for Active; 'I' for Inactive)
REMARK    1  A    between atoms: C_1  and  C_2
REMARK    2  A    between atoms: N_4  and  C_5
REMARK    3  A    between atoms: N_4  and  S_15
REMARK    4  A    between atoms: C_5  and  C_6
REMARK    5  A    between atoms: S_15  and  C_18
REMARK    6  A    between atoms: C_21  and  C_22
REMARK    7  A    between atoms: C_22  and  O_24
REMARK                            x       y       z     vdW  Elec       q    Type
REMARK                         _______ _______ _______ _____ _____    ______ ____
ROOT
ATOM      1  C   UNL     1      -0.983  10.756  22.764  0.00  0.00    +0.000 C 
ATOM      2  C   UNL     1      -1.187  12.046  22.003  0.00  0.00    +0.000 A 
ATOM      3  C   UNL     1      -1.158  11.995  20.621  0.00  0.00    +0.000 A 
ATOM      4  N   UNL     1       0.001  11.498  19.970  0.00  0.00    +0.000 N 
ATOM      5  N   UNL     1      -2.145  12.496  19.864  0.00  0.00    +0.000 NA
ATOM      6  C   UNL     1      -3.161  13.108  20.537  0.00  0.00    +0.000 A 
ATOM      7  C   UNL     1      -3.124  13.435  21.902  0.00  0.00    +0.000 A 
ATOM      8  C   UNL     1      -4.128  14.126  22.613  0.00  0.00    +0.000 A 
ATOM      9  C   UNL     1      -3.888  14.586  23.912  0.00  0.00    +0.000 A 
ATOM     10  C   UNL     1      -2.637  14.401  24.493  0.00  0.00    +0.000 A 
ATOM     11  C   UNL     1      -1.703  13.590  23.858  0.00  0.00    +0.000 A 
ATOM     12  C   UNL     1      -1.986  13.030  22.599  0.00  0.00    +0.000 A 
ENDROOT
BRANCH   4  13
ATOM     13  S   UNL     1       1.346  12.521  19.935  0.00  0.00    +0.000 S 
ATOM     14  O   UNL     1       2.051  12.402  21.198  0.00  0.00    +0.000 OA
ATOM     15  O   UNL     1       2.058  12.381  18.680  0.00  0.00    +0.000 OA
BRANCH  13  16
ATOM     16  C   UNL     1       0.691  14.230  19.909  0.00  0.00    +0.000 A 
ATOM     17  C   UNL     1       0.141  14.714  18.718  0.00  0.00    +0.000 A 
ATOM     18  C   UNL     1      -0.570  15.922  18.709  0.00  0.00    +0.000 A 
ATOM     19  C   UNL     1      -0.754  16.648  19.889  0.00  0.00    +0.000 A 
ATOM     20  C   UNL     1      -0.243  16.144  21.098  0.00  0.00    +0.000 A 
ATOM     21  C   UNL     1       0.481  14.933  21.107  0.00  0.00    +0.000 A 
BRANCH  19  22
ATOM     22  C   UNL     1      -1.591  17.890  19.825  0.00  0.00    +0.000 C 
ATOM     23  O   UNL     1      -1.837  18.569  20.803  0.00  0.00    +0.000 OA
BRANCH  22  24
ATOM     24  O   UNL     1      -2.081  18.166  18.598  0.00  0.00    +0.000 OA
ATOM     25  H   UNL     1      -1.529  17.879  17.849  0.00  0.00    +0.000 HD
ENDBRANCH  22  24
ENDBRANCH  19  22
ENDBRANCH  13  16
ENDBRANCH   4  13
BRANCH   4  26
ATOM     26  C   UNL     1       0.029  10.185  19.350  0.00  0.00    +0.000 C 
BRANCH  26  27
ATOM     27  C   UNL     1       1.233   9.266  19.378  0.00  0.00    +0.000 A 
ATOM     28  C   UNL     1       1.965   9.225  18.156  0.00  0.00    +0.000 A 
ATOM     29  C   UNL     1       2.628   8.075  17.754  0.00  0.00    +0.000 A 
ATOM     30  C   UNL     1       2.562   6.998  18.606  0.00  0.00    +0.000 A 
ATOM     31  C   UNL     1       2.109   7.128  19.929  0.00  0.00    +0.000 A 
ATOM     32  C   UNL     1       1.420   8.259  20.333  0.00  0.00    +0.000 A 
ATOM     33  C   UNL     1       2.201   5.785  20.594  0.00  0.00    +0.000 C 
ATOM     34  C   UNL     1       1.787   4.952  19.376  0.00  0.00    +0.000 C 
ATOM     35  C   UNL     1       2.649   5.541  18.238  0.00  0.00    +0.000 C 
ENDBRANCH  26  27
ENDBRANCH   4  26
TORSDOF 6
ENDMDL
MODEL 5
REMARK VINA RESULT:      -7.8      2.561      7.120
REMARK  Name = 
REMARK  7 active torsions:
REMARK  status: ('A' for Active; 'I' for Inactive)
REMARK    1  A    between atoms: C_1  and  C_2
REMARK    2  A    between atoms: N_4  and  C_5
REMARK    3  A    between atoms: N_4  and  S_15
REMARK    4  A    between atoms: C_5  and  C_6
REMARK    5  A    between atoms: S_15  and  C_18
REMARK    6  A    between atoms: C_21  and  C_22
REMARK    7  A    between atoms: C_22  and  O_24
REMARK                            x       y       z     vdW  Elec       q    Type
REMARK                         _______ _______ _______ _____ _____    ______ ____
ROOT
ATOM      1  C   UNL     1      -0.964  13.376  18.564  0.00  0.00    +0.000 C 
ATOM      2  C   UNL     1      -2.008  12.588  19.322  0.00  0.00    +0.000 A 
ATOM      3  C   UNL     1      -2.638  13.205  20.389  0.00  0.00    +0.000 A 
ATOM      4  N   UNL     1      -1.856  13.693  21.468  0.00  0.00    +0.000 N 
ATOM      5  N   UNL     1      -3.974  13.269  20.493  0.00  0.00    +0.000 NA
ATOM      6  C   UNL     1      -4.679  12.642  19.510  0.00  0.00    +0.000 A 
ATOM      7  C   UNL     1      -4.117  11.774  18.559  0.00  0.00    +0.000 A 
ATOM      8  C   UNL     1      -4.827  11.060  17.571  0.00  0.00    +0.000 A 
ATOM      9  C   UNL     1      -4.191  10.062  16.824  0.00  0.00    +0.000 A 
ATOM     10  C   UNL     1      -2.863   9.740  17.085  0.00  0.00    +0.000 A 
ATOM     11  C   UNL     1      -2.122  10.544  17.945  0.00  0.00    +0.000 A 
ATOM     12  C   UNL     1      -2.732  11.621  18.613  0.00  0.00    +0.000 A 
ENDROOT
BRANCH   4  13
ATOM     13  S   UNL     1      -1.237  12.537  22.535  0.00  0.00    +0.000 S 
ATOM     14  O   UNL     1      -0.359  13.204  23.480  0.00  0.00    +0.000 OA
ATOM     15  O   UNL     1      -2.294  11.662  23.005  0.00  0.00    +0.000 OA
BRANCH  13  16
ATOM     16  C   UNL     1      -0.145  11.455  21.544  0.00  0.00    +0.000 A 
ATOM     17  C   UNL     1      -0.527  10.124  21.347  0.00  0.00    +0.000 A 
ATOM     18  C   UNL     1       0.153   9.324  20.417  0.00  0.00    +0.000 A 
ATOM     19  C   UNL     1       1.207   9.850  19.664  0.00  0.00    +0.000 A 
ATOM     20  C   UNL     1       1.567  11.199  19.825  0.00  0.00    +0.000 A 
ATOM     21  C   UNL     1       0.889  12.002  20.766  0.00  0.00    +0.000 A 
BRANCH  19  22
ATOM     22  C   UNL     1       1.840   8.965  18.632  0.00  0.00    +0.000 C 
ATOM     23  O   UNL     1       1.986   9.305  17.475  0.00  0.00    +0.000 OA
BRANCH  22  24
ATOM     24  O   UNL     1       2.193   7.745  19.089  0.00  0.00    +0.000 OA
ATOM     25  H   UNL     1       2.703   7.737  19.919  0.00  0.00    +0.000 HD
ENDBRANCH  22  24
ENDBRANCH  19  22
ENDBRANCH  13  16
ENDBRANCH   4  13
BRANCH   4  26
ATOM     26  C   UNL     1      -1.612  15.112  21.659  0.00  0.00    +0.000 C 
BRANCH  26  27
ATOM     27  C   UNL     1      -0.403  15.840  21.105  0.00  0.00    +0.000 A 
ATOM     28  C   UNL     1      -0.678  16.637  19.957  0.00  0.00    +0.000 A 
ATOM     29  C   UNL     1       0.279  16.831  18.971  0.00  0.00    +0.000 A 
ATOM     30  C   UNL     1       1.503  16.241  19.179  0.00  0.00    +0.000 A 
ATOM     31  C   UNL     1       1.871  15.721  20.430  0.00  0.00    +0.000 A 
ATOM     32  C   UNL     1       0.919  15.494  21.410  0.00  0.00    +0.000 A 
ATOM     33  C   UNL     1       3.272  15.191  20.328  0.00  0.00    +0.000 C 
ATOM     34  C   UNL     1       3.150  14.631  18.907  0.00  0.00    +0.000 C 
ATOM     35  C   UNL     1       2.482  15.786  18.130  0.00  0.00    +0.000 C 
ENDBRANCH  26  27
ENDBRANCH   4  26
TORSDOF 6
ENDMDL
MODEL 6
REMARK VINA RESULT:      -7.7      1.005      1.164
REMARK  Name = 
REMARK  7 active torsions:
REMARK  status: ('A' for Active; 'I' for Inactive)
REMARK    1  A    between atoms: C_1  and  C_2
REMARK    2  A    between atoms: N_4  and  C_5
REMARK    3  A    between atoms: N_4  and  S_15
REMARK    4  A    between atoms: C_5  and  C_6
REMARK    5  A    between atoms: S_15  and  C_18
REMARK    6  A    between atoms: C_21  and  C_22
REMARK    7  A    between atoms: C_22  and  O_24
REMARK                            x       y       z     vdW  Elec       q    Type
REMARK                         _______ _______ _______ _____ _____    ______ ____
ROOT
ATOM      1  C   UNL     1      -1.164  12.925  18.268  0.00  0.00    +0.000 C 
ATOM      2  C   UNL     1      -0.178  13.418  19.303  0.00  0.00    +0.000 A 
ATOM      3  C   UNL     1       0.579  12.475  19.978  0.00  0.00    +0.000 A 
ATOM      4  N   UNL     1      -0.079  11.459  20.718  0.00  0.00    +0.000 N 
ATOM      5  N   UNL     1       1.916  12.546  20.046  0.00  0.00    +0.000 NA
ATOM      6  C   UNL     1       2.487  13.633  19.454  0.00  0.00    +0.000 A 
ATOM      7  C   UNL     1       1.775  14.753  18.996  0.00  0.00    +0.000 A 
ATOM      8  C   UNL     1       2.339  15.920  18.439  0.00  0.00    +0.000 A 
ATOM      9  C   UNL     1       1.551  17.054  18.221  0.00  0.00    +0.000 A 
ATOM     10  C   UNL     1       0.210  17.050  18.595  0.00  0.00    +0.000 A 
ATOM     11  C   UNL     1      -0.382  15.857  18.998  0.00  0.00    +0.000 A 
ATOM     12  C   UNL     1       0.387  14.684  19.109  0.00  0.00    +0.000 A 
ENDROOT
BRANCH   4  13
ATOM     13  S   UNL     1      -0.768  11.922  22.190  0.00  0.00    +0.000 S 
ATOM     14  O   UNL     1      -1.126  10.726  22.931  0.00  0.00    +0.000 OA
ATOM     15  O   UNL     1       0.023  12.964  22.816  0.00  0.00    +0.000 OA
BRANCH  13  16
ATOM     16  C   UNL     1      -2.359  12.729  21.782  0.00  0.00    +0.000 A 
ATOM     17  C   UNL     1      -2.510  14.089  22.072  0.00  0.00    +0.000 A 
ATOM     18  C   UNL     1      -3.614  14.798  21.577  0.00  0.00    +0.000 A 
ATOM     19  C   UNL     1      -4.566  14.162  20.776  0.00  0.00    +0.000 A 
ATOM     20  C   UNL     1      -4.397  12.807  20.443  0.00  0.00    +0.000 A 
ATOM     21  C   UNL     1      -3.291  12.090  20.947  0.00  0.00    +0.000 A 
BRANCH  19  22
ATOM     22  C   UNL     1      -5.679  14.996  20.215  0.00  0.00    +0.000 C 
ATOM     23  O   UNL     1      -5.986  14.979  19.039  0.00  0.00    +0.000 OA
BRANCH  22  24
ATOM     24  O   UNL     1      -6.282  15.796  21.118  0.00  0.00    +0.000 OA
ATOM     25  H   UNL     1      -5.741  16.043  21.890  0.00  0.00    +0.000 HD
ENDBRANCH  22  24
ENDBRANCH  19  22
ENDBRANCH  13  16
ENDBRANCH   4  13
BRANCH   4  26
ATOM     26  C   UNL     1      -0.144  10.086  20.247  0.00  0.00    +0.000 C 
BRANCH  26  27
ATOM     27  C   UNL     1       1.075   9.254  19.907  0.00  0.00    +0.000 A 
ATOM     28  C   UNL     1       1.522   9.397  18.562  0.00  0.00    +0.000 A 
ATOM     29  C   UNL     1       2.129   8.344  17.891  0.00  0.00    +0.000 A 
ATOM     30  C   UNL     1       2.298   7.180  18.602  0.00  0.00    +0.000 A 
ATOM     31  C   UNL     1       2.141   7.133  19.996  0.00  0.00    +0.000 A 
ATOM     32  C   UNL     1       1.510   8.165  20.672  0.00  0.00    +0.000 A 
ATOM     33  C   UNL     1       2.434   5.735  20.458  0.00  0.00    +0.000 C 
ATOM     34  C   UNL     1       1.799   5.014  19.265  0.00  0.00    +0.000 C 
ATOM     35  C   UNL     1       2.364   5.780  18.050  0.00  0.00    +0.000 C 
ENDBRANCH  26  27
ENDBRANCH   4  26
TORSDOF 6
ENDMDL
MODEL 7
REMARK VINA RESULT:      -7.7      2.287      7.136
REMARK  Name = 
REMARK  7 active torsions:
REMARK  status: ('A' for Active; 'I' for Inactive)
REMARK    1  A    between atoms: C_1  and  C_2
REMARK    2  A    between atoms: N_4  and  C_5
REMARK    3  A    between atoms: N_4  and  S_15
REMARK    4  A    between atoms: C_5  and  C_6
REMARK    5  A    between atoms: S_15  and  C_18
REMARK    6  A    between atoms: C_21  and  C_22
REMARK    7  A    between atoms: C_22  and  O_24
REMARK                            x       y       z     vdW  Elec       q    Type
REMARK                         _______ _______ _______ _____ _____    ______ ____
ROOT
ATOM      1  C   UNL     1       2.033  13.425  20.828  0.00  0.00    +0.000 C 
ATOM      2  C   UNL     1       1.180  13.950  19.695  0.00  0.00    +0.000 A 
ATOM      3  C   UNL     1      -0.183  14.062  19.908  0.00  0.00    +0.000 A 
ATOM      4  N   UNL     1      -0.926  12.908  20.271  0.00  0.00    +0.000 N 
ATOM      5  N   UNL     1      -0.852  15.203  19.683  0.00  0.00    +0.000 NA
ATOM      6  C   UNL     1      -0.118  16.235  19.180  0.00  0.00    +0.000 A 
ATOM      7  C   UNL     1       1.193  16.112  18.688  0.00  0.00    +0.000 A 
ATOM      8  C   UNL     1       1.955  17.145  18.103  0.00  0.00    +0.000 A 
ATOM      9  C   UNL     1       3.159  16.855  17.453  0.00  0.00    +0.000 A 
ATOM     10  C   UNL     1       3.590  15.536  17.345  0.00  0.00    +0.000 A 
ATOM     11  C   UNL     1       2.922  14.540  18.052  0.00  0.00    +0.000 A 
ATOM     12  C   UNL     1       1.772  14.849  18.801  0.00  0.00    +0.000 A 
ENDROOT
BRANCH   4  13
ATOM     13  S   UNL     1      -1.236  11.792  19.040  0.00  0.00    +0.000 S 
ATOM     14  O   UNL     1      -2.459  11.079  19.360  0.00  0.00    +0.000 OA
ATOM     15  O   UNL     1      -1.064  12.409  17.739  0.00  0.00    +0.000 OA
BRANCH  13  16
ATOM     16  C   UNL     1       0.092  10.537  19.138  0.00  0.00    +0.000 A 
ATOM     17  C   UNL     1       0.265   9.842  20.339  0.00  0.00    +0.000 A 
ATOM     18  C   UNL     1       1.110   8.725  20.393  0.00  0.00    +0.000 A 
ATOM     19  C   UNL     1       1.776   8.281  19.247  0.00  0.00    +0.000 A 
ATOM     20  C   UNL     1       1.572   8.948  18.027  0.00  0.00    +0.000 A 
ATOM     21  C   UNL     1       0.728  10.077  17.973  0.00  0.00    +0.000 A 
BRANCH  19  22
ATOM     22  C   UNL     1       2.602   7.035  19.355  0.00  0.00    +0.000 C 
ATOM     23  O   UNL     1       3.347   6.660  18.471  0.00  0.00    +0.000 OA
BRANCH  22  24
ATOM     24  O   UNL     1       2.417   6.343  20.499  0.00  0.00    +0.000 OA
ATOM     25  H   UNL     1       1.770   6.723  21.121  0.00  0.00    +0.000 HD
ENDBRANCH  22  24
ENDBRANCH  19  22
ENDBRANCH  13  16
ENDBRANCH   4  13
BRANCH   4  26
ATOM     26  C   UNL     1      -1.410  12.702  21.624  0.00  0.00    +0.000 C 
BRANCH  26  27
ATOM     27  C   UNL     1      -2.641  13.380  22.191  0.00  0.00    +0.000 A 
ATOM     28  C   UNL     1      -2.774  13.262  23.604  0.00  0.00    +0.000 A 
ATOM     29  C   UNL     1      -4.023  13.212  24.207  0.00  0.00    +0.000 A 
ATOM     30  C   UNL     1      -5.111  13.310  23.373  0.00  0.00    +0.000 A 
ATOM     31  C   UNL     1      -4.986  13.728  22.038  0.00  0.00    +0.000 A 
ATOM     32  C   UNL     1      -3.748  13.753  21.418  0.00  0.00    +0.000 A 
ATOM     33  C   UNL     1      -6.356  13.766  21.424  0.00  0.00    +0.000 C 
ATOM     34  C   UNL     1      -6.904  12.522  22.131  0.00  0.00    +0.000 C 
ATOM     35  C   UNL     1      -6.486  12.739  23.600  0.00  0.00    +0.000 C 
ENDBRANCH  26  27
ENDBRANCH   4  26
TORSDOF 6
ENDMDL
MODEL 8
REMARK VINA RESULT:      -7.7      3.071      6.883
REMARK  Name = 
REMARK  7 active torsions:
REMARK  status: ('A' for Active; 'I' for Inactive)
REMARK    1  A    between atoms: C_1  and  C_2
REMARK    2  A    between atoms: N_4  and  C_5
REMARK    3  A    between atoms: N_4  and  S_15
REMARK    4  A    between atoms: C_5  and  C_6
REMARK    5  A    between atoms: S_15  and  C_18
REMARK    6  A    between atoms: C_21  and  C_22
REMARK    7  A    between atoms: C_22  and  O_24
REMARK                            x       y       z     vdW  Elec       q    Type
REMARK                         _______ _______ _______ _____ _____    ______ ____
ROOT
ATOM      1  C   UNL     1      -1.593  10.453  18.976  0.00  0.00    +0.000 C 
ATOM      2  C   UNL     1      -0.336  10.522  19.815  0.00  0.00    +0.000 A 
ATOM      3  C   UNL     1      -0.466  10.857  21.151  0.00  0.00    +0.000 A 
ATOM      4  N   UNL     1      -1.072  12.091  21.501  0.00  0.00    +0.000 N 
ATOM      5  N   UNL     1       0.055  10.104  22.132  0.00  0.00    +0.000 NA
ATOM      6  C   UNL     1       0.767   9.013  21.732  0.00  0.00    +0.000 A 
ATOM      7  C   UNL     1       1.167   8.767  20.408  0.00  0.00    +0.000 A 
ATOM      8  C   UNL     1       1.958   7.684  19.973  0.00  0.00    +0.000 A 
ATOM      9  C   UNL     1       2.474   7.661  18.672  0.00  0.00    +0.000 A 
ATOM     10  C   UNL     1       2.241   8.733  17.815  0.00  0.00    +0.000 A 
ATOM     11  C   UNL     1       1.338   9.722  18.188  0.00  0.00    +0.000 A 
ATOM     12  C   UNL     1       0.729   9.687  19.456  0.00  0.00    +0.000 A 
ENDROOT
BRANCH   4  13
ATOM     13  S   UNL     1      -0.140  13.483  21.270  0.00  0.00    +0.000 S 
ATOM     14  O   UNL     1       1.251  13.156  21.525  0.00  0.00    +0.000 OA
ATOM     15  O   UNL     1      -0.524  14.153  20.043  0.00  0.00    +0.000 OA
BRANCH  13  16
ATOM     16  C   UNL     1      -0.613  14.645  22.601  0.00  0.00    +0.000 A 
ATOM     17  C   UNL     1      -1.276  14.139  23.723  0.00  0.00    +0.000 A 
ATOM     18  C   UNL     1      -1.457  14.941  24.859  0.00  0.00    +0.000 A 
ATOM     19  C   UNL     1      -0.962  16.248  24.892  0.00  0.00    +0.000 A 
ATOM     20  C   UNL     1      -0.255  16.748  23.785  0.00  0.00    +0.000 A 
ATOM     21  C   UNL     1      -0.080  15.945  22.638  0.00  0.00    +0.000 A 
BRANCH  19  22
ATOM     22  C   UNL     1      -1.120  17.025  26.165  0.00  0.00    +0.000 C 
ATOM     23  O   UNL     1      -1.485  18.184  26.187  0.00  0.00    +0.000 OA
BRANCH  22  24
ATOM     24  O   UNL     1      -0.781  16.341  27.278  0.00  0.00    +0.000 OA
ATOM     25  H   UNL     1      -1.525  16.007  27.810  0.00  0.00    +0.000 HD
ENDBRANCH  22  24
ENDBRANCH  19  22
ENDBRANCH  13  16
ENDBRANCH   4  13
BRANCH   4  26
ATOM     26  C   UNL     1      -2.417  12.159  22.046  0.00  0.00    +0.000 C 
BRANCH  26  27
ATOM     27  C   UNL     1      -3.613  12.674  21.272  0.00  0.00    +0.000 A 
ATOM     28  C   UNL     1      -4.777  12.882  22.068  0.00  0.00    +0.000 A 
ATOM     29  C   UNL     1      -6.048  12.713  21.540  0.00  0.00    +0.000 A 
ATOM     30  C   UNL     1      -6.120  12.365  20.212  0.00  0.00    +0.000 A 
ATOM     31  C   UNL     1      -5.006  12.457  19.361  0.00  0.00    +0.000 A 
ATOM     32  C   UNL     1      -3.730  12.596  19.879  0.00  0.00    +0.000 A 
ATOM     33  C   UNL     1      -5.431  12.045  17.981  0.00  0.00    +0.000 C 
ATOM     34  C   UNL     1      -6.384  10.926  18.412  0.00  0.00    +0.000 C 
ATOM     35  C   UNL     1      -7.215  11.584  19.534  0.00  0.00    +0.000 C 
ENDBRANCH  26  27
ENDBRANCH   4  26
TORSDOF 6
ENDMDL
MODEL 9
REMARK VINA RESULT:      -7.7      1.914      2.461
REMARK  Name = 
REMARK  7 active torsions:
REMARK  status: ('A' for Active; 'I' for Inactive)
REMARK    1  A    between atoms: C_1  and  C_2
REMARK    2  A    between atoms: N_4  and  C_5
REMARK    3  A    between atoms: N_4  and  S_15
REMARK    4  A    between atoms: C_5  and  C_6
REMARK    5  A    between atoms: S_15  and  C_18
REMARK    6  A    between atoms: C_21  and  C_22
REMARK    7  A    between atoms: C_22  and  O_24
REMARK                            x       y       z     vdW  Elec       q    Type
REMARK                         _______ _______ _______ _____ _____    ______ ____
ROOT
ATOM      1  C   UNL     1       2.607  11.766  17.749  0.00  0.00    +0.000 C 
ATOM      2  C   UNL     1       2.102  12.792  18.739  0.00  0.00    +0.000 A 
ATOM      3  C   UNL     1       1.344  12.345  19.807  0.00  0.00    +0.000 A 
ATOM      4  N   UNL     1       0.147  11.626  19.555  0.00  0.00    +0.000 N 
ATOM      5  N   UNL     1       1.643  12.655  21.077  0.00  0.00    +0.000 NA
ATOM      6  C   UNL     1       2.711  13.483  21.253  0.00  0.00    +0.000 A 
ATOM      7  C   UNL     1       3.350  14.186  20.218  0.00  0.00    +0.000 A 
ATOM      8  C   UNL     1       4.414  15.099  20.374  0.00  0.00    +0.000 A 
ATOM      9  C   UNL     1       4.822  15.901  19.303  0.00  0.00    +0.000 A 
ATOM     10  C   UNL     1       4.150  15.830  18.087  0.00  0.00    +0.000 A 
ATOM     11  C   UNL     1       3.208  14.826  17.886  0.00  0.00    +0.000 A 
ATOM     12  C   UNL     1       2.876  13.943  18.930  0.00  0.00    +0.000 A 
ENDROOT
BRANCH   4  13
ATOM     13  S   UNL     1      -1.180  12.529  19.025  0.00  0.00    +0.000 S 
ATOM     14  O   UNL     1      -0.714  13.846  18.629  0.00  0.00    +0.000 OA
ATOM     15  O   UNL     1      -2.006  11.742  18.130  0.00  0.00    +0.000 OA
BRANCH  13  16
ATOM     16  C   UNL     1      -2.230  12.812  20.497  0.00  0.00    +0.000 A 
ATOM     17  C   UNL     1      -3.619  12.777  20.341  0.00  0.00    +0.000 A 
ATOM     18  C   UNL     1      -4.456  12.763  21.466  0.00  0.00    +0.000 A 
ATOM     19  C   UNL     1      -3.915  12.766  22.754  0.00  0.00    +0.000 A 
ATOM     20  C   UNL     1      -2.519  12.756  22.919  0.00  0.00    +0.000 A 
ATOM     21  C   UNL     1      -1.675  12.778  21.788  0.00  0.00    +0.000 A 
BRANCH  19  22
ATOM     22  C   UNL     1      -4.862  12.670  23.912  0.00  0.00    +0.000 C 
ATOM     23  O   UNL     1      -5.781  13.450  24.076  0.00  0.00    +0.000 OA
BRANCH  22  24
ATOM     24  O   UNL     1      -4.583  11.674  24.778  0.00  0.00    +0.000 OA
ATOM     25  H   UNL     1      -4.967  11.769  25.668  0.00  0.00    +0.000 HD
ENDBRANCH  22  24
ENDBRANCH  19  22
ENDBRANCH  13  16
ENDBRANCH   4  13
BRANCH   4  26
ATOM     26  C   UNL     1       0.057  10.190  19.757  0.00  0.00    +0.000 C 
BRANCH  26  27
ATOM     27  C   UNL     1       1.225   9.241  19.583  0.00  0.00    +0.000 A 
ATOM     28  C   UNL     1       1.716   9.158  18.248  0.00  0.00    +0.000 A 
ATOM     29  C   UNL     1       2.267   7.983  17.757  0.00  0.00    +0.000 A 
ATOM     30  C   UNL     1       2.337   6.925  18.632  0.00  0.00    +0.000 A 
ATOM     31  C   UNL     1       2.140   7.092  20.012  0.00  0.00    +0.000 A 
ATOM     32  C   UNL     1       1.564   8.248  20.510  0.00  0.00    +0.000 A 
ATOM     33  C   UNL     1       2.325   5.759  20.679  0.00  0.00    +0.000 C 
ATOM     34  C   UNL     1       1.674   4.915  19.579  0.00  0.00    +0.000 C 
ATOM     35  C   UNL     1       2.321   5.459  18.288  0.00  0.00    +0.000 C 
ENDBRANCH  26  27
ENDBRANCH   4  26
TORSDOF 6
ENDMDL
