MODEL 1
REMARK VINA RESULT:      -6.7      0.000      0.000
REMARK  Name = 
REMARK  6 active torsions:
REMARK  status: ('A' for Active; 'I' for Inactive)
REMARK    1  A    between atoms: C_1  and  O_2
REMARK    2  A    between atoms: O_2  and  C_3
REMARK    3  A    between atoms: C_3  and  C_5
REMARK    4  A    between atoms: C_5  and  C_7
REMARK    5  A    between atoms: C_8  and  O_9
REMARK    6  A    between atoms: C_8  and  C_10
REMARK                            x       y       z     vdW  Elec       q    Type
REMARK                         _______ _______ _______ _____ _____    ______ ____
ROOT
ATOM      1  C   UNL     1       5.686   4.339  15.298  0.00  0.00    +0.000 C 
ATOM      2  C   UNL     1       5.065   5.355  15.922  0.00  0.00    +0.000 C 
ENDROOT
BRANCH   2   3
ATOM      3  C   UNL     1       4.160   5.162  17.080  0.00  0.00    +0.000 A 
ATOM      4  C   UNL     1       4.029   6.176  18.042  0.00  0.00    +0.000 A 
ATOM      5  C   UNL     1       3.156   6.038  19.127  0.00  0.00    +0.000 A 
ATOM      6  C   UNL     1       2.391   4.880  19.268  0.00  0.00    +0.000 A 
ATOM      7 CL   UNL     1       1.311   4.783  20.612  0.00  0.00    +0.000 Cl
ATOM      8  C   UNL     1       2.513   3.856  18.325  0.00  0.00    +0.000 A 
ATOM      9 CL   UNL     1       1.609   2.386  18.435  0.00  0.00    +0.000 Cl
ATOM     10  C   UNL     1       3.387   4.000  17.239  0.00  0.00    +0.000 A 
ENDBRANCH   2   3
BRANCH   1  11
ATOM     11  C   UNL     1       6.608   4.551  14.150  0.00  0.00    +0.000 C 
ATOM     12  N   UNL     1       7.663   5.316  14.237  0.00  0.00    +0.000 NA
ATOM     13  H   UNL     1       8.147   5.299  13.322  0.00  0.00    +0.000 HD
BRANCH  11  14
ATOM     14  C   UNL     1       6.254   3.812  12.851  0.00  0.00    +0.000 C 
ATOM     15  O   UNL     1       7.076   3.549  11.992  0.00  0.00    +0.000 OA
BRANCH  14  17
ATOM     16  C   UNL     1       4.432   3.224  11.534  0.00  0.00    +0.000 C 
ATOM     17  O   UNL     1       4.932   3.529  12.838  0.00  0.00    +0.000 OA
ENDBRANCH  14  17
ENDBRANCH  11  14
ENDBRANCH   1  11
BRANCH   2  18
ATOM     18  O   UNL     1       5.237   6.676  15.549  0.00  0.00    +0.000 OA
ATOM     19  H   UNL     1       4.625   6.851  14.795  0.00  0.00    +0.000 HD
ENDBRANCH   2  18
TORSDOF 5
ENDMDL
MODEL 2
REMARK VINA RESULT:      -6.7      2.186      2.981
REMARK  Name = 
REMARK  6 active torsions:
REMARK  status: ('A' for Active; 'I' for Inactive)
REMARK    1  A    between atoms: C_1  and  O_2
REMARK    2  A    between atoms: O_2  and  C_3
REMARK    3  A    between atoms: C_3  and  C_5
REMARK    4  A    between atoms: C_5  and  C_7
REMARK    5  A    between atoms: C_8  and  O_9
REMARK    6  A    between atoms: C_8  and  C_10
REMARK                            x       y       z     vdW  Elec       q    Type
REMARK                         _______ _______ _______ _____ _____    ______ ____
ROOT
ATOM      1  C   UNL     1       5.602   5.244  16.949  0.00  0.00    +0.000 C 
ATOM      2  C   UNL     1       5.765   4.587  18.111  0.00  0.00    +0.000 C 
ENDROOT
BRANCH   2   3
ATOM      3  C   UNL     1       4.632   4.170  18.971  0.00  0.00    +0.000 A 
ATOM      4  C   UNL     1       4.513   2.829  19.369  0.00  0.00    +0.000 A 
ATOM      5  C   UNL     1       3.475   2.413  20.211  0.00  0.00    +0.000 A 
ATOM      6  C   UNL     1       2.536   3.334  20.675  0.00  0.00    +0.000 A 
ATOM      7 CL   UNL     1       1.297   2.763  21.733  0.00  0.00    +0.000 Cl
ATOM      8  C   UNL     1       2.633   4.672  20.283  0.00  0.00    +0.000 A 
ATOM      9 CL   UNL     1       1.504   5.873  20.805  0.00  0.00    +0.000 Cl
ATOM     10  C   UNL     1       3.676   5.084  19.442  0.00  0.00    +0.000 A 
ENDBRANCH   2   3
BRANCH   1  11
ATOM     11  C   UNL     1       6.748   5.636  16.085  0.00  0.00    +0.000 C 
ATOM     12  N   UNL     1       7.573   6.595  16.416  0.00  0.00    +0.000 NA
ATOM     13  H   UNL     1       8.284   6.675  15.668  0.00  0.00    +0.000 HD
BRANCH  11  14
ATOM     14  C   UNL     1       6.914   4.845  14.779  0.00  0.00    +0.000 C 
ATOM     15  O   UNL     1       6.293   3.828  14.536  0.00  0.00    +0.000 OA
BRANCH  14  17
ATOM     16  C   UNL     1       7.722   5.101  12.615  0.00  0.00    +0.000 C 
ATOM     17  O   UNL     1       7.832   5.455  13.995  0.00  0.00    +0.000 OA
ENDBRANCH  14  17
ENDBRANCH  11  14
ENDBRANCH   1  11
BRANCH   2  18
ATOM     18  O   UNL     1       7.010   4.222  18.593  0.00  0.00    +0.000 OA
ATOM     19  H   UNL     1       7.587   5.022  18.553  0.00  0.00    +0.000 HD
ENDBRANCH   2  18
TORSDOF 5
ENDMDL
MODEL 3
REMARK VINA RESULT:      -6.7      2.215      2.876
REMARK  Name = 
REMARK  6 active torsions:
REMARK  status: ('A' for Active; 'I' for Inactive)
REMARK    1  A    between atoms: C_1  and  O_2
REMARK    2  A    between atoms: O_2  and  C_3
REMARK    3  A    between atoms: C_3  and  C_5
REMARK    4  A    between atoms: C_5  and  C_7
REMARK    5  A    between atoms: C_8  and  O_9
REMARK    6  A    between atoms: C_8  and  C_10
REMARK                            x       y       z     vdW  Elec       q    Type
REMARK                         _______ _______ _______ _____ _____    ______ ____
ROOT
ATOM      1  C   UNL     1       5.687   5.274  17.050  0.00  0.00    +0.000 C 
ATOM      2  C   UNL     1       5.820   4.807  18.304  0.00  0.00    +0.000 C 
ENDROOT
BRANCH   2   3
ATOM      3  C   UNL     1       4.676   4.316  19.109  0.00  0.00    +0.000 A 
ATOM      4  C   UNL     1       4.605   2.961  19.470  0.00  0.00    +0.000 A 
ATOM      5  C   UNL     1       3.558   2.475  20.260  0.00  0.00    +0.000 A 
ATOM      6  C   UNL     1       2.560   3.340  20.710  0.00  0.00    +0.000 A 
ATOM      7 CL   UNL     1       1.310   2.684  21.706  0.00  0.00    +0.000 Cl
ATOM      8  C   UNL     1       2.609   4.690  20.356  0.00  0.00    +0.000 A 
ATOM      9 CL   UNL     1       1.405   5.824  20.863  0.00  0.00    +0.000 Cl
ATOM     10  C   UNL     1       3.662   5.173  19.566  0.00  0.00    +0.000 A 
ENDBRANCH   2   3
BRANCH   1  11
ATOM     11  C   UNL     1       6.848   5.743  16.246  0.00  0.00    +0.000 C 
ATOM     12  N   UNL     1       7.645   6.691  16.661  0.00  0.00    +0.000 NA
ATOM     13  H   UNL     1       8.375   6.834  15.940  0.00  0.00    +0.000 HD
BRANCH  11  14
ATOM     14  C   UNL     1       7.063   5.045  14.894  0.00  0.00    +0.000 C 
ATOM     15  O   UNL     1       7.890   5.413  14.081  0.00  0.00    +0.000 OA
BRANCH  14  17
ATOM     16  C   UNL     1       5.899   3.668  13.427  0.00  0.00    +0.000 C 
ATOM     17  O   UNL     1       6.205   4.005  14.782  0.00  0.00    +0.000 OA
ENDBRANCH  14  17
ENDBRANCH  11  14
ENDBRANCH   1  11
BRANCH   2  18
ATOM     18  O   UNL     1       7.044   4.723  18.943  0.00  0.00    +0.000 OA
ATOM     19  H   UNL     1       6.866   4.538  19.897  0.00  0.00    +0.000 HD
ENDBRANCH   2  18
TORSDOF 5
ENDMDL
MODEL 4
REMARK VINA RESULT:      -6.7      1.211      1.931
REMARK  Name = 
REMARK  6 active torsions:
REMARK  status: ('A' for Active; 'I' for Inactive)
REMARK    1  A    between atoms: C_1  and  O_2
REMARK    2  A    between atoms: O_2  and  C_3
REMARK    3  A    between atoms: C_3  and  C_5
REMARK    4  A    between atoms: C_5  and  C_7
REMARK    5  A    between atoms: C_8  and  O_9
REMARK    6  A    between atoms: C_8  and  C_10
REMARK                            x       y       z     vdW  Elec       q    Type
REMARK                         _______ _______ _______ _____ _____    ______ ____
ROOT
ATOM      1  C   UNL     1       5.373   4.638  15.079  0.00  0.00    +0.000 C 
ATOM      2  C   UNL     1       5.475   4.326  16.382  0.00  0.00    +0.000 C 
ENDROOT
BRANCH   2   3
ATOM      3  C   UNL     1       4.309   4.280  17.297  0.00  0.00    +0.000 A 
ATOM      4  C   UNL     1       3.613   3.075  17.483  0.00  0.00    +0.000 A 
ATOM      5  C   UNL     1       2.531   2.991  18.366  0.00  0.00    +0.000 A 
ATOM      6  C   UNL     1       2.126   4.115  19.087  0.00  0.00    +0.000 A 
ATOM      7 CL   UNL     1       0.803   3.939  20.182  0.00  0.00    +0.000 Cl
ATOM      8  C   UNL     1       2.800   5.326  18.909  0.00  0.00    +0.000 A 
ATOM      9 CL   UNL     1       2.353   6.766  19.755  0.00  0.00    +0.000 Cl
ATOM     10  C   UNL     1       3.885   5.403  18.025  0.00  0.00    +0.000 A 
ENDBRANCH   2   3
BRANCH   1  11
ATOM     11  C   UNL     1       6.550   4.659  14.168  0.00  0.00    +0.000 C 
ATOM     12  N   UNL     1       7.669   5.251  14.491  0.00  0.00    +0.000 NA
ATOM     13  H   UNL     1       8.334   5.123  13.708  0.00  0.00    +0.000 HD
BRANCH  11  14
ATOM     14  C   UNL     1       6.378   3.938  12.822  0.00  0.00    +0.000 C 
ATOM     15  O   UNL     1       7.205   3.992  11.931  0.00  0.00    +0.000 OA
BRANCH  14  17
ATOM     16  C   UNL     1       4.589   3.223  11.523  0.00  0.00    +0.000 C 
ATOM     17  O   UNL     1       5.201   3.272  12.813  0.00  0.00    +0.000 OA
ENDBRANCH  14  17
ENDBRANCH  11  14
ENDBRANCH   1  11
BRANCH   2  18
ATOM     18  O   UNL     1       6.679   3.998  16.979  0.00  0.00    +0.000 OA
ATOM     19  H   UNL     1       6.633   4.296  17.919  0.00  0.00    +0.000 HD
ENDBRANCH   2  18
TORSDOF 5
ENDMDL
MODEL 5
REMARK VINA RESULT:      -6.6      1.917      2.385
REMARK  Name = 
REMARK  6 active torsions:
REMARK  status: ('A' for Active; 'I' for Inactive)
REMARK    1  A    between atoms: C_1  and  O_2
REMARK    2  A    between atoms: O_2  and  C_3
REMARK    3  A    between atoms: C_3  and  C_5
REMARK    4  A    between atoms: C_5  and  C_7
REMARK    5  A    between atoms: C_8  and  O_9
REMARK    6  A    between atoms: C_8  and  C_10
REMARK                            x       y       z     vdW  Elec       q    Type
REMARK                         _______ _______ _______ _____ _____    ______ ____
ROOT
ATOM      1  C   UNL     1       5.468   5.225  16.426  0.00  0.00    +0.000 C 
ATOM      2  C   UNL     1       5.387   4.503  17.557  0.00  0.00    +0.000 C 
ENDROOT
BRANCH   2   3
ATOM      3  C   UNL     1       4.099   4.109  18.175  0.00  0.00    +0.000 A 
ATOM      4  C   UNL     1       2.908   4.221  17.439  0.00  0.00    +0.000 A 
ATOM      5  C   UNL     1       1.680   3.824  17.982  0.00  0.00    +0.000 A 
ATOM      6  C   UNL     1       1.622   3.302  19.275  0.00  0.00    +0.000 A 
ATOM      7 CL   UNL     1       0.082   2.804  19.876  0.00  0.00    +0.000 Cl
ATOM      8  C   UNL     1       2.795   3.190  20.025  0.00  0.00    +0.000 A 
ATOM      9 CL   UNL     1       2.805   2.565  21.637  0.00  0.00    +0.000 Cl
ATOM     10  C   UNL     1       4.022   3.587  19.476  0.00  0.00    +0.000 A 
ENDBRANCH   2   3
BRANCH   1  11
ATOM     11  C   UNL     1       6.770   5.594  15.805  0.00  0.00    +0.000 C 
ATOM     12  N   UNL     1       7.649   6.337  16.422  0.00  0.00    +0.000 NA
ATOM     13  H   UNL     1       8.468   6.447  15.798  0.00  0.00    +0.000 HD
BRANCH  11  14
ATOM     14  C   UNL     1       7.027   5.046  14.393  0.00  0.00    +0.000 C 
ATOM     15  O   UNL     1       7.960   5.408  13.701  0.00  0.00    +0.000 OA
BRANCH  14  17
ATOM     16  C   UNL     1       6.239   3.572  12.779  0.00  0.00    +0.000 C 
ATOM     17  O   UNL     1       6.073   4.141  14.079  0.00  0.00    +0.000 OA
ENDBRANCH  14  17
ENDBRANCH  11  14
ENDBRANCH   1  11
BRANCH   2  18
ATOM     18  O   UNL     1       6.505   4.044  18.231  0.00  0.00    +0.000 OA
ATOM     19  H   UNL     1       6.551   3.068  18.094  0.00  0.00    +0.000 HD
ENDBRANCH   2  18
TORSDOF 5
ENDMDL
MODEL 6
REMARK VINA RESULT:      -6.6      1.636      2.411
REMARK  Name = 
REMARK  6 active torsions:
REMARK  status: ('A' for Active; 'I' for Inactive)
REMARK    1  A    between atoms: C_1  and  O_2
REMARK    2  A    between atoms: O_2  and  C_3
REMARK    3  A    between atoms: C_3  and  C_5
REMARK    4  A    between atoms: C_5  and  C_7
REMARK    5  A    between atoms: C_8  and  O_9
REMARK    6  A    between atoms: C_8  and  C_10
REMARK                            x       y       z     vdW  Elec       q    Type
REMARK                         _______ _______ _______ _____ _____    ______ ____
ROOT
ATOM      1  C   UNL     1       5.497   5.024  16.094  0.00  0.00    +0.000 C 
ATOM      2  C   UNL     1       5.430   4.422  17.294  0.00  0.00    +0.000 C 
ENDROOT
BRANCH   2   3
ATOM      3  C   UNL     1       4.152   4.016  17.925  0.00  0.00    +0.000 A 
ATOM      4  C   UNL     1       3.566   2.785  17.588  0.00  0.00    +0.000 A 
ATOM      5  C   UNL     1       2.379   2.357  18.193  0.00  0.00    +0.000 A 
ATOM      6  C   UNL     1       1.755   3.154  19.153  0.00  0.00    +0.000 A 
ATOM      7 CL   UNL     1       0.309   2.556  19.884  0.00  0.00    +0.000 Cl
ATOM      8  C   UNL     1       2.318   4.385  19.497  0.00  0.00    +0.000 A 
ATOM      9 CL   UNL     1       1.602   5.435  20.669  0.00  0.00    +0.000 Cl
ATOM     10  C   UNL     1       3.509   4.808  18.889  0.00  0.00    +0.000 A 
ENDBRANCH   2   3
BRANCH   1  11
ATOM     11  C   UNL     1       6.790   5.407  15.463  0.00  0.00    +0.000 C 
ATOM     12  N   UNL     1       7.665   6.162  16.073  0.00  0.00    +0.000 NA
ATOM     13  H   UNL     1       8.478   6.280  15.443  0.00  0.00    +0.000 HD
BRANCH  11  14
ATOM     14  C   UNL     1       7.043   4.860  14.051  0.00  0.00    +0.000 C 
ATOM     15  O   UNL     1       7.767   5.414  13.245  0.00  0.00    +0.000 OA
BRANCH  14  17
ATOM     16  C   UNL     1       6.065   3.423  12.508  0.00  0.00    +0.000 C 
ATOM     17  O   UNL     1       6.347   3.713  13.879  0.00  0.00    +0.000 OA
ENDBRANCH  14  17
ENDBRANCH  11  14
ENDBRANCH   1  11
BRANCH   2  18
ATOM     18  O   UNL     1       6.555   4.109  18.036  0.00  0.00    +0.000 OA
ATOM     19  H   UNL     1       7.263   3.843  17.400  0.00  0.00    +0.000 HD
ENDBRANCH   2  18
TORSDOF 5
ENDMDL
MODEL 7
REMARK VINA RESULT:      -6.5      1.506      1.673
REMARK  Name = 
REMARK  6 active torsions:
REMARK  status: ('A' for Active; 'I' for Inactive)
REMARK    1  A    between atoms: C_1  and  O_2
REMARK    2  A    between atoms: O_2  and  C_3
REMARK    3  A    between atoms: C_3  and  C_5
REMARK    4  A    between atoms: C_5  and  C_7
REMARK    5  A    between atoms: C_8  and  O_9
REMARK    6  A    between atoms: C_8  and  C_10
REMARK                            x       y       z     vdW  Elec       q    Type
REMARK                         _______ _______ _______ _____ _____    ______ ____
ROOT
ATOM      1  C   UNL     1       5.391   4.528  15.343  0.00  0.00    +0.000 C 
ATOM      2  C   UNL     1       5.530   4.231  16.647  0.00  0.00    +0.000 C 
ENDROOT
BRANCH   2   3
ATOM      3  C   UNL     1       4.380   4.065  17.567  0.00  0.00    +0.000 A 
ATOM      4  C   UNL     1       3.125   4.590  17.218  0.00  0.00    +0.000 A 
ATOM      5  C   UNL     1       2.011   4.418  18.048  0.00  0.00    +0.000 A 
ATOM      6  C   UNL     1       2.132   3.713  19.246  0.00  0.00    +0.000 A 
ATOM      7 CL   UNL     1       0.714   3.512  20.212  0.00  0.00    +0.000 Cl
ATOM      8  C   UNL     1       3.374   3.190  19.614  0.00  0.00    +0.000 A 
ATOM      9 CL   UNL     1       3.608   2.314  21.086  0.00  0.00    +0.000 Cl
ATOM     10  C   UNL     1       4.486   3.362  18.778  0.00  0.00    +0.000 A 
ENDBRANCH   2   3
BRANCH   1  11
ATOM     11  C   UNL     1       6.555   4.670  14.427  0.00  0.00    +0.000 C 
ATOM     12  N   UNL     1       7.645   5.297  14.780  0.00  0.00    +0.000 NA
ATOM     13  H   UNL     1       8.308   5.256  13.985  0.00  0.00    +0.000 HD
BRANCH  11  14
ATOM     14  C   UNL     1       6.407   4.030  13.039  0.00  0.00    +0.000 C 
ATOM     15  O   UNL     1       7.216   4.191  12.144  0.00  0.00    +0.000 OA
BRANCH  14  17
ATOM     16  C   UNL     1       4.658   3.276  11.706  0.00  0.00    +0.000 C 
ATOM     17  O   UNL     1       5.270   3.298  12.997  0.00  0.00    +0.000 OA
ENDBRANCH  14  17
ENDBRANCH  11  14
ENDBRANCH   1  11
BRANCH   2  18
ATOM     18  O   UNL     1       6.765   4.032  17.239  0.00  0.00    +0.000 OA
ATOM     19  H   UNL     1       7.059   3.118  17.008  0.00  0.00    +0.000 HD
ENDBRANCH   2  18
TORSDOF 5
ENDMDL
MODEL 8
REMARK VINA RESULT:      -6.4      3.387      4.700
REMARK  Name = 
REMARK  6 active torsions:
REMARK  status: ('A' for Active; 'I' for Inactive)
REMARK    1  A    between atoms: C_1  and  O_2
REMARK    2  A    between atoms: O_2  and  C_3
REMARK    3  A    between atoms: C_3  and  C_5
REMARK    4  A    between atoms: C_5  and  C_7
REMARK    5  A    between atoms: C_8  and  O_9
REMARK    6  A    between atoms: C_8  and  C_10
REMARK                            x       y       z     vdW  Elec       q    Type
REMARK                         _______ _______ _______ _____ _____    ______ ____
ROOT
ATOM      1  C   UNL     1       4.823   5.688  18.851  0.00  0.00    +0.000 C 
ATOM      2  C   UNL     1       3.552   5.850  18.444  0.00  0.00    +0.000 C 
ENDROOT
BRANCH   2   3
ATOM      3  C   UNL     1       2.770   7.081  18.705  0.00  0.00    +0.000 A 
ATOM      4  C   UNL     1       2.632   8.049  17.698  0.00  0.00    +0.000 A 
ATOM      5  C   UNL     1       1.870   9.205  17.902  0.00  0.00    +0.000 A 
ATOM      6  C   UNL     1       1.224   9.412  19.121  0.00  0.00    +0.000 A 
ATOM      7 CL   UNL     1       0.275  10.844  19.300  0.00  0.00    +0.000 Cl
ATOM      8  C   UNL     1       1.356   8.464  20.139  0.00  0.00    +0.000 A 
ATOM      9 CL   UNL     1       0.597   8.653  21.681  0.00  0.00    +0.000 Cl
ATOM     10  C   UNL     1       2.118   7.307  19.928  0.00  0.00    +0.000 A 
ENDBRANCH   2   3
BRANCH   1  11
ATOM     11  C   UNL     1       5.604   4.454  18.562  0.00  0.00    +0.000 C 
ATOM     12  N   UNL     1       5.262   3.287  19.039  0.00  0.00    +0.000 NA
ATOM     13  H   UNL     1       5.946   2.589  18.697  0.00  0.00    +0.000 HD
BRANCH  11  14
ATOM     14  C   UNL     1       6.837   4.627  17.663  0.00  0.00    +0.000 C 
ATOM     15  O   UNL     1       7.968   4.374  18.033  0.00  0.00    +0.000 OA
BRANCH  14  17
ATOM     16  C   UNL     1       6.221   4.054  15.497  0.00  0.00    +0.000 C 
ATOM     17  O   UNL     1       6.452   5.091  16.452  0.00  0.00    +0.000 OA
ENDBRANCH  14  17
ENDBRANCH  11  14
ENDBRANCH   1  11
BRANCH   2  18
ATOM     18  O   UNL     1       2.871   4.885  17.724  0.00  0.00    +0.000 OA
ATOM     19  H   UNL     1       3.455   4.091  17.668  0.00  0.00    +0.000 HD
ENDBRANCH   2  18
TORSDOF 5
ENDMDL
MODEL 9
REMARK VINA RESULT:      -6.4      2.386      2.931
REMARK  Name = 
REMARK  6 active torsions:
REMARK  status: ('A' for Active; 'I' for Inactive)
REMARK    1  A    between atoms: C_1  and  O_2
REMARK    2  A    between atoms: O_2  and  C_3
REMARK    3  A    between atoms: C_3  and  C_5
REMARK    4  A    between atoms: C_5  and  C_7
REMARK    5  A    between atoms: C_8  and  O_9
REMARK    6  A    between atoms: C_8  and  C_10
REMARK                            x       y       z     vdW  Elec       q    Type
REMARK                         _______ _______ _______ _____ _____    ______ ____
ROOT
ATOM      1  C   UNL     1       5.867   5.518  16.732  0.00  0.00    +0.000 C 
ATOM      2  C   UNL     1       5.285   5.072  17.859  0.00  0.00    +0.000 C 
ENDROOT
BRANCH   2   3
ATOM      3  C   UNL     1       4.154   5.768  18.517  0.00  0.00    +0.000 A 
ATOM      4  C   UNL     1       3.655   5.291  19.740  0.00  0.00    +0.000 A 
ATOM      5  C   UNL     1       2.612   5.948  20.403  0.00  0.00    +0.000 A 
ATOM      6  C   UNL     1       2.049   7.101  19.855  0.00  0.00    +0.000 A 
ATOM      7 CL   UNL     1       0.785   7.881  20.736  0.00  0.00    +0.000 Cl
ATOM      8  C   UNL     1       2.527   7.587  18.635  0.00  0.00    +0.000 A 
ATOM      9 CL   UNL     1       1.876   9.002  17.885  0.00  0.00    +0.000 Cl
ATOM     10  C   UNL     1       3.573   6.927  17.976  0.00  0.00    +0.000 A 
ENDBRANCH   2   3
BRANCH   1  11
ATOM     11  C   UNL     1       6.988   4.796  16.072  0.00  0.00    +0.000 C 
ATOM     12  N   UNL     1       7.906   4.165  16.753  0.00  0.00    +0.000 NA
ATOM     13  H   UNL     1       8.567   3.739  16.080  0.00  0.00    +0.000 HD
BRANCH  11  14
ATOM     14  C   UNL     1       7.004   4.829  14.536  0.00  0.00    +0.000 C 
ATOM     15  O   UNL     1       7.854   5.418  13.895  0.00  0.00    +0.000 OA
BRANCH  14  17
ATOM     16  C   UNL     1       6.192   3.559  12.768  0.00  0.00    +0.000 C 
ATOM     17  O   UNL     1       5.953   4.125  14.058  0.00  0.00    +0.000 OA
ENDBRANCH  14  17
ENDBRANCH  11  14
ENDBRANCH   1  11
BRANCH   2  18
ATOM     18  O   UNL     1       5.681   3.907  18.492  0.00  0.00    +0.000 OA
ATOM     19  H   UNL     1       6.652   3.806  18.343  0.00  0.00    +0.000 HD
ENDBRANCH   2  18
TORSDOF 5
ENDMDL
