MODEL 1
REMARK VINA RESULT:      -8.0      0.000      0.000
REMARK  Name = 
REMARK  3 active torsions:
REMARK  status: ('A' for Active; 'I' for Inactive)
REMARK    1  A    between atoms: C_4  and  C_5
REMARK    2  A    between atoms: C_5  and  N_6
REMARK    3  A    between atoms: C_10  and  C_11
REMARK                            x       y       z     vdW  Elec       q    Type
REMARK                         _______ _______ _______ _____ _____    ______ ____
ROOT
ATOM      1  N   UNL     1       4.072   2.994  18.503  0.00  0.00    +0.000 NA
ATOM      2  C   UNL     1       3.011   1.970  18.400  0.00  0.00    +0.000 C 
ATOM      3  C   UNL     1       1.571   2.519  18.424  0.00  0.00    +0.000 C 
ATOM      4  O   UNL     1       1.285   3.666  19.220  0.00  0.00    +0.000 OA
ATOM      5  C   UNL     1       2.357   4.401  19.821  0.00  0.00    +0.000 C 
ATOM      6  C   UNL     1       3.755   3.750  19.727  0.00  0.00    +0.000 C 
ENDROOT
BRANCH   5   7
ATOM      7  C   UNL     1       2.327   5.888  19.472  0.00  0.00    +0.000 A 
ATOM      8  C   UNL     1       2.594   6.352  18.175  0.00  0.00    +0.000 A 
ATOM      9  C   UNL     1       2.390   7.696  17.837  0.00  0.00    +0.000 A 
ATOM     10  C   UNL     1       1.927   8.592  18.796  0.00  0.00    +0.000 A 
ATOM     11 CL   UNL     1       1.585  10.221  18.359  0.00  0.00    +0.000 Cl
ATOM     12  C   UNL     1       1.703   8.168  20.101  0.00  0.00    +0.000 A 
ATOM     13  C   UNL     1       1.899   6.825  20.435  0.00  0.00    +0.000 A 
ENDBRANCH   5   7
BRANCH   1  14
ATOM     14  C   UNL     1       4.080   3.789  17.256  0.00  0.00    +0.000 C 
BRANCH  14  18
ATOM     15  O   UNL     1       7.603   5.340  14.542  0.00  0.00    +0.000 OA
ATOM     16  C   UNL     1       6.976   5.017  15.541  0.00  0.00    +0.000 A 
ATOM     17  N   UNL     1       5.628   4.758  15.616  0.00  0.00    +0.000 NA
ATOM     18  C   UNL     1       5.457   4.212  16.788  0.00  0.00    +0.000 A 
ATOM     19  N   UNL     1       6.612   4.029  17.520  0.00  0.00    +0.000 N 
ATOM     20  N   UNL     1       7.550   4.772  16.780  0.00  0.00    +0.000 N 
ATOM     21  H   UNL     1       6.537   4.236  18.509  0.00  0.00    +0.000 HD
ATOM     22  H   UNL     1       8.518   4.480  16.764  0.00  0.00    +0.000 HD
ENDBRANCH  14  18
ENDBRANCH   1  14
TORSDOF 3
ENDMDL
MODEL 2
REMARK VINA RESULT:      -8.0      3.144      4.452
REMARK  Name = 
REMARK  3 active torsions:
REMARK  status: ('A' for Active; 'I' for Inactive)
REMARK    1  A    between atoms: C_4  and  C_5
REMARK    2  A    between atoms: C_5  and  N_6
REMARK    3  A    between atoms: C_10  and  C_11
REMARK                            x       y       z     vdW  Elec       q    Type
REMARK                         _______ _______ _______ _____ _____    ______ ____
ROOT
ATOM      1  N   UNL     1       6.623   6.264  16.910  0.00  0.00    +0.000 NA
ATOM      2  C   UNL     1       7.680   6.389  17.936  0.00  0.00    +0.000 C 
ATOM      3  C   UNL     1       7.401   5.641  19.254  0.00  0.00    +0.000 C 
ATOM      4  O   UNL     1       6.057   5.546  19.720  0.00  0.00    +0.000 OA
ATOM      5  C   UNL     1       4.980   5.967  18.877  0.00  0.00    +0.000 C 
ATOM      6  C   UNL     1       5.387   6.702  17.580  0.00  0.00    +0.000 C 
ENDROOT
BRANCH   5   7
ATOM      7  C   UNL     1       3.919   4.885  18.682  0.00  0.00    +0.000 A 
ATOM      8  C   UNL     1       4.031   3.619  19.278  0.00  0.00    +0.000 A 
ATOM      9  C   UNL     1       2.969   2.708  19.232  0.00  0.00    +0.000 A 
ATOM     10  C   UNL     1       1.786   3.048  18.582  0.00  0.00    +0.000 A 
ATOM     11 CL   UNL     1       0.448   1.967  18.606  0.00  0.00    +0.000 Cl
ATOM     12  C   UNL     1       1.669   4.276  17.940  0.00  0.00    +0.000 A 
ATOM     13  C   UNL     1       2.726   5.188  17.993  0.00  0.00    +0.000 A 
ENDBRANCH   5   7
BRANCH   1  14
ATOM     14  C   UNL     1       6.611   4.870  16.416  0.00  0.00    +0.000 C 
BRANCH  14  18
ATOM     15  O   UNL     1       6.552   3.243  11.996  0.00  0.00    +0.000 OA
ATOM     16  C   UNL     1       6.722   3.999  12.942  0.00  0.00    +0.000 A 
ATOM     17  N   UNL     1       6.246   3.834  14.221  0.00  0.00    +0.000 NA
ATOM     18  C   UNL     1       6.877   4.727  14.931  0.00  0.00    +0.000 A 
ATOM     19  N   UNL     1       7.802   5.477  14.236  0.00  0.00    +0.000 N 
ATOM     20  N   UNL     1       7.512   5.138  12.901  0.00  0.00    +0.000 N 
ATOM     21  H   UNL     1       7.824   6.463  14.467  0.00  0.00    +0.000 HD
ATOM     22  H   UNL     1       8.255   5.132  12.214  0.00  0.00    +0.000 HD
ENDBRANCH  14  18
ENDBRANCH   1  14
TORSDOF 3
ENDMDL
MODEL 3
REMARK VINA RESULT:      -7.8      1.341      1.560
REMARK  Name = 
REMARK  3 active torsions:
REMARK  status: ('A' for Active; 'I' for Inactive)
REMARK    1  A    between atoms: C_4  and  C_5
REMARK    2  A    between atoms: C_5  and  N_6
REMARK    3  A    between atoms: C_10  and  C_11
REMARK                            x       y       z     vdW  Elec       q    Type
REMARK                         _______ _______ _______ _____ _____    ______ ____
ROOT
ATOM      1  N   UNL     1       4.949   4.678  18.204  0.00  0.00    +0.000 NA
ATOM      2  C   UNL     1       4.222   3.461  17.786  0.00  0.00    +0.000 C 
ATOM      3  C   UNL     1       2.698   3.634  17.631  0.00  0.00    +0.000 C 
ATOM      4  O   UNL     1       2.014   4.525  18.508  0.00  0.00    +0.000 OA
ATOM      5  C   UNL     1       2.761   5.383  19.376  0.00  0.00    +0.000 C 
ATOM      6  C   UNL     1       4.281   5.115  19.443  0.00  0.00    +0.000 C 
ENDROOT
BRANCH   5   7
ATOM      7  C   UNL     1       2.385   6.856  19.225  0.00  0.00    +0.000 A 
ATOM      8  C   UNL     1       2.429   7.510  17.985  0.00  0.00    +0.000 A 
ATOM      9  C   UNL     1       1.915   8.804  17.837  0.00  0.00    +0.000 A 
ATOM     10  C   UNL     1       1.360   9.463  18.931  0.00  0.00    +0.000 A 
ATOM     11 CL   UNL     1       0.643  11.013  18.730  0.00  0.00    +0.000 Cl
ATOM     12  C   UNL     1       1.351   8.856  20.182  0.00  0.00    +0.000 A 
ATOM     13  C   UNL     1       1.857   7.561  20.327  0.00  0.00    +0.000 A 
ENDBRANCH   5   7
BRANCH   1  14
ATOM     14  C   UNL     1       4.913   5.653  17.092  0.00  0.00    +0.000 C 
BRANCH  14  18
ATOM     15  O   UNL     1       6.687   3.938  13.081  0.00  0.00    +0.000 OA
ATOM     16  C   UNL     1       6.567   4.626  14.084  0.00  0.00    +0.000 A 
ATOM     17  N   UNL     1       5.457   4.713  14.891  0.00  0.00    +0.000 NA
ATOM     18  C   UNL     1       5.866   5.345  15.955  0.00  0.00    +0.000 A 
ATOM     19  N   UNL     1       7.208   5.665  15.964  0.00  0.00    +0.000 N 
ATOM     20  N   UNL     1       7.585   5.390  14.637  0.00  0.00    +0.000 N 
ATOM     21  H   UNL     1       7.434   6.584  16.326  0.00  0.00    +0.000 HD
ATOM     22  H   UNL     1       8.525   5.074  14.439  0.00  0.00    +0.000 HD
ENDBRANCH  14  18
ENDBRANCH   1  14
TORSDOF 3
ENDMDL
MODEL 4
REMARK VINA RESULT:      -7.8      3.180      4.437
REMARK  Name = 
REMARK  3 active torsions:
REMARK  status: ('A' for Active; 'I' for Inactive)
REMARK    1  A    between atoms: C_4  and  C_5
REMARK    2  A    between atoms: C_5  and  N_6
REMARK    3  A    between atoms: C_10  and  C_11
REMARK                            x       y       z     vdW  Elec       q    Type
REMARK                         _______ _______ _______ _____ _____    ______ ____
ROOT
ATOM      1  N   UNL     1       6.582   6.123  16.869  0.00  0.00    +0.000 NA
ATOM      2  C   UNL     1       7.646   6.306  17.878  0.00  0.00    +0.000 C 
ATOM      3  C   UNL     1       7.387   5.614  19.231  0.00  0.00    +0.000 C 
ATOM      4  O   UNL     1       6.048   5.527  19.713  0.00  0.00    +0.000 OA
ATOM      5  C   UNL     1       4.959   5.898  18.862  0.00  0.00    +0.000 C 
ATOM      6  C   UNL     1       5.347   6.579  17.530  0.00  0.00    +0.000 C 
ENDROOT
BRANCH   5   7
ATOM      7  C   UNL     1       3.909   4.797  18.727  0.00  0.00    +0.000 A 
ATOM      8  C   UNL     1       3.829   3.731  19.635  0.00  0.00    +0.000 A 
ATOM      9  C   UNL     1       2.754   2.833  19.596  0.00  0.00    +0.000 A 
ATOM     10  C   UNL     1       1.753   2.986  18.641  0.00  0.00    +0.000 A 
ATOM     11 CL   UNL     1       0.385   1.943  18.652  0.00  0.00    +0.000 Cl
ATOM     12  C   UNL     1       1.835   4.005  17.698  0.00  0.00    +0.000 A 
ATOM     13  C   UNL     1       2.903   4.905  17.743  0.00  0.00    +0.000 A 
ENDBRANCH   5   7
BRANCH   1  14
ATOM     14  C   UNL     1       6.581   4.709  16.438  0.00  0.00    +0.000 C 
BRANCH  14  18
ATOM     15  O   UNL     1       7.735   5.342  11.916  0.00  0.00    +0.000 OA
ATOM     16  C   UNL     1       7.345   4.797  12.938  0.00  0.00    +0.000 A 
ATOM     17  N   UNL     1       7.474   5.272  14.222  0.00  0.00    +0.000 NA
ATOM     18  C   UNL     1       6.701   4.507  14.941  0.00  0.00    +0.000 A 
ATOM     19  N   UNL     1       6.000   3.554  14.231  0.00  0.00    +0.000 N 
ATOM     20  N   UNL     1       6.615   3.617  12.967  0.00  0.00    +0.000 N 
ATOM     21  H   UNL     1       5.940   2.642  14.669  0.00  0.00    +0.000 HD
ATOM     22  H   UNL     1       6.074   3.418  12.137  0.00  0.00    +0.000 HD
ENDBRANCH  14  18
ENDBRANCH   1  14
TORSDOF 3
ENDMDL
MODEL 5
REMARK VINA RESULT:      -7.7      0.297      1.116
REMARK  Name = 
REMARK  3 active torsions:
REMARK  status: ('A' for Active; 'I' for Inactive)
REMARK    1  A    between atoms: C_4  and  C_5
REMARK    2  A    between atoms: C_5  and  N_6
REMARK    3  A    between atoms: C_10  and  C_11
REMARK                            x       y       z     vdW  Elec       q    Type
REMARK                         _______ _______ _______ _____ _____    ______ ____
ROOT
ATOM      1  N   UNL     1       4.308   3.024  18.618  0.00  0.00    +0.000 NA
ATOM      2  C   UNL     1       3.400   1.858  18.583  0.00  0.00    +0.000 C 
ATOM      3  C   UNL     1       1.897   2.203  18.577  0.00  0.00    +0.000 C 
ATOM      4  O   UNL     1       1.451   3.348  19.300  0.00  0.00    +0.000 OA
ATOM      5  C   UNL     1       2.408   4.259  19.850  0.00  0.00    +0.000 C 
ATOM      6  C   UNL     1       3.883   3.804  19.792  0.00  0.00    +0.000 C 
ENDROOT
BRANCH   5   7
ATOM      7  C   UNL     1       2.175   5.703  19.408  0.00  0.00    +0.000 A 
ATOM      8  C   UNL     1       1.873   6.721  20.326  0.00  0.00    +0.000 A 
ATOM      9  C   UNL     1       1.838   8.062  19.924  0.00  0.00    +0.000 A 
ATOM     10  C   UNL     1       2.094   8.400  18.599  0.00  0.00    +0.000 A 
ATOM     11 CL   UNL     1       2.145  10.053  18.125  0.00  0.00    +0.000 Cl
ATOM     12  C   UNL     1       2.347   7.406  17.660  0.00  0.00    +0.000 A 
ATOM     13  C   UNL     1       2.390   6.068  18.063  0.00  0.00    +0.000 A 
ENDBRANCH   5   7
BRANCH   1  14
ATOM     14  C   UNL     1       4.213   3.732  17.323  0.00  0.00    +0.000 C 
BRANCH  14  18
ATOM     15  O   UNL     1       7.514   5.295  14.350  0.00  0.00    +0.000 OA
ATOM     16  C   UNL     1       6.951   5.007  15.396  0.00  0.00    +0.000 A 
ATOM     17  N   UNL     1       5.627   4.674  15.551  0.00  0.00    +0.000 NA
ATOM     18  C   UNL     1       5.540   4.203  16.764  0.00  0.00    +0.000 A 
ATOM     19  N   UNL     1       6.734   4.141  17.452  0.00  0.00    +0.000 N 
ATOM     20  N   UNL     1       7.592   4.884  16.620  0.00  0.00    +0.000 N 
ATOM     21  H   UNL     1       6.688   4.412  18.427  0.00  0.00    +0.000 HD
ATOM     22  H   UNL     1       8.575   4.650  16.579  0.00  0.00    +0.000 HD
ENDBRANCH  14  18
ENDBRANCH   1  14
TORSDOF 3
ENDMDL
MODEL 6
REMARK VINA RESULT:      -7.6      1.296      1.296
REMARK  Name = 
REMARK  3 active torsions:
REMARK  status: ('A' for Active; 'I' for Inactive)
REMARK    1  A    between atoms: C_4  and  C_5
REMARK    2  A    between atoms: C_5  and  N_6
REMARK    3  A    between atoms: C_10  and  C_11
REMARK                            x       y       z     vdW  Elec       q    Type
REMARK                         _______ _______ _______ _____ _____    ______ ____
ROOT
ATOM      1  N   UNL     1       4.465   3.172  18.693  0.00  0.00    +0.000 NA
ATOM      2  C   UNL     1       3.558   2.102  18.229  0.00  0.00    +0.000 C 
ATOM      3  C   UNL     1       2.119   2.559  17.917  0.00  0.00    +0.000 C 
ATOM      4  O   UNL     1       1.542   3.600  18.701  0.00  0.00    +0.000 OA
ATOM      5  C   UNL     1       2.356   4.332  19.622  0.00  0.00    +0.000 C 
ATOM      6  C   UNL     1       3.781   3.779  19.848  0.00  0.00    +0.000 C 
ENDROOT
BRANCH   5   7
ATOM      7  C   UNL     1       2.292   5.842  19.403  0.00  0.00    +0.000 A 
ATOM      8  C   UNL     1       2.487   6.418  18.138  0.00  0.00    +0.000 A 
ATOM      9  C   UNL     1       2.251   7.782  17.926  0.00  0.00    +0.000 A 
ATOM     10  C   UNL     1       1.827   8.587  18.978  0.00  0.00    +0.000 A 
ATOM     11 CL   UNL     1       1.445  10.241  18.698  0.00  0.00    +0.000 Cl
ATOM     12  C   UNL     1       1.674   8.051  20.253  0.00  0.00    +0.000 A 
ATOM     13  C   UNL     1       1.902   6.688  20.462  0.00  0.00    +0.000 A 
ENDBRANCH   5   7
BRANCH   1  14
ATOM     14  C   UNL     1       4.727   4.089  17.563  0.00  0.00    +0.000 C 
BRANCH  14  18
ATOM     15  O   UNL     1       7.743   7.677  17.104  0.00  0.00    +0.000 OA
ATOM     16  C   UNL     1       7.192   6.691  17.569  0.00  0.00    +0.000 A 
ATOM     17  N   UNL     1       5.989   6.157  17.168  0.00  0.00    +0.000 NA
ATOM     18  C   UNL     1       5.929   4.993  17.751  0.00  0.00    +0.000 A 
ATOM     19  N   UNL     1       7.039   4.656  18.499  0.00  0.00    +0.000 N 
ATOM     20  N   UNL     1       7.741   5.875  18.548  0.00  0.00    +0.000 N 
ATOM     21  H   UNL     1       6.846   4.200  19.382  0.00  0.00    +0.000 HD
ATOM     22  H   UNL     1       8.751   5.869  18.597  0.00  0.00    +0.000 HD
ENDBRANCH  14  18
ENDBRANCH   1  14
TORSDOF 3
ENDMDL
MODEL 7
REMARK VINA RESULT:      -7.6      3.360      4.880
REMARK  Name = 
REMARK  3 active torsions:
REMARK  status: ('A' for Active; 'I' for Inactive)
REMARK    1  A    between atoms: C_4  and  C_5
REMARK    2  A    between atoms: C_5  and  N_6
REMARK    3  A    between atoms: C_10  and  C_11
REMARK                            x       y       z     vdW  Elec       q    Type
REMARK                         _______ _______ _______ _____ _____    ______ ____
ROOT
ATOM      1  N   UNL     1       1.799   4.332  19.020  0.00  0.00    +0.000 NA
ATOM      2  C   UNL     1       1.826   3.004  19.669  0.00  0.00    +0.000 C 
ATOM      3  C   UNL     1       3.222   2.359  19.773  0.00  0.00    +0.000 C 
ATOM      4  O   UNL     1       4.165   2.587  18.728  0.00  0.00    +0.000 OA
ATOM      5  C   UNL     1       3.882   3.554  17.712  0.00  0.00    +0.000 C 
ATOM      6  C   UNL     1       2.449   4.133  17.714  0.00  0.00    +0.000 C 
ENDROOT
BRANCH   5   7
ATOM      7  C   UNL     1       4.986   4.599  17.561  0.00  0.00    +0.000 A 
ATOM      8  C   UNL     1       4.986   5.533  16.513  0.00  0.00    +0.000 A 
ATOM      9  C   UNL     1       5.905   6.589  16.493  0.00  0.00    +0.000 A 
ATOM     10  C   UNL     1       6.841   6.717  17.515  0.00  0.00    +0.000 A 
ATOM     11 CL   UNL     1       7.909   8.066  17.541  0.00  0.00    +0.000 Cl
ATOM     12  C   UNL     1       6.895   5.776  18.538  0.00  0.00    +0.000 A 
ATOM     13  C   UNL     1       5.971   4.727  18.561  0.00  0.00    +0.000 A 
ENDBRANCH   5   7
BRANCH   1  14
ATOM     14  C   UNL     1       2.465   5.305  19.913  0.00  0.00    +0.000 C 
BRANCH  14  18
ATOM     15  O   UNL     1       2.136   9.336  17.500  0.00  0.00    +0.000 OA
ATOM     16  C   UNL     1       1.986   8.514  18.392  0.00  0.00    +0.000 A 
ATOM     17  N   UNL     1       2.286   7.173  18.332  0.00  0.00    +0.000 NA
ATOM     18  C   UNL     1       2.210   6.757  19.565  0.00  0.00    +0.000 A 
ATOM     19  N   UNL     1       1.922   7.736  20.494  0.00  0.00    +0.000 N 
ATOM     20  N   UNL     1       1.555   8.820  19.675  0.00  0.00    +0.000 N 
ATOM     21  H   UNL     1       1.271   7.466  21.221  0.00  0.00    +0.000 HD
ATOM     22  H   UNL     1       1.739   9.765  19.984  0.00  0.00    +0.000 HD
ENDBRANCH  14  18
ENDBRANCH   1  14
TORSDOF 3
ENDMDL
MODEL 8
REMARK VINA RESULT:      -7.5      1.182      1.341
REMARK  Name = 
REMARK  3 active torsions:
REMARK  status: ('A' for Active; 'I' for Inactive)
REMARK    1  A    between atoms: C_4  and  C_5
REMARK    2  A    between atoms: C_5  and  N_6
REMARK    3  A    between atoms: C_10  and  C_11
REMARK                            x       y       z     vdW  Elec       q    Type
REMARK                         _______ _______ _______ _____ _____    ______ ____
ROOT
ATOM      1  N   UNL     1       4.467   4.197  19.360  0.00  0.00    +0.000 NA
ATOM      2  C   UNL     1       4.019   3.303  18.273  0.00  0.00    +0.000 C 
ATOM      3  C   UNL     1       2.850   3.842  17.425  0.00  0.00    +0.000 C 
ATOM      4  O   UNL     1       1.852   4.639  18.059  0.00  0.00    +0.000 OA
ATOM      5  C   UNL     1       2.046   5.086  19.405  0.00  0.00    +0.000 C 
ATOM      6  C   UNL     1       3.255   4.477  20.149  0.00  0.00    +0.000 C 
ENDROOT
BRANCH   5   7
ATOM      7  C   UNL     1       1.909   6.600  19.554  0.00  0.00    +0.000 A 
ATOM      8  C   UNL     1       2.120   7.475  18.478  0.00  0.00    +0.000 A 
ATOM      9  C   UNL     1       1.819   8.838  18.591  0.00  0.00    +0.000 A 
ATOM     10  C   UNL     1       1.313   9.343  19.785  0.00  0.00    +0.000 A 
ATOM     11 CL   UNL     1       0.854  10.997  19.895  0.00  0.00    +0.000 Cl
ATOM     12  C   UNL     1       1.143   8.506  20.882  0.00  0.00    +0.000 A 
ATOM     13  C   UNL     1       1.435   7.144  20.766  0.00  0.00    +0.000 A 
ENDBRANCH   5   7
BRANCH   1  14
ATOM     14  C   UNL     1       5.114   5.383  18.757  0.00  0.00    +0.000 C 
BRANCH  14  18
ATOM     15  O   UNL     1       7.433   5.164  14.664  0.00  0.00    +0.000 OA
ATOM     16  C   UNL     1       7.207   5.095  15.863  0.00  0.00    +0.000 A 
ATOM     17  N   UNL     1       6.104   5.587  16.521  0.00  0.00    +0.000 NA
ATOM     18  C   UNL     1       6.165   5.064  17.714  0.00  0.00    +0.000 A 
ATOM     19  N   UNL     1       7.219   4.198  17.918  0.00  0.00    +0.000 N 
ATOM     20  N   UNL     1       8.006   4.417  16.772  0.00  0.00    +0.000 N 
ATOM     21  H   UNL     1       7.679   4.277  18.816  0.00  0.00    +0.000 HD
ATOM     22  H   UNL     1       8.557   3.659  16.392  0.00  0.00    +0.000 HD
ENDBRANCH  14  18
ENDBRANCH   1  14
TORSDOF 3
ENDMDL
MODEL 9
REMARK VINA RESULT:      -7.4      1.248      1.571
REMARK  Name = 
REMARK  3 active torsions:
REMARK  status: ('A' for Active; 'I' for Inactive)
REMARK    1  A    between atoms: C_4  and  C_5
REMARK    2  A    between atoms: C_5  and  N_6
REMARK    3  A    between atoms: C_10  and  C_11
REMARK                            x       y       z     vdW  Elec       q    Type
REMARK                         _______ _______ _______ _____ _____    ______ ____
ROOT
ATOM      1  N   UNL     1       4.833   4.618  18.163  0.00  0.00    +0.000 NA
ATOM      2  C   UNL     1       4.080   3.367  17.936  0.00  0.00    +0.000 C 
ATOM      3  C   UNL     1       2.546   3.516  17.963  0.00  0.00    +0.000 C 
ATOM      4  O   UNL     1       1.963   4.469  18.849  0.00  0.00    +0.000 OA
ATOM      5  C   UNL     1       2.800   5.397  19.546  0.00  0.00    +0.000 C 
ATOM      6  C   UNL     1       4.320   5.146  19.438  0.00  0.00    +0.000 C 
ENDROOT
BRANCH   5   7
ATOM      7  C   UNL     1       2.383   6.851  19.330  0.00  0.00    +0.000 A 
ATOM      8  C   UNL     1       2.416   7.454  18.064  0.00  0.00    +0.000 A 
ATOM      9  C   UNL     1       1.866   8.725  17.858  0.00  0.00    +0.000 A 
ATOM     10  C   UNL     1       1.285   9.412  18.920  0.00  0.00    +0.000 A 
ATOM     11 CL   UNL     1       0.525  10.932  18.650  0.00  0.00    +0.000 Cl
ATOM     12  C   UNL     1       1.284   8.858  20.196  0.00  0.00    +0.000 A 
ATOM     13  C   UNL     1       1.826   7.586  20.398  0.00  0.00    +0.000 A 
ENDBRANCH   5   7
BRANCH   1  14
ATOM     14  C   UNL     1       4.640   5.502  16.992  0.00  0.00    +0.000 C 
BRANCH  14  18
ATOM     15  O   UNL     1       8.156   5.562  13.859  0.00  0.00    +0.000 OA
ATOM     16  C   UNL     1       7.178   5.177  14.484  0.00  0.00    +0.000 A 
ATOM     17  N   UNL     1       6.680   5.721  15.644  0.00  0.00    +0.000 NA
ATOM     18  C   UNL     1       5.511   5.164  15.799  0.00  0.00    +0.000 A 
ATOM     19  N   UNL     1       5.139   4.299  14.791  0.00  0.00    +0.000 N 
ATOM     20  N   UNL     1       6.339   4.152  14.071  0.00  0.00    +0.000 N 
ATOM     21  H   UNL     1       4.678   3.450  15.096  0.00  0.00    +0.000 HD
ATOM     22  H   UNL     1       6.307   3.988  13.074  0.00  0.00    +0.000 HD
ENDBRANCH  14  18
ENDBRANCH   1  14
TORSDOF 3
ENDMDL
