MODEL 1
REMARK VINA RESULT:      -7.0      0.000      0.000
REMARK  Name = 
REMARK  8 active torsions:
REMARK  status: ('A' for Active; 'I' for Inactive)
REMARK    1  A    between atoms: C_1  and  C_2
REMARK    2  A    between atoms: C_2  and  C_3
REMARK    3  A    between atoms: C_2  and  C_4
REMARK    4  A    between atoms: C_2  and  C_5
REMARK    5  A    between atoms: C_8  and  O_9
REMARK    6  A    between atoms: O_9  and  C_10
REMARK    7  A    between atoms: C_10  and  C_11
REMARK    8  A    between atoms: N_13  and  C_14
REMARK                            x       y       z     vdW  Elec       q    Type
REMARK                         _______ _______ _______ _____ _____    ______ ____
ROOT
ATOM      1  C   UNL     1       2.232   5.113  19.250  0.00  0.00    +0.000 C 
ENDROOT
BRANCH   1   2
ATOM      2  C   UNL     1       2.765   4.592  17.914  0.00  0.00    +0.000 C 
ATOM      3  O   UNL     1       2.134   3.788  17.232  0.00  0.00    +0.000 OA
ATOM      4  N   UNL     1       3.986   5.110  17.523  0.00  0.00    +0.000 N 
ATOM      5  H   UNL     1       4.472   5.678  18.218  0.00  0.00    +0.000 HD
BRANCH   4   6
ATOM      6  C   UNL     1       4.618   4.717  16.271  0.00  0.00    +0.000 C 
ATOM      7  C   UNL     1       5.680   3.632  16.489  0.00  0.00    +0.000 C 
ATOM      8  C   UNL     1       6.941   4.347  16.947  0.00  0.00    +0.000 C 
ATOM      9  S   UNL     1       7.011   5.815  15.941  0.00  0.00    +0.000 S 
ATOM     10  O   UNL     1       7.745   5.509  14.733  0.00  0.00    +0.000 OA
ATOM     11  O   UNL     1       7.350   6.939  16.789  0.00  0.00    +0.000 OA
ATOM     12  C   UNL     1       5.275   5.889  15.544  0.00  0.00    +0.000 C 
ENDBRANCH   4   6
ENDBRANCH   1   2
BRANCH   1  13
ATOM     13  O   UNL     1       2.906   6.311  19.623  0.00  0.00    +0.000 OA
BRANCH  13  17
ATOM     14  C   UNL     1       0.694   9.874  19.335  0.00  0.00    +0.000 A 
ATOM     15  C   UNL     1       0.799   9.125  20.518  0.00  0.00    +0.000 A 
ATOM     16  C   UNL     1       1.548   7.945  20.571  0.00  0.00    +0.000 A 
ATOM     17  C   UNL     1       2.200   7.468  19.439  0.00  0.00    +0.000 A 
ATOM     18  C   UNL     1       2.129   8.199  18.258  0.00  0.00    +0.000 A 
ATOM     19  C   UNL     1       1.387   9.389  18.209  0.00  0.00    +0.000 A 
BRANCH  14  21
ATOM     20  C   UNL     1      -0.802  11.552  20.586  0.00  0.00    +0.000 C 
ATOM     21  C   UNL     1      -0.151  11.158  19.240  0.00  0.00    +0.000 C 
ATOM     22  C   UNL     1      -1.285  10.953  18.213  0.00  0.00    +0.000 C 
ATOM     23  C   UNL     1       0.714  12.353  18.786  0.00  0.00    +0.000 C 
ENDBRANCH  14  21
ENDBRANCH  13  17
ENDBRANCH   1  13
TORSDOF 5
ENDMDL
MODEL 2
REMARK VINA RESULT:      -6.9      0.997      1.516
REMARK  Name = 
REMARK  8 active torsions:
REMARK  status: ('A' for Active; 'I' for Inactive)
REMARK    1  A    between atoms: C_1  and  C_2
REMARK    2  A    between atoms: C_2  and  C_3
REMARK    3  A    between atoms: C_2  and  C_4
REMARK    4  A    between atoms: C_2  and  C_5
REMARK    5  A    between atoms: C_8  and  O_9
REMARK    6  A    between atoms: O_9  and  C_10
REMARK    7  A    between atoms: C_10  and  C_11
REMARK    8  A    between atoms: N_13  and  C_14
REMARK                            x       y       z     vdW  Elec       q    Type
REMARK                         _______ _______ _______ _____ _____    ______ ____
ROOT
ATOM      1  C   UNL     1       2.372   4.964  19.483  0.00  0.00    +0.000 C 
ENDROOT
BRANCH   1   2
ATOM      2  C   UNL     1       3.468   4.195  18.742  0.00  0.00    +0.000 C 
ATOM      3  O   UNL     1       3.290   3.055  18.321  0.00  0.00    +0.000 OA
ATOM      4  N   UNL     1       4.652   4.886  18.559  0.00  0.00    +0.000 N 
ATOM      5  H   UNL     1       4.729   5.777  19.048  0.00  0.00    +0.000 HD
BRANCH   4   6
ATOM      6  C   UNL     1       5.784   4.289  17.863  0.00  0.00    +0.000 C 
ATOM      7  C   UNL     1       7.089   5.040  18.155  0.00  0.00    +0.000 C 
ATOM      8  C   UNL     1       7.108   6.250  17.235  0.00  0.00    +0.000 C 
ATOM      9  S   UNL     1       6.476   5.640  15.686  0.00  0.00    +0.000 S 
ATOM     10  O   UNL     1       7.585   5.151  14.898  0.00  0.00    +0.000 OA
ATOM     11  O   UNL     1       5.523   6.600  15.168  0.00  0.00    +0.000 OA
ATOM     12  C   UNL     1       5.591   4.242  16.348  0.00  0.00    +0.000 C 
ENDBRANCH   4   6
ENDBRANCH   1   2
BRANCH   1  13
ATOM     13  O   UNL     1       2.897   6.162  20.048  0.00  0.00    +0.000 OA
BRANCH  13  17
ATOM     14  C   UNL     1       0.705   9.694  19.426  0.00  0.00    +0.000 A 
ATOM     15  C   UNL     1       0.722   9.002  20.648  0.00  0.00    +0.000 A 
ATOM     16  C   UNL     1       1.468   7.830  20.813  0.00  0.00    +0.000 A 
ATOM     17  C   UNL     1       2.205   7.304  19.757  0.00  0.00    +0.000 A 
ATOM     18  C   UNL     1       2.221   7.978  18.541  0.00  0.00    +0.000 A 
ATOM     19  C   UNL     1       1.483   9.161  18.380  0.00  0.00    +0.000 A 
BRANCH  14  21
ATOM     20  C   UNL     1      -1.227  10.790  18.128  0.00  0.00    +0.000 C 
ATOM     21  C   UNL     1      -0.133  10.967  19.207  0.00  0.00    +0.000 C 
ATOM     22  C   UNL     1       0.789  12.119  18.754  0.00  0.00    +0.000 C 
ATOM     23  C   UNL     1      -0.844  11.389  20.510  0.00  0.00    +0.000 C 
ENDBRANCH  14  21
ENDBRANCH  13  17
ENDBRANCH   1  13
TORSDOF 5
ENDMDL
MODEL 3
REMARK VINA RESULT:      -6.9      1.493      2.253
REMARK  Name = 
REMARK  8 active torsions:
REMARK  status: ('A' for Active; 'I' for Inactive)
REMARK    1  A    between atoms: C_1  and  C_2
REMARK    2  A    between atoms: C_2  and  C_3
REMARK    3  A    between atoms: C_2  and  C_4
REMARK    4  A    between atoms: C_2  and  C_5
REMARK    5  A    between atoms: C_8  and  O_9
REMARK    6  A    between atoms: O_9  and  C_10
REMARK    7  A    between atoms: C_10  and  C_11
REMARK    8  A    between atoms: N_13  and  C_14
REMARK                            x       y       z     vdW  Elec       q    Type
REMARK                         _______ _______ _______ _____ _____    ______ ____
ROOT
ATOM      1  C   UNL     1       2.027   6.039  19.941  0.00  0.00    +0.000 C 
ENDROOT
BRANCH   1   2
ATOM      2  C   UNL     1       3.190   5.057  19.789  0.00  0.00    +0.000 C 
ATOM      3  O   UNL     1       3.138   3.915  20.238  0.00  0.00    +0.000 OA
ATOM      4  N   UNL     1       4.282   5.539  19.090  0.00  0.00    +0.000 N 
ATOM      5  H   UNL     1       4.263   6.534  18.865  0.00  0.00    +0.000 HD
BRANCH   4   6
ATOM      6  C   UNL     1       5.462   4.717  18.855  0.00  0.00    +0.000 C 
ATOM      7  C   UNL     1       6.754   5.473  19.189  0.00  0.00    +0.000 C 
ATOM      8  C   UNL     1       7.070   6.343  17.983  0.00  0.00    +0.000 C 
ATOM      9  S   UNL     1       6.690   5.314  16.580  0.00  0.00    +0.000 S 
ATOM     10  O   UNL     1       7.876   4.568  16.224  0.00  0.00    +0.000 OA
ATOM     11  O   UNL     1       5.955   6.105  15.615  0.00  0.00    +0.000 OA
ATOM     12  C   UNL     1       5.560   4.218  17.415  0.00  0.00    +0.000 C 
ENDBRANCH   4   6
ENDBRANCH   1   2
BRANCH   1  13
ATOM     13  O   UNL     1       2.514   7.364  20.134  0.00  0.00    +0.000 OA
BRANCH  13  17
ATOM     14  C   UNL     1      -0.191  10.419  19.125  0.00  0.00    +0.000 A 
ATOM     15  C   UNL     1       0.720   9.863  18.212  0.00  0.00    +0.000 A 
ATOM     16  C   UNL     1       1.602   8.845  18.589  0.00  0.00    +0.000 A 
ATOM     17  C   UNL     1       1.614   8.365  19.894  0.00  0.00    +0.000 A 
ATOM     18  C   UNL     1       0.711   8.884  20.815  0.00  0.00    +0.000 A 
ATOM     19  C   UNL     1      -0.183   9.897  20.433  0.00  0.00    +0.000 A 
BRANCH  14  21
ATOM     20  C   UNL     1      -0.410  12.844  18.293  0.00  0.00    +0.000 C 
ATOM     21  C   UNL     1      -1.149  11.563  18.746  0.00  0.00    +0.000 C 
ATOM     22  C   UNL     1      -2.020  11.932  19.966  0.00  0.00    +0.000 C 
ATOM     23  C   UNL     1      -2.078  11.141  17.588  0.00  0.00    +0.000 C 
ENDBRANCH  14  21
ENDBRANCH  13  17
ENDBRANCH   1  13
TORSDOF 5
ENDMDL
MODEL 4
REMARK VINA RESULT:      -6.8      1.884      2.886
REMARK  Name = 
REMARK  8 active torsions:
REMARK  status: ('A' for Active; 'I' for Inactive)
REMARK    1  A    between atoms: C_1  and  C_2
REMARK    2  A    between atoms: C_2  and  C_3
REMARK    3  A    between atoms: C_2  and  C_4
REMARK    4  A    between atoms: C_2  and  C_5
REMARK    5  A    between atoms: C_8  and  O_9
REMARK    6  A    between atoms: O_9  and  C_10
REMARK    7  A    between atoms: C_10  and  C_11
REMARK    8  A    between atoms: N_13  and  C_14
REMARK                            x       y       z     vdW  Elec       q    Type
REMARK                         _______ _______ _______ _____ _____    ______ ____
ROOT
ATOM      1  C   UNL     1       2.019   7.811  19.621  0.00  0.00    +0.000 C 
ENDROOT
BRANCH   1   2
ATOM      2  C   UNL     1       2.602   6.460  19.200  0.00  0.00    +0.000 C 
ATOM      3  O   UNL     1       2.040   5.401  19.466  0.00  0.00    +0.000 OA
ATOM      4  N   UNL     1       3.781   6.524  18.481  0.00  0.00    +0.000 N 
ATOM      5  H   UNL     1       4.216   7.445  18.419  0.00  0.00    +0.000 HD
BRANCH   4   6
ATOM      6  C   UNL     1       4.450   5.322  18.003  0.00  0.00    +0.000 C 
ATOM      7  C   UNL     1       5.436   4.772  19.041  0.00  0.00    +0.000 C 
ATOM      8  C   UNL     1       6.712   5.587  18.900  0.00  0.00    +0.000 C 
ATOM      9  S   UNL     1       6.916   5.795  17.143  0.00  0.00    +0.000 S 
ATOM     10  O   UNL     1       7.691   4.684  16.637  0.00  0.00    +0.000 OA
ATOM     11  O   UNL     1       7.276   7.173  16.881  0.00  0.00    +0.000 OA
ATOM     12  C   UNL     1       5.209   5.546  16.696  0.00  0.00    +0.000 C 
ENDBRANCH   4   6
ENDBRANCH   1   2
BRANCH   1  13
ATOM     13  O   UNL     1       1.442   7.723  20.921  0.00  0.00    +0.000 OA
BRANCH  13  17
ATOM     14  C   UNL     1      -0.902  11.087  21.848  0.00  0.00    +0.000 A 
ATOM     15  C   UNL     1      -0.535  10.739  20.537  0.00  0.00    +0.000 A 
ATOM     16  C   UNL     1       0.244   9.609  20.273  0.00  0.00    +0.000 A 
ATOM     17  C   UNL     1       0.698   8.801  21.310  0.00  0.00    +0.000 A 
ATOM     18  C   UNL     1       0.335   9.111  22.617  0.00  0.00    +0.000 A 
ATOM     19  C   UNL     1      -0.459  10.238  22.880  0.00  0.00    +0.000 A 
BRANCH  14  21
ATOM     20  C   UNL     1      -2.762  12.112  23.300  0.00  0.00    +0.000 C 
ATOM     21  C   UNL     1      -1.731  12.343  22.171  0.00  0.00    +0.000 C 
ATOM     22  C   UNL     1      -2.508  12.785  20.912  0.00  0.00    +0.000 C 
ATOM     23  C   UNL     1      -0.818  13.504  22.619  0.00  0.00    +0.000 C 
ENDBRANCH  14  21
ENDBRANCH  13  17
ENDBRANCH   1  13
TORSDOF 5
ENDMDL
MODEL 5
REMARK VINA RESULT:      -6.8      0.995      1.812
REMARK  Name = 
REMARK  8 active torsions:
REMARK  status: ('A' for Active; 'I' for Inactive)
REMARK    1  A    between atoms: C_1  and  C_2
REMARK    2  A    between atoms: C_2  and  C_3
REMARK    3  A    between atoms: C_2  and  C_4
REMARK    4  A    between atoms: C_2  and  C_5
REMARK    5  A    between atoms: C_8  and  O_9
REMARK    6  A    between atoms: O_9  and  C_10
REMARK    7  A    between atoms: C_10  and  C_11
REMARK    8  A    between atoms: N_13  and  C_14
REMARK                            x       y       z     vdW  Elec       q    Type
REMARK                         _______ _______ _______ _____ _____    ______ ____
ROOT
ATOM      1  C   UNL     1       2.196   4.964  19.350  0.00  0.00    +0.000 C 
ENDROOT
BRANCH   1   2
ATOM      2  C   UNL     1       3.308   4.176  18.655  0.00  0.00    +0.000 C 
ATOM      3  O   UNL     1       3.156   3.006  18.312  0.00  0.00    +0.000 OA
ATOM      4  N   UNL     1       4.473   4.882  18.419  0.00  0.00    +0.000 N 
ATOM      5  H   UNL     1       4.529   5.806  18.848  0.00  0.00    +0.000 HD
BRANCH   4   6
ATOM      6  C   UNL     1       5.616   4.269  17.757  0.00  0.00    +0.000 C 
ATOM      7  C   UNL     1       6.928   4.974  18.123  0.00  0.00    +0.000 C 
ATOM      8  C   UNL     1       7.021   6.204  17.233  0.00  0.00    +0.000 C 
ATOM      9  S   UNL     1       6.439   5.648  15.645  0.00  0.00    +0.000 S 
ATOM     10  O   UNL     1       7.567   5.144  14.893  0.00  0.00    +0.000 OA
ATOM     11  O   UNL     1       5.536   6.647  15.110  0.00  0.00    +0.000 OA
ATOM     12  C   UNL     1       5.487   4.262  16.235  0.00  0.00    +0.000 C 
ENDBRANCH   4   6
ENDBRANCH   1   2
BRANCH   1  13
ATOM     13  O   UNL     1       2.745   6.039  20.108  0.00  0.00    +0.000 OA
BRANCH  13  17
ATOM     14  C   UNL     1       0.782   9.708  19.512  0.00  0.00    +0.000 A 
ATOM     15  C   UNL     1       1.568   9.084  18.528  0.00  0.00    +0.000 A 
ATOM     16  C   UNL     1       2.202   7.861  18.768  0.00  0.00    +0.000 A 
ATOM     17  C   UNL     1       2.086   7.232  20.003  0.00  0.00    +0.000 A 
ATOM     18  C   UNL     1       1.300   7.817  20.990  0.00  0.00    +0.000 A 
ATOM     19  C   UNL     1       0.653   9.038  20.744  0.00  0.00    +0.000 A 
BRANCH  14  21
ATOM     20  C   UNL     1       1.058  12.133  18.698  0.00  0.00    +0.000 C 
ATOM     21  C   UNL     1       0.101  11.069  19.286  0.00  0.00    +0.000 C 
ATOM     22  C   UNL     1      -0.429  11.610  20.632  0.00  0.00    +0.000 C 
ATOM     23  C   UNL     1      -1.086  10.936  18.309  0.00  0.00    +0.000 C 
ENDBRANCH  14  21
ENDBRANCH  13  17
ENDBRANCH   1  13
TORSDOF 5
ENDMDL
MODEL 6
REMARK VINA RESULT:      -6.8      1.898      2.832
REMARK  Name = 
REMARK  8 active torsions:
REMARK  status: ('A' for Active; 'I' for Inactive)
REMARK    1  A    between atoms: C_1  and  C_2
REMARK    2  A    between atoms: C_2  and  C_3
REMARK    3  A    between atoms: C_2  and  C_4
REMARK    4  A    between atoms: C_2  and  C_5
REMARK    5  A    between atoms: C_8  and  O_9
REMARK    6  A    between atoms: O_9  and  C_10
REMARK    7  A    between atoms: C_10  and  C_11
REMARK    8  A    between atoms: N_13  and  C_14
REMARK                            x       y       z     vdW  Elec       q    Type
REMARK                         _______ _______ _______ _____ _____    ______ ____
ROOT
ATOM      1  C   UNL     1       2.136   7.786  19.589  0.00  0.00    +0.000 C 
ENDROOT
BRANCH   1   2
ATOM      2  C   UNL     1       2.755   6.415  19.310  0.00  0.00    +0.000 C 
ATOM      3  O   UNL     1       2.288   5.384  19.786  0.00  0.00    +0.000 OA
ATOM      4  N   UNL     1       3.851   6.423  18.467  0.00  0.00    +0.000 N 
ATOM      5  H   UNL     1       4.221   7.342  18.225  0.00  0.00    +0.000 HD
BRANCH   4   6
ATOM      6  C   UNL     1       4.541   5.194  18.101  0.00  0.00    +0.000 C 
ATOM      7  C   UNL     1       5.544   4.764  19.179  0.00  0.00    +0.000 C 
ATOM      8  C   UNL     1       6.802   5.586  18.952  0.00  0.00    +0.000 C 
ATOM      9  S   UNL     1       6.992   5.629  17.181  0.00  0.00    +0.000 S 
ATOM     10  O   UNL     1       7.786   4.490  16.777  0.00  0.00    +0.000 OA
ATOM     11  O   UNL     1       7.323   6.983  16.786  0.00  0.00    +0.000 OA
ATOM     12  C   UNL     1       5.288   5.306  16.773  0.00  0.00    +0.000 C 
ENDBRANCH   4   6
ENDBRANCH   1   2
BRANCH   1  13
ATOM     13  O   UNL     1       1.385   7.758  20.800  0.00  0.00    +0.000 OA
BRANCH  13  17
ATOM     14  C   UNL     1      -0.869  11.143  21.863  0.00  0.00    +0.000 A 
ATOM     15  C   UNL     1      -0.393  10.209  22.797  0.00  0.00    +0.000 A 
ATOM     16  C   UNL     1       0.357   9.097  22.401  0.00  0.00    +0.000 A 
ATOM     17  C   UNL     1       0.638   8.873  21.057  0.00  0.00    +0.000 A 
ATOM     18  C   UNL     1       0.194   9.792  20.111  0.00  0.00    +0.000 A 
ATOM     19  C   UNL     1      -0.547  10.914  20.511  0.00  0.00    +0.000 A 
BRANCH  14  21
ATOM     20  C   UNL     1      -0.881  13.535  22.811  0.00  0.00    +0.000 C 
ATOM     21  C   UNL     1      -1.724  12.357  22.268  0.00  0.00    +0.000 C 
ATOM     22  C   UNL     1      -2.716  11.943  23.375  0.00  0.00    +0.000 C 
ATOM     23  C   UNL     1      -2.527  12.892  21.063  0.00  0.00    +0.000 C 
ENDBRANCH  14  21
ENDBRANCH  13  17
ENDBRANCH   1  13
TORSDOF 5
ENDMDL
MODEL 7
REMARK VINA RESULT:      -6.8      1.581      2.177
REMARK  Name = 
REMARK  8 active torsions:
REMARK  status: ('A' for Active; 'I' for Inactive)
REMARK    1  A    between atoms: C_1  and  C_2
REMARK    2  A    between atoms: C_2  and  C_3
REMARK    3  A    between atoms: C_2  and  C_4
REMARK    4  A    between atoms: C_2  and  C_5
REMARK    5  A    between atoms: C_8  and  O_9
REMARK    6  A    between atoms: O_9  and  C_10
REMARK    7  A    between atoms: C_10  and  C_11
REMARK    8  A    between atoms: N_13  and  C_14
REMARK                            x       y       z     vdW  Elec       q    Type
REMARK                         _______ _______ _______ _____ _____    ______ ____
ROOT
ATOM      1  C   UNL     1       2.303   6.208  19.996  0.00  0.00    +0.000 C 
ENDROOT
BRANCH   1   2
ATOM      2  C   UNL     1       3.401   5.202  19.641  0.00  0.00    +0.000 C 
ATOM      3  O   UNL     1       3.212   3.990  19.696  0.00  0.00    +0.000 OA
ATOM      4  N   UNL     1       4.599   5.757  19.230  0.00  0.00    +0.000 N 
ATOM      5  H   UNL     1       4.681   6.768  19.333  0.00  0.00    +0.000 HD
BRANCH   4   6
ATOM      6  C   UNL     1       5.734   4.927  18.849  0.00  0.00    +0.000 C 
ATOM      7  C   UNL     1       7.061   5.682  18.993  0.00  0.00    +0.000 C 
ATOM      8  C   UNL     1       7.213   6.533  17.743  0.00  0.00    +0.000 C 
ATOM      9  S   UNL     1       6.643   5.485  16.420  0.00  0.00    +0.000 S 
ATOM     10  O   UNL     1       7.768   4.728  15.917  0.00  0.00    +0.000 OA
ATOM     11  O   UNL     1       5.785   6.265  15.551  0.00  0.00    +0.000 OA
ATOM     12  C   UNL     1       5.634   4.406  17.417  0.00  0.00    +0.000 C 
ENDBRANCH   4   6
ENDBRANCH   1   2
BRANCH   1  13
ATOM     13  O   UNL     1       2.362   7.337  19.129  0.00  0.00    +0.000 OA
BRANCH  13  17
ATOM     14  C   UNL     1       0.220  10.616  20.656  0.00  0.00    +0.000 A 
ATOM     15  C   UNL     1       0.609   9.517  21.439  0.00  0.00    +0.000 A 
ATOM     16  C   UNL     1       1.324   8.447  20.891  0.00  0.00    +0.000 A 
ATOM     17  C   UNL     1       1.655   8.433  19.540  0.00  0.00    +0.000 A 
ATOM     18  C   UNL     1       1.299   9.517  18.744  0.00  0.00    +0.000 A 
ATOM     19  C   UNL     1       0.593  10.596  19.298  0.00  0.00    +0.000 A 
BRANCH  14  21
ATOM     20  C   UNL     1       0.249  13.072  21.423  0.00  0.00    +0.000 C 
ATOM     21  C   UNL     1      -0.595  11.791  21.225  0.00  0.00    +0.000 C 
ATOM     22  C   UNL     1      -1.176  11.398  22.600  0.00  0.00    +0.000 C 
ATOM     23  C   UNL     1      -1.763  12.158  20.284  0.00  0.00    +0.000 C 
ENDBRANCH  14  21
ENDBRANCH  13  17
ENDBRANCH   1  13
TORSDOF 5
ENDMDL
MODEL 8
REMARK VINA RESULT:      -6.7      4.140      7.972
REMARK  Name = 
REMARK  8 active torsions:
REMARK  status: ('A' for Active; 'I' for Inactive)
REMARK    1  A    between atoms: C_1  and  C_2
REMARK    2  A    between atoms: C_2  and  C_3
REMARK    3  A    between atoms: C_2  and  C_4
REMARK    4  A    between atoms: C_2  and  C_5
REMARK    5  A    between atoms: C_8  and  O_9
REMARK    6  A    between atoms: O_9  and  C_10
REMARK    7  A    between atoms: C_10  and  C_11
REMARK    8  A    between atoms: N_13  and  C_14
REMARK                            x       y       z     vdW  Elec       q    Type
REMARK                         _______ _______ _______ _____ _____    ______ ____
ROOT
ATOM      1  C   UNL     1       6.032   6.230  18.078  0.00  0.00    +0.000 C 
ENDROOT
BRANCH   1   2
ATOM      2  C   UNL     1       4.503   6.211  18.138  0.00  0.00    +0.000 C 
ATOM      3  O   UNL     1       3.818   6.983  17.473  0.00  0.00    +0.000 OA
ATOM      4  N   UNL     1       3.957   5.249  18.969  0.00  0.00    +0.000 N 
ATOM      5  H   UNL     1       4.618   4.743  19.559  0.00  0.00    +0.000 HD
BRANCH   4   6
ATOM      6  C   UNL     1       2.517   5.102  19.122  0.00  0.00    +0.000 C 
ATOM      7  C   UNL     1       2.153   4.448  20.461  0.00  0.00    +0.000 C 
ATOM      8  C   UNL     1       2.327   2.950  20.273  0.00  0.00    +0.000 C 
ATOM      9  S   UNL     1       1.682   2.628  18.644  0.00  0.00    +0.000 S 
ATOM     10  O   UNL     1       0.269   2.347  18.758  0.00  0.00    +0.000 OA
ATOM     11  O   UNL     1       2.595   1.740  17.954  0.00  0.00    +0.000 OA
ATOM     12  C   UNL     1       1.882   4.279  18.003  0.00  0.00    +0.000 C 
ENDBRANCH   4   6
ENDBRANCH   1   2
BRANCH   1  13
ATOM     13  O   UNL     1       6.535   4.938  17.750  0.00  0.00    +0.000 OA
BRANCH  13  17
ATOM     14  C   UNL     1       6.229   3.867  13.696  0.00  0.00    +0.000 A 
ATOM     15  C   UNL     1       7.201   4.754  14.189  0.00  0.00    +0.000 A 
ATOM     16  C   UNL     1       7.270   5.081  15.547  0.00  0.00    +0.000 A 
ATOM     17  C   UNL     1       6.357   4.548  16.452  0.00  0.00    +0.000 A 
ATOM     18  C   UNL     1       5.395   3.654  15.995  0.00  0.00    +0.000 A 
ATOM     19  C   UNL     1       5.336   3.316  14.634  0.00  0.00    +0.000 A 
BRANCH  14  21
ATOM     20  C   UNL     1       6.536   2.062  11.889  0.00  0.00    +0.000 C 
ATOM     21  C   UNL     1       6.111   3.516  12.202  0.00  0.00    +0.000 C 
ATOM     22  C   UNL     1       7.016   4.456  11.378  0.00  0.00    +0.000 C 
ATOM     23  C   UNL     1       4.656   3.679  11.713  0.00  0.00    +0.000 C 
ENDBRANCH  14  21
ENDBRANCH  13  17
ENDBRANCH   1  13
TORSDOF 5
ENDMDL
MODEL 9
REMARK VINA RESULT:      -6.7      1.547      2.122
REMARK  Name = 
REMARK  8 active torsions:
REMARK  status: ('A' for Active; 'I' for Inactive)
REMARK    1  A    between atoms: C_1  and  C_2
REMARK    2  A    between atoms: C_2  and  C_3
REMARK    3  A    between atoms: C_2  and  C_4
REMARK    4  A    between atoms: C_2  and  C_5
REMARK    5  A    between atoms: C_8  and  O_9
REMARK    6  A    between atoms: O_9  and  C_10
REMARK    7  A    between atoms: C_10  and  C_11
REMARK    8  A    between atoms: N_13  and  C_14
REMARK                            x       y       z     vdW  Elec       q    Type
REMARK                         _______ _______ _______ _____ _____    ______ ____
ROOT
ATOM      1  C   UNL     1       2.287   6.288  19.968  0.00  0.00    +0.000 C 
ENDROOT
BRANCH   1   2
ATOM      2  C   UNL     1       3.388   5.252  19.729  0.00  0.00    +0.000 C 
ATOM      3  O   UNL     1       3.242   4.070  20.028  0.00  0.00    +0.000 OA
ATOM      4  N   UNL     1       4.536   5.739  19.130  0.00  0.00    +0.000 N 
ATOM      5  H   UNL     1       4.592   6.752  19.033  0.00  0.00    +0.000 HD
BRANCH   4   6
ATOM      6  C   UNL     1       5.667   4.871  18.830  0.00  0.00    +0.000 C 
ATOM      7  C   UNL     1       7.004   5.593  19.036  0.00  0.00    +0.000 C 
ATOM      8  C   UNL     1       7.250   6.415  17.782  0.00  0.00    +0.000 C 
ATOM      9  S   UNL     1       6.728   5.358  16.447  0.00  0.00    +0.000 S 
ATOM     10  O   UNL     1       7.857   4.562  16.024  0.00  0.00    +0.000 OA
ATOM     11  O   UNL     1       5.942   6.144  15.518  0.00  0.00    +0.000 OA
ATOM     12  C   UNL     1       5.634   4.326  17.404  0.00  0.00    +0.000 C 
ENDBRANCH   4   6
ENDBRANCH   1   2
BRANCH   1  13
ATOM     13  O   UNL     1       2.380   7.344  19.017  0.00  0.00    +0.000 OA
BRANCH  13  17
ATOM     14  C   UNL     1       0.284  10.769  20.260  0.00  0.00    +0.000 A 
ATOM     15  C   UNL     1       0.542   9.675  21.102  0.00  0.00    +0.000 A 
ATOM     16  C   UNL     1       1.247   8.555  20.648  0.00  0.00    +0.000 A 
ATOM     17  C   UNL     1       1.698   8.485  19.334  0.00  0.00    +0.000 A 
ATOM     18  C   UNL     1       1.472   9.562  18.483  0.00  0.00    +0.000 A 
ATOM     19  C   UNL     1       0.777  10.691  18.943  0.00  0.00    +0.000 A 
BRANCH  14  21
ATOM     20  C   UNL     1      -1.914  12.092  20.065  0.00  0.00    +0.000 C 
ATOM     21  C   UNL     1      -0.517  11.999  20.723  0.00  0.00    +0.000 C 
ATOM     22  C   UNL     1       0.257  13.285  20.360  0.00  0.00    +0.000 C 
ATOM     23  C   UNL     1      -0.735  11.971  22.251  0.00  0.00    +0.000 C 
ENDBRANCH  14  21
ENDBRANCH  13  17
ENDBRANCH   1  13
TORSDOF 5
ENDMDL
