MODEL 1
REMARK VINA RESULT:      -8.3      0.000      0.000
REMARK  Name = 
REMARK  12 active torsions:
REMARK  status: ('A' for Active; 'I' for Inactive)
REMARK    1  A    between atoms: C_1  and  C_2
REMARK    2  A    between atoms: C_2  and  C_3
REMARK    3  A    between atoms: C_4  and  C_5
REMARK    4  A    between atoms: C_5  and  C_6
REMARK    5  A    between atoms: C_7  and  O_8
REMARK    6  A    between atoms: O_8  and  C_9
REMARK    7  A    between atoms: C_16  and  C_17
REMARK    8  A    between atoms: C_18  and  C_19
REMARK    9  A    between atoms: C_22  and  C_23
REMARK   10  A    between atoms: C_29  and  C_30
REMARK   11  A    between atoms: C_30  and  O_32
REMARK   12  A    between atoms: C_33  and  O_34
REMARK                            x       y       z     vdW  Elec       q    Type
REMARK                         _______ _______ _______ _____ _____    ______ ____
ROOT
ATOM      1  C   UNL     1       2.897   6.724  18.731  0.00  0.00    +0.000 A 
ATOM      2  C   UNL     1       2.518   6.429  20.056  0.00  0.00    +0.000 A 
ATOM      3  C   UNL     1       1.665   7.320  20.726  0.00  0.00    +0.000 A 
ATOM      4  C   UNL     1       1.189   8.489  20.121  0.00  0.00    +0.000 A 
ATOM      5  C   UNL     1       1.689   8.863  18.869  0.00  0.00    +0.000 A 
ATOM      6  C   UNL     1       2.588   8.007  18.212  0.00  0.00    +0.000 A 
ENDROOT
BRANCH   4   7
ATOM      7  C   UNL     1       0.158   9.235  20.835  0.00  0.00    +0.000 C 
ATOM      8  C   UNL     1       0.282  10.527  21.154  0.00  0.00    +0.000 C 
BRANCH   8   9
ATOM      9  C   UNL     1      -0.847  11.245  21.727  0.00  0.00    +0.000 A 
ATOM     10  C   UNL     1      -1.227  11.041  23.053  0.00  0.00    +0.000 A 
ATOM     11  C   UNL     1      -2.352  11.689  23.571  0.00  0.00    +0.000 A 
ATOM     12  C   UNL     1      -3.111  12.552  22.767  0.00  0.00    +0.000 A 
ATOM     13  C   UNL     1      -2.721  12.756  21.433  0.00  0.00    +0.000 A 
ATOM     14  C   UNL     1      -1.602  12.104  20.914  0.00  0.00    +0.000 A 
BRANCH  12  15
ATOM     15  C   UNL     1      -4.337  13.249  23.303  0.00  0.00    +0.000 C 
ATOM     16  F   UNL     1      -5.246  13.568  22.340  0.00  0.00    +0.000 F 
ATOM     17  F   UNL     1      -5.009  12.492  24.213  0.00  0.00    +0.000 F 
ATOM     18  F   UNL     1      -4.037  14.417  23.935  0.00  0.00    +0.000 F 
ENDBRANCH  12  15
ENDBRANCH   8   9
ENDBRANCH   4   7
BRANCH   5  19
ATOM     19  C   UNL     1       1.242  10.084  18.149  0.00  0.00    +0.000 C 
ATOM     20  O   UNL     1       1.959  11.055  17.973  0.00  0.00    +0.000 OA
BRANCH  19  21
ATOM     21  O   UNL     1       0.049   9.968  17.550  0.00  0.00    +0.000 OA
ATOM     22  H   UNL     1      -0.105   9.005  17.455  0.00  0.00    +0.000 HD
ENDBRANCH  19  21
ENDBRANCH   5  19
BRANCH   6  23
ATOM     23  O   UNL     1       3.139   8.353  16.998  0.00  0.00    +0.000 OA
ATOM     24  H   UNL     1       3.235   7.547  16.444  0.00  0.00    +0.000 HD
ENDBRANCH   6  23
BRANCH   1  25
ATOM     25  C   UNL     1       3.229   5.646  17.716  0.00  0.00    +0.000 C 
BRANCH  25  29
ATOM     26  C   UNL     1       6.775   4.434  16.640  0.00  0.00    +0.000 C 
ATOM     27  C   UNL     1       5.516   5.252  16.506  0.00  0.00    +0.000 C 
ATOM     28  C   UNL     1       5.396   6.116  15.287  0.00  0.00    +0.000 C 
ATOM     29  C   UNL     1       4.602   5.115  17.485  0.00  0.00    +0.000 C 
ENDBRANCH  25  29
ENDBRANCH   1  25
BRANCH   2  30
ATOM     30  O   UNL     1       2.869   5.221  20.629  0.00  0.00    +0.000 OA
BRANCH  30  31
ATOM     31  C   UNL     1       1.751   4.404  21.058  0.00  0.00    +0.000 C 
ATOM     32  C   UNL     1       0.742   4.163  19.923  0.00  0.00    +0.000 C 
ATOM     33  C   UNL     1       1.104   3.098  18.890  0.00  0.00    +0.000 C 
ATOM     34  C   UNL     1       1.919   1.905  19.373  0.00  0.00    +0.000 C 
ATOM     35  C   UNL     1       2.876   2.191  20.523  0.00  0.00    +0.000 C 
ATOM     36  C   UNL     1       2.247   3.060  21.601  0.00  0.00    +0.000 C 
ENDBRANCH  30  31
ENDBRANCH   2  30
TORSDOF 10
ENDMDL
MODEL 2
REMARK VINA RESULT:      -8.3      0.572      1.035
REMARK  Name = 
REMARK  12 active torsions:
REMARK  status: ('A' for Active; 'I' for Inactive)
REMARK    1  A    between atoms: C_1  and  C_2
REMARK    2  A    between atoms: C_2  and  C_3
REMARK    3  A    between atoms: C_4  and  C_5
REMARK    4  A    between atoms: C_5  and  C_6
REMARK    5  A    between atoms: C_7  and  O_8
REMARK    6  A    between atoms: O_8  and  C_9
REMARK    7  A    between atoms: C_16  and  C_17
REMARK    8  A    between atoms: C_18  and  C_19
REMARK    9  A    between atoms: C_22  and  C_23
REMARK   10  A    between atoms: C_29  and  C_30
REMARK   11  A    between atoms: C_30  and  O_32
REMARK   12  A    between atoms: C_33  and  O_34
REMARK                            x       y       z     vdW  Elec       q    Type
REMARK                         _______ _______ _______ _____ _____    ______ ____
ROOT
ATOM      1  C   UNL     1       3.077   6.564  18.625  0.00  0.00    +0.000 A 
ATOM      2  C   UNL     1       2.675   6.299  19.950  0.00  0.00    +0.000 A 
ATOM      3  C   UNL     1       1.813   7.206  20.585  0.00  0.00    +0.000 A 
ATOM      4  C   UNL     1       1.350   8.362  19.947  0.00  0.00    +0.000 A 
ATOM      5  C   UNL     1       1.871   8.708  18.696  0.00  0.00    +0.000 A 
ATOM      6  C   UNL     1       2.780   7.836  18.073  0.00  0.00    +0.000 A 
ENDROOT
BRANCH   4   7
ATOM      7  C   UNL     1       0.308   9.125  20.627  0.00  0.00    +0.000 C 
ATOM      8  C   UNL     1       0.530  10.312  21.200  0.00  0.00    +0.000 C 
BRANCH   8   9
ATOM      9  C   UNL     1      -0.587  11.086  21.723  0.00  0.00    +0.000 A 
ATOM     10  C   UNL     1      -1.057  10.878  23.018  0.00  0.00    +0.000 A 
ATOM     11  C   UNL     1      -2.170  11.583  23.485  0.00  0.00    +0.000 A 
ATOM     12  C   UNL     1      -2.825  12.508  22.659  0.00  0.00    +0.000 A 
ATOM     13  C   UNL     1      -2.344  12.716  21.356  0.00  0.00    +0.000 A 
ATOM     14  C   UNL     1      -1.237  12.007  20.888  0.00  0.00    +0.000 A 
BRANCH  12  15
ATOM     15  C   UNL     1      -4.038  13.267  23.138  0.00  0.00    +0.000 C 
ATOM     16  F   UNL     1      -3.741  14.480  23.682  0.00  0.00    +0.000 F 
ATOM     17  F   UNL     1      -4.927  13.514  22.138  0.00  0.00    +0.000 F 
ATOM     18  F   UNL     1      -4.730  12.590  24.096  0.00  0.00    +0.000 F 
ENDBRANCH  12  15
ENDBRANCH   8   9
ENDBRANCH   4   7
BRANCH   5  19
ATOM     19  C   UNL     1       1.440   9.913  17.942  0.00  0.00    +0.000 C 
ATOM     20  O   UNL     1       2.208  10.795  17.596  0.00  0.00    +0.000 OA
BRANCH  19  21
ATOM     21  O   UNL     1       0.170   9.873  17.513  0.00  0.00    +0.000 OA
ATOM     22  H   UNL     1      -0.217  10.740  17.757  0.00  0.00    +0.000 HD
ENDBRANCH  19  21
ENDBRANCH   5  19
BRANCH   6  23
ATOM     23  O   UNL     1       3.352   8.154  16.861  0.00  0.00    +0.000 OA
ATOM     24  H   UNL     1       2.719   7.947  16.139  0.00  0.00    +0.000 HD
ENDBRANCH   6  23
BRANCH   1  25
ATOM     25  C   UNL     1       3.425   5.464  17.640  0.00  0.00    +0.000 C 
BRANCH  25  29
ATOM     26  C   UNL     1       7.206   4.775  16.980  0.00  0.00    +0.000 C 
ATOM     27  C   UNL     1       6.003   5.059  17.844  0.00  0.00    +0.000 C 
ATOM     28  C   UNL     1       6.250   5.251  19.309  0.00  0.00    +0.000 C 
ATOM     29  C   UNL     1       4.815   5.135  17.214  0.00  0.00    +0.000 C 
ENDBRANCH  25  29
ENDBRANCH   1  25
BRANCH   2  30
ATOM     30  O   UNL     1       3.014   5.103  20.555  0.00  0.00    +0.000 OA
BRANCH  30  31
ATOM     31  C   UNL     1       1.890   4.330  21.045  0.00  0.00    +0.000 C 
ATOM     32  C   UNL     1       0.798   4.157  19.977  0.00  0.00    +0.000 C 
ATOM     33  C   UNL     1       1.041   3.096  18.905  0.00  0.00    +0.000 C 
ATOM     34  C   UNL     1       1.830   1.858  19.314  0.00  0.00    +0.000 C 
ATOM     35  C   UNL     1       2.873   2.079  20.400  0.00  0.00    +0.000 C 
ATOM     36  C   UNL     1       2.358   2.955  21.533  0.00  0.00    +0.000 C 
ENDBRANCH  30  31
ENDBRANCH   2  30
TORSDOF 10
ENDMDL
MODEL 3
REMARK VINA RESULT:      -8.2      0.372      1.078
REMARK  Name = 
REMARK  12 active torsions:
REMARK  status: ('A' for Active; 'I' for Inactive)
REMARK    1  A    between atoms: C_1  and  C_2
REMARK    2  A    between atoms: C_2  and  C_3
REMARK    3  A    between atoms: C_4  and  C_5
REMARK    4  A    between atoms: C_5  and  C_6
REMARK    5  A    between atoms: C_7  and  O_8
REMARK    6  A    between atoms: O_8  and  C_9
REMARK    7  A    between atoms: C_16  and  C_17
REMARK    8  A    between atoms: C_18  and  C_19
REMARK    9  A    between atoms: C_22  and  C_23
REMARK   10  A    between atoms: C_29  and  C_30
REMARK   11  A    between atoms: C_30  and  O_32
REMARK   12  A    between atoms: C_33  and  O_34
REMARK                            x       y       z     vdW  Elec       q    Type
REMARK                         _______ _______ _______ _____ _____    ______ ____
ROOT
ATOM      1  C   UNL     1       2.966   6.620  18.678  0.00  0.00    +0.000 A 
ATOM      2  C   UNL     1       2.607   6.366  20.017  0.00  0.00    +0.000 A 
ATOM      3  C   UNL     1       1.735   7.259  20.659  0.00  0.00    +0.000 A 
ATOM      4  C   UNL     1       1.222   8.390  20.015  0.00  0.00    +0.000 A 
ATOM      5  C   UNL     1       1.700   8.729  18.745  0.00  0.00    +0.000 A 
ATOM      6  C   UNL     1       2.618   7.873  18.112  0.00  0.00    +0.000 A 
ENDROOT
BRANCH   4   7
ATOM      7  C   UNL     1       0.177   9.135  20.708  0.00  0.00    +0.000 C 
ATOM      8  C   UNL     1       0.324  10.402  21.105  0.00  0.00    +0.000 C 
BRANCH   8   9
ATOM      9  C   UNL     1      -0.812  11.130  21.651  0.00  0.00    +0.000 A 
ATOM     10  C   UNL     1      -1.497  12.070  20.884  0.00  0.00    +0.000 A 
ATOM     11  C   UNL     1      -2.545  12.807  21.442  0.00  0.00    +0.000 A 
ATOM     12  C   UNL     1      -2.922  12.608  22.778  0.00  0.00    +0.000 A 
ATOM     13  C   UNL     1      -2.231  11.657  23.546  0.00  0.00    +0.000 A 
ATOM     14  C   UNL     1      -1.181  10.926  22.990  0.00  0.00    +0.000 A 
BRANCH  12  15
ATOM     15  C   UNL     1      -4.041  13.405  23.404  0.00  0.00    +0.000 C 
ATOM     16  F   UNL     1      -4.144  14.673  22.919  0.00  0.00    +0.000 F 
ATOM     17  F   UNL     1      -5.260  12.831  23.210  0.00  0.00    +0.000 F 
ATOM     18  F   UNL     1      -3.898  13.532  24.752  0.00  0.00    +0.000 F 
ENDBRANCH  12  15
ENDBRANCH   8   9
ENDBRANCH   4   7
BRANCH   5  19
ATOM     19  C   UNL     1       1.214   9.908  17.982  0.00  0.00    +0.000 C 
ATOM     20  O   UNL     1       0.045  10.069  17.675  0.00  0.00    +0.000 OA
BRANCH  19  21
ATOM     21  O   UNL     1       2.130  10.873  17.810  0.00  0.00    +0.000 OA
ATOM     22  H   UNL     1       2.939  10.548  18.256  0.00  0.00    +0.000 HD
ENDBRANCH  19  21
ENDBRANCH   5  19
BRANCH   6  23
ATOM     23  O   UNL     1       3.149   8.186  16.881  0.00  0.00    +0.000 OA
ATOM     24  H   UNL     1       3.055   7.414  16.281  0.00  0.00    +0.000 HD
ENDBRANCH   6  23
BRANCH   1  25
ATOM     25  C   UNL     1       3.320   5.513  17.702  0.00  0.00    +0.000 C 
BRANCH  25  29
ATOM     26  C   UNL     1       6.889   4.406  16.587  0.00  0.00    +0.000 C 
ATOM     27  C   UNL     1       5.593   5.164  16.451  0.00  0.00    +0.000 C 
ATOM     28  C   UNL     1       5.407   5.970  15.201  0.00  0.00    +0.000 C 
ATOM     29  C   UNL     1       4.709   5.031  17.458  0.00  0.00    +0.000 C 
ENDBRANCH  25  29
ENDBRANCH   1  25
BRANCH   2  30
ATOM     30  O   UNL     1       2.996   5.192  20.632  0.00  0.00    +0.000 OA
BRANCH  30  31
ATOM     31  C   UNL     1       1.905   4.363  21.105  0.00  0.00    +0.000 C 
ATOM     32  C   UNL     1       0.802   4.199  20.046  0.00  0.00    +0.000 C 
ATOM     33  C   UNL     1       1.062   3.192  18.927  0.00  0.00    +0.000 C 
ATOM     34  C   UNL     1       1.896   1.964  19.272  0.00  0.00    +0.000 C 
ATOM     35  C   UNL     1       2.948   2.173  20.353  0.00  0.00    +0.000 C 
ATOM     36  C   UNL     1       2.424   2.984  21.528  0.00  0.00    +0.000 C 
ENDBRANCH  30  31
ENDBRANCH   2  30
TORSDOF 10
ENDMDL
MODEL 4
REMARK VINA RESULT:      -8.2      0.788      1.082
REMARK  Name = 
REMARK  12 active torsions:
REMARK  status: ('A' for Active; 'I' for Inactive)
REMARK    1  A    between atoms: C_1  and  C_2
REMARK    2  A    between atoms: C_2  and  C_3
REMARK    3  A    between atoms: C_4  and  C_5
REMARK    4  A    between atoms: C_5  and  C_6
REMARK    5  A    between atoms: C_7  and  O_8
REMARK    6  A    between atoms: O_8  and  C_9
REMARK    7  A    between atoms: C_16  and  C_17
REMARK    8  A    between atoms: C_18  and  C_19
REMARK    9  A    between atoms: C_22  and  C_23
REMARK   10  A    between atoms: C_29  and  C_30
REMARK   11  A    between atoms: C_30  and  O_32
REMARK   12  A    between atoms: C_33  and  O_34
REMARK                            x       y       z     vdW  Elec       q    Type
REMARK                         _______ _______ _______ _____ _____    ______ ____
ROOT
ATOM      1  C   UNL     1       2.558   6.912  18.709  0.00  0.00    +0.000 A 
ATOM      2  C   UNL     1       2.358   6.627  20.075  0.00  0.00    +0.000 A 
ATOM      3  C   UNL     1       1.654   7.554  20.859  0.00  0.00    +0.000 A 
ATOM      4  C   UNL     1       1.154   8.748  20.328  0.00  0.00    +0.000 A 
ATOM      5  C   UNL     1       1.487   9.106  19.017  0.00  0.00    +0.000 A 
ATOM      6  C   UNL     1       2.240   8.212  18.238  0.00  0.00    +0.000 A 
ENDROOT
BRANCH   4   7
ATOM      7  C   UNL     1       0.272   9.538  21.181  0.00  0.00    +0.000 C 
ATOM      8  C   UNL     1       0.520  10.810  21.507  0.00  0.00    +0.000 C 
BRANCH   8   9
ATOM      9  C   UNL     1      -0.478  11.582  22.232  0.00  0.00    +0.000 A 
ATOM     10  C   UNL     1      -1.533  10.951  22.888  0.00  0.00    +0.000 A 
ATOM     11  C   UNL     1      -2.520  11.708  23.527  0.00  0.00    +0.000 A 
ATOM     12  C   UNL     1      -2.459  13.110  23.518  0.00  0.00    +0.000 A 
ATOM     13  C   UNL     1      -1.390  13.740  22.859  0.00  0.00    +0.000 A 
ATOM     14  C   UNL     1      -0.410  12.984  22.217  0.00  0.00    +0.000 A 
BRANCH  12  15
ATOM     15  C   UNL     1      -3.522  13.945  24.188  0.00  0.00    +0.000 C 
ATOM     16  F   UNL     1      -3.024  14.852  25.074  0.00  0.00    +0.000 F 
ATOM     17  F   UNL     1      -4.260  14.661  23.297  0.00  0.00    +0.000 F 
ATOM     18  F   UNL     1      -4.412  13.189  24.890  0.00  0.00    +0.000 F 
ENDBRANCH  12  15
ENDBRANCH   8   9
ENDBRANCH   4   7
BRANCH   5  19
ATOM     19  C   UNL     1       1.001  10.351  18.367  0.00  0.00    +0.000 C 
ATOM     20  O   UNL     1       1.651  11.382  18.330  0.00  0.00    +0.000 OA
BRANCH  19  21
ATOM     21  O   UNL     1      -0.132  10.204  17.666  0.00  0.00    +0.000 OA
ATOM     22  H   UNL     1      -0.565  11.083  17.681  0.00  0.00    +0.000 HD
ENDBRANCH  19  21
ENDBRANCH   5  19
BRANCH   6  23
ATOM     23  O   UNL     1       2.629   8.538  16.958  0.00  0.00    +0.000 OA
ATOM     24  H   UNL     1       3.576   8.798  16.963  0.00  0.00    +0.000 HD
ENDBRANCH   6  23
BRANCH   1  25
ATOM     25  C   UNL     1       2.690   5.826  17.658  0.00  0.00    +0.000 C 
BRANCH  25  29
ATOM     26  C   UNL     1       6.062   4.261  16.483  0.00  0.00    +0.000 C 
ATOM     27  C   UNL     1       5.004   5.333  16.538  0.00  0.00    +0.000 C 
ATOM     28  C   UNL     1       5.204   6.529  15.658  0.00  0.00    +0.000 C 
ATOM     29  C   UNL     1       3.960   5.107  17.358  0.00  0.00    +0.000 C 
ENDBRANCH  25  29
ENDBRANCH   1  25
BRANCH   2  30
ATOM     30  O   UNL     1       2.729   5.401  20.593  0.00  0.00    +0.000 OA
BRANCH  30  31
ATOM     31  C   UNL     1       1.630   4.587  21.073  0.00  0.00    +0.000 C 
ATOM     32  C   UNL     1       0.677   4.175  19.939  0.00  0.00    +0.000 C 
ATOM     33  C   UNL     1       1.122   3.019  19.045  0.00  0.00    +0.000 C 
ATOM     34  C   UNL     1       1.967   1.926  19.687  0.00  0.00    +0.000 C 
ATOM     35  C   UNL     1       2.865   2.381  20.829  0.00  0.00    +0.000 C 
ATOM     36  C   UNL     1       2.160   3.335  21.781  0.00  0.00    +0.000 C 
ENDBRANCH  30  31
ENDBRANCH   2  30
TORSDOF 10
ENDMDL
MODEL 5
REMARK VINA RESULT:      -8.1      3.165      5.058
REMARK  Name = 
REMARK  12 active torsions:
REMARK  status: ('A' for Active; 'I' for Inactive)
REMARK    1  A    between atoms: C_1  and  C_2
REMARK    2  A    between atoms: C_2  and  C_3
REMARK    3  A    between atoms: C_4  and  C_5
REMARK    4  A    between atoms: C_5  and  C_6
REMARK    5  A    between atoms: C_7  and  O_8
REMARK    6  A    between atoms: O_8  and  C_9
REMARK    7  A    between atoms: C_16  and  C_17
REMARK    8  A    between atoms: C_18  and  C_19
REMARK    9  A    between atoms: C_22  and  C_23
REMARK   10  A    between atoms: C_29  and  C_30
REMARK   11  A    between atoms: C_30  and  O_32
REMARK   12  A    between atoms: C_33  and  O_34
REMARK                            x       y       z     vdW  Elec       q    Type
REMARK                         _______ _______ _______ _____ _____    ______ ____
ROOT
ATOM      1  C   UNL     1       3.010   5.723  19.219  0.00  0.00    +0.000 A 
ATOM      2  C   UNL     1       3.185   6.357  17.972  0.00  0.00    +0.000 A 
ATOM      3  C   UNL     1       2.754   7.685  17.827  0.00  0.00    +0.000 A 
ATOM      4  C   UNL     1       2.152   8.389  18.876  0.00  0.00    +0.000 A 
ATOM      5  C   UNL     1       1.834   7.714  20.059  0.00  0.00    +0.000 A 
ATOM      6  C   UNL     1       2.209   6.367  20.196  0.00  0.00    +0.000 A 
ENDROOT
BRANCH   4   7
ATOM      7  C   UNL     1       1.925   9.816  18.675  0.00  0.00    +0.000 C 
ATOM      8  C   UNL     1       0.721  10.386  18.785  0.00  0.00    +0.000 C 
BRANCH   8   9
ATOM      9  C   UNL     1       0.595  11.835  18.725  0.00  0.00    +0.000 A 
ATOM     10  C   UNL     1       1.718  12.646  18.578  0.00  0.00    +0.000 A 
ATOM     11  C   UNL     1       1.589  14.038  18.585  0.00  0.00    +0.000 A 
ATOM     12  C   UNL     1       0.329  14.635  18.737  0.00  0.00    +0.000 A 
ATOM     13  C   UNL     1      -0.801  13.812  18.881  0.00  0.00    +0.000 A 
ATOM     14  C   UNL     1      -0.670  12.423  18.880  0.00  0.00    +0.000 A 
BRANCH  12  15
ATOM     15  C   UNL     1       0.169  16.135  18.764  0.00  0.00    +0.000 C 
ATOM     16  F   UNL     1       1.315  16.810  18.468  0.00  0.00    +0.000 F 
ATOM     17  F   UNL     1      -0.763  16.575  17.875  0.00  0.00    +0.000 F 
ATOM     18  F   UNL     1      -0.229  16.594  19.982  0.00  0.00    +0.000 F 
ENDBRANCH  12  15
ENDBRANCH   8   9
ENDBRANCH   4   7
BRANCH   5  19
ATOM     19  C   UNL     1       1.197   8.377  21.227  0.00  0.00    +0.000 C 
ATOM     20  O   UNL     1      -0.006   8.363  21.429  0.00  0.00    +0.000 OA
BRANCH  19  21
ATOM     21  O   UNL     1       2.062   8.842  22.139  0.00  0.00    +0.000 OA
ATOM     22  H   UNL     1       1.525   9.372  22.764  0.00  0.00    +0.000 HD
ENDBRANCH  19  21
ENDBRANCH   5  19
BRANCH   6  23
ATOM     23  O   UNL     1       1.880   5.649  21.324  0.00  0.00    +0.000 OA
ATOM     24  H   UNL     1       1.922   4.689  21.121  0.00  0.00    +0.000 HD
ENDBRANCH   6  23
BRANCH   1  25
ATOM     25  C   UNL     1       3.936   4.629  19.717  0.00  0.00    +0.000 C 
BRANCH  25  29
ATOM     26  C   UNL     1       3.799   1.024  18.237  0.00  0.00    +0.000 C 
ATOM     27  C   UNL     1       3.207   2.273  18.839  0.00  0.00    +0.000 C 
ATOM     28  C   UNL     1       1.738   2.254  19.132  0.00  0.00    +0.000 C 
ATOM     29  C   UNL     1       4.059   3.287  19.080  0.00  0.00    +0.000 C 
ENDBRANCH  25  29
ENDBRANCH   1  25
BRANCH   2  30
ATOM     30  O   UNL     1       3.890   5.729  16.963  0.00  0.00    +0.000 OA
BRANCH  30  31
ATOM     31  C   UNL     1       5.043   6.462  16.479  0.00  0.00    +0.000 C 
ATOM     32  C   UNL     1       6.120   6.627  17.564  0.00  0.00    +0.000 C 
ATOM     33  C   UNL     1       7.019   5.422  17.835  0.00  0.00    +0.000 C 
ATOM     34  C   UNL     1       7.339   4.511  16.657  0.00  0.00    +0.000 C 
ATOM     35  C   UNL     1       6.254   4.413  15.594  0.00  0.00    +0.000 C 
ATOM     36  C   UNL     1       5.646   5.766  15.255  0.00  0.00    +0.000 C 
ENDBRANCH  30  31
ENDBRANCH   2  30
TORSDOF 10
ENDMDL
MODEL 6
REMARK VINA RESULT:      -8.0      0.626      1.370
REMARK  Name = 
REMARK  12 active torsions:
REMARK  status: ('A' for Active; 'I' for Inactive)
REMARK    1  A    between atoms: C_1  and  C_2
REMARK    2  A    between atoms: C_2  and  C_3
REMARK    3  A    between atoms: C_4  and  C_5
REMARK    4  A    between atoms: C_5  and  C_6
REMARK    5  A    between atoms: C_7  and  O_8
REMARK    6  A    between atoms: O_8  and  C_9
REMARK    7  A    between atoms: C_16  and  C_17
REMARK    8  A    between atoms: C_18  and  C_19
REMARK    9  A    between atoms: C_22  and  C_23
REMARK   10  A    between atoms: C_29  and  C_30
REMARK   11  A    between atoms: C_30  and  O_32
REMARK   12  A    between atoms: C_33  and  O_34
REMARK                            x       y       z     vdW  Elec       q    Type
REMARK                         _______ _______ _______ _____ _____    ______ ____
ROOT
ATOM      1  C   UNL     1       2.700   7.105  18.723  0.00  0.00    +0.000 A 
ATOM      2  C   UNL     1       2.336   6.757  20.040  0.00  0.00    +0.000 A 
ATOM      3  C   UNL     1       1.459   7.601  20.740  0.00  0.00    +0.000 A 
ATOM      4  C   UNL     1       0.946   8.773  20.173  0.00  0.00    +0.000 A 
ATOM      5  C   UNL     1       1.428   9.201  18.932  0.00  0.00    +0.000 A 
ATOM      6  C   UNL     1       2.350   8.394  18.245  0.00  0.00    +0.000 A 
ENDROOT
BRANCH   4   7
ATOM      7  C   UNL     1      -0.105   9.465  20.913  0.00  0.00    +0.000 C 
ATOM      8  C   UNL     1      -0.076  10.776  21.166  0.00  0.00    +0.000 C 
BRANCH   8   9
ATOM      9  C   UNL     1      -1.230  11.424  21.773  0.00  0.00    +0.000 A 
ATOM     10  C   UNL     1      -2.010  12.322  21.047  0.00  0.00    +0.000 A 
ATOM     11  C   UNL     1      -3.076  12.986  21.662  0.00  0.00    +0.000 A 
ATOM     12  C   UNL     1      -3.375  12.755  23.013  0.00  0.00    +0.000 A 
ATOM     13  C   UNL     1      -2.588  11.846  23.738  0.00  0.00    +0.000 A 
ATOM     14  C   UNL     1      -1.520  11.189  23.126  0.00  0.00    +0.000 A 
BRANCH  12  15
ATOM     15  C   UNL     1      -4.512  13.473  23.698  0.00  0.00    +0.000 C 
ATOM     16  F   UNL     1      -4.108  14.520  24.471  0.00  0.00    +0.000 F 
ATOM     17  F   UNL     1      -5.411  13.987  22.815  0.00  0.00    +0.000 F 
ATOM     18  F   UNL     1      -5.222  12.654  24.522  0.00  0.00    +0.000 F 
ENDBRANCH  12  15
ENDBRANCH   8   9
ENDBRANCH   4   7
BRANCH   5  19
ATOM     19  C   UNL     1       0.942  10.429  18.252  0.00  0.00    +0.000 C 
ATOM     20  O   UNL     1       1.593  11.459  18.185  0.00  0.00    +0.000 OA
BRANCH  19  21
ATOM     21  O   UNL     1      -0.195  10.266  17.559  0.00  0.00    +0.000 OA
ATOM     22  H   UNL     1       0.082   9.977  16.665  0.00  0.00    +0.000 HD
ENDBRANCH  19  21
ENDBRANCH   5  19
BRANCH   6  23
ATOM     23  O   UNL     1       2.886   8.793  17.041  0.00  0.00    +0.000 OA
ATOM     24  H   UNL     1       3.388   9.628  17.170  0.00  0.00    +0.000 HD
ENDBRANCH   6  23
BRANCH   1  25
ATOM     25  C   UNL     1       3.062   6.070  17.674  0.00  0.00    +0.000 C 
BRANCH  25  29
ATOM     26  C   UNL     1       6.818   5.383  16.887  0.00  0.00    +0.000 C 
ATOM     27  C   UNL     1       5.586   5.383  17.756  0.00  0.00    +0.000 C 
ATOM     28  C   UNL     1       5.753   4.914  19.169  0.00  0.00    +0.000 C 
ATOM     29  C   UNL     1       4.449   5.826  17.187  0.00  0.00    +0.000 C 
ENDBRANCH  25  29
ENDBRANCH   1  25
BRANCH   2  30
ATOM     30  O   UNL     1       2.726   5.544  20.574  0.00  0.00    +0.000 OA
BRANCH  30  31
ATOM     31  C   UNL     1       1.636   4.657  20.928  0.00  0.00    +0.000 C 
ATOM     32  C   UNL     1       0.832   4.209  19.697  0.00  0.00    +0.000 C 
ATOM     33  C   UNL     1       1.438   3.097  18.842  0.00  0.00    +0.000 C 
ATOM     34  C   UNL     1       2.278   2.045  19.557  0.00  0.00    +0.000 C 
ATOM     35  C   UNL     1       3.023   2.534  20.791  0.00  0.00    +0.000 C 
ATOM     36  C   UNL     1       2.166   3.428  21.674  0.00  0.00    +0.000 C 
ENDBRANCH  30  31
ENDBRANCH   2  30
TORSDOF 10
ENDMDL
MODEL 7
REMARK VINA RESULT:      -8.0      3.283      5.101
REMARK  Name = 
REMARK  12 active torsions:
REMARK  status: ('A' for Active; 'I' for Inactive)
REMARK    1  A    between atoms: C_1  and  C_2
REMARK    2  A    between atoms: C_2  and  C_3
REMARK    3  A    between atoms: C_4  and  C_5
REMARK    4  A    between atoms: C_5  and  C_6
REMARK    5  A    between atoms: C_7  and  O_8
REMARK    6  A    between atoms: O_8  and  C_9
REMARK    7  A    between atoms: C_16  and  C_17
REMARK    8  A    between atoms: C_18  and  C_19
REMARK    9  A    between atoms: C_22  and  C_23
REMARK   10  A    between atoms: C_29  and  C_30
REMARK   11  A    between atoms: C_30  and  O_32
REMARK   12  A    between atoms: C_33  and  O_34
REMARK                            x       y       z     vdW  Elec       q    Type
REMARK                         _______ _______ _______ _____ _____    ______ ____
ROOT
ATOM      1  C   UNL     1       2.965   5.818  19.259  0.00  0.00    +0.000 A 
ATOM      2  C   UNL     1       3.156   6.478  18.028  0.00  0.00    +0.000 A 
ATOM      3  C   UNL     1       2.726   7.808  17.905  0.00  0.00    +0.000 A 
ATOM      4  C   UNL     1       2.111   8.491  18.961  0.00  0.00    +0.000 A 
ATOM      5  C   UNL     1       1.778   7.791  20.125  0.00  0.00    +0.000 A 
ATOM      6  C   UNL     1       2.153   6.442  20.239  0.00  0.00    +0.000 A 
ENDROOT
BRANCH   4   7
ATOM      7  C   UNL     1       1.886   9.922  18.787  0.00  0.00    +0.000 C 
ATOM      8  C   UNL     1       0.694  10.499  18.960  0.00  0.00    +0.000 C 
BRANCH   8   9
ATOM      9  C   UNL     1       0.576  11.949  18.921  0.00  0.00    +0.000 A 
ATOM     10  C   UNL     1      -0.673  12.567  18.937  0.00  0.00    +0.000 A 
ATOM     11  C   UNL     1      -0.773  13.958  18.834  0.00  0.00    +0.000 A 
ATOM     12  C   UNL     1       0.380  14.748  18.717  0.00  0.00    +0.000 A 
ATOM     13  C   UNL     1       1.637  14.120  18.706  0.00  0.00    +0.000 A 
ATOM     14  C   UNL     1       1.735  12.732  18.802  0.00  0.00    +0.000 A 
BRANCH  12  15
ATOM     15  C   UNL     1       0.293  16.249  18.590  0.00  0.00    +0.000 C 
ATOM     16  F   UNL     1       0.233  16.895  19.787  0.00  0.00    +0.000 F 
ATOM     17  F   UNL     1       1.361  16.778  17.933  0.00  0.00    +0.000 F 
ATOM     18  F   UNL     1      -0.808  16.648  17.895  0.00  0.00    +0.000 F 
ENDBRANCH  12  15
ENDBRANCH   8   9
ENDBRANCH   4   7
BRANCH   5  19
ATOM     19  C   UNL     1       1.127   8.430  21.298  0.00  0.00    +0.000 C 
ATOM     20  O   UNL     1      -0.078   8.412  21.486  0.00  0.00    +0.000 OA
BRANCH  19  21
ATOM     21  O   UNL     1       1.981   8.876  22.231  0.00  0.00    +0.000 OA
ATOM     22  H   UNL     1       1.891   8.258  22.986  0.00  0.00    +0.000 HD
ENDBRANCH  19  21
ENDBRANCH   5  19
BRANCH   6  23
ATOM     23  O   UNL     1       1.810   5.700  21.348  0.00  0.00    +0.000 OA
ATOM     24  H   UNL     1       1.671   4.765  21.082  0.00  0.00    +0.000 HD
ENDBRANCH   6  23
BRANCH   1  25
ATOM     25  C   UNL     1       3.886   4.714  19.746  0.00  0.00    +0.000 C 
BRANCH  25  29
ATOM     26  C   UNL     1       3.584   1.174  18.139  0.00  0.00    +0.000 C 
ATOM     27  C   UNL     1       3.070   2.527  18.560  0.00  0.00    +0.000 C 
ATOM     28  C   UNL     1       1.615   2.801  18.330  0.00  0.00    +0.000 C 
ATOM     29  C   UNL     1       3.963   3.360  19.127  0.00  0.00    +0.000 C 
ENDBRANCH  25  29
ENDBRANCH   1  25
BRANCH   2  30
ATOM     30  O   UNL     1       3.873   5.870  17.015  0.00  0.00    +0.000 OA
BRANCH  30  31
ATOM     31  C   UNL     1       5.059   6.589  16.594  0.00  0.00    +0.000 C 
ATOM     32  C   UNL     1       6.204   6.462  17.612  0.00  0.00    +0.000 C 
ATOM     33  C   UNL     1       7.005   5.161  17.594  0.00  0.00    +0.000 C 
ATOM     34  C   UNL     1       7.177   4.466  16.248  0.00  0.00    +0.000 C 
ATOM     35  C   UNL     1       6.031   4.656  15.265  0.00  0.00    +0.000 C 
ATOM     36  C   UNL     1       5.530   6.092  15.223  0.00  0.00    +0.000 C 
ENDBRANCH  30  31
ENDBRANCH   2  30
TORSDOF 10
ENDMDL
MODEL 8
REMARK VINA RESULT:      -7.9      0.804      1.031
REMARK  Name = 
REMARK  12 active torsions:
REMARK  status: ('A' for Active; 'I' for Inactive)
REMARK    1  A    between atoms: C_1  and  C_2
REMARK    2  A    between atoms: C_2  and  C_3
REMARK    3  A    between atoms: C_4  and  C_5
REMARK    4  A    between atoms: C_5  and  C_6
REMARK    5  A    between atoms: C_7  and  O_8
REMARK    6  A    between atoms: O_8  and  C_9
REMARK    7  A    between atoms: C_16  and  C_17
REMARK    8  A    between atoms: C_18  and  C_19
REMARK    9  A    between atoms: C_22  and  C_23
REMARK   10  A    between atoms: C_29  and  C_30
REMARK   11  A    between atoms: C_30  and  O_32
REMARK   12  A    between atoms: C_33  and  O_34
REMARK                            x       y       z     vdW  Elec       q    Type
REMARK                         _______ _______ _______ _____ _____    ______ ____
ROOT
ATOM      1  C   UNL     1       3.095   6.342  18.462  0.00  0.00    +0.000 A 
ATOM      2  C   UNL     1       2.884   6.125  19.839  0.00  0.00    +0.000 A 
ATOM      3  C   UNL     1       2.123   7.060  20.558  0.00  0.00    +0.000 A 
ATOM      4  C   UNL     1       1.578   8.197  19.952  0.00  0.00    +0.000 A 
ATOM      5  C   UNL     1       1.917   8.497  18.628  0.00  0.00    +0.000 A 
ATOM      6  C   UNL     1       2.726   7.597  17.914  0.00  0.00    +0.000 A 
ENDROOT
BRANCH   4   7
ATOM      7  C   UNL     1       0.645   8.991  20.745  0.00  0.00    +0.000 C 
ATOM      8  C   UNL     1       0.905  10.241  21.141  0.00  0.00    +0.000 C 
BRANCH   8   9
ATOM      9  C   UNL     1      -0.132  11.025  21.796  0.00  0.00    +0.000 A 
ATOM     10  C   UNL     1      -0.862  10.501  22.861  0.00  0.00    +0.000 A 
ATOM     11  C   UNL     1      -1.898  11.241  23.438  0.00  0.00    +0.000 A 
ATOM     12  C   UNL     1      -2.213  12.520  22.955  0.00  0.00    +0.000 A 
ATOM     13  C   UNL     1      -1.472  13.045  21.884  0.00  0.00    +0.000 A 
ATOM     14  C   UNL     1      -0.443  12.303  21.305  0.00  0.00    +0.000 A 
BRANCH  12  15
ATOM     15  C   UNL     1      -3.338  13.329  23.554  0.00  0.00    +0.000 C 
ATOM     16  F   UNL     1      -4.216  13.808  22.631  0.00  0.00    +0.000 F 
ATOM     17  F   UNL     1      -4.082  12.610  24.439  0.00  0.00    +0.000 F 
ATOM     18  F   UNL     1      -2.888  14.416  24.241  0.00  0.00    +0.000 F 
ENDBRANCH  12  15
ENDBRANCH   8   9
ENDBRANCH   4   7
BRANCH   5  19
ATOM     19  C   UNL     1       1.387   9.679  17.901  0.00  0.00    +0.000 C 
ATOM     20  O   UNL     1       0.196   9.880  17.733  0.00  0.00    +0.000 OA
BRANCH  19  21
ATOM     21  O   UNL     1       2.310  10.603  17.598  0.00  0.00    +0.000 OA
ATOM     22  H   UNL     1       2.076  10.922  16.702  0.00  0.00    +0.000 HD
ENDBRANCH  19  21
ENDBRANCH   5  19
BRANCH   6  23
ATOM     23  O   UNL     1       3.122   7.869  16.623  0.00  0.00    +0.000 OA
ATOM     24  H   UNL     1       2.770   8.745  16.353  0.00  0.00    +0.000 HD
ENDBRANCH   6  23
BRANCH   1  25
ATOM     25  C   UNL     1       3.296   5.206  17.476  0.00  0.00    +0.000 C 
BRANCH  25  29
ATOM     26  C   UNL     1       6.968   4.461  16.396  0.00  0.00    +0.000 C 
ATOM     27  C   UNL     1       5.901   5.125  17.228  0.00  0.00    +0.000 C 
ATOM     28  C   UNL     1       6.358   6.134  18.237  0.00  0.00    +0.000 C 
ATOM     29  C   UNL     1       4.629   4.766  16.974  0.00  0.00    +0.000 C 
ENDBRANCH  25  29
ENDBRANCH   1  25
BRANCH   2  30
ATOM     30  O   UNL     1       3.302   4.948  20.431  0.00  0.00    +0.000 OA
BRANCH  30  31
ATOM     31  C   UNL     1       2.251   4.186  21.075  0.00  0.00    +0.000 C 
ATOM     32  C   UNL     1       0.947   4.195  20.260  0.00  0.00    +0.000 C 
ATOM     33  C   UNL     1       0.875   3.253  19.060  0.00  0.00    +0.000 C 
ATOM     34  C   UNL     1       1.635   1.935  19.160  0.00  0.00    +0.000 C 
ATOM     35  C   UNL     1       2.898   1.973  20.009  0.00  0.00    +0.000 C 
ATOM     36  C   UNL     1       2.704   2.741  21.308  0.00  0.00    +0.000 C 
ENDBRANCH  30  31
ENDBRANCH   2  30
TORSDOF 10
ENDMDL
MODEL 9
REMARK VINA RESULT:      -7.6      4.920      9.744
REMARK  Name = 
REMARK  12 active torsions:
REMARK  status: ('A' for Active; 'I' for Inactive)
REMARK    1  A    between atoms: C_1  and  C_2
REMARK    2  A    between atoms: C_2  and  C_3
REMARK    3  A    between atoms: C_4  and  C_5
REMARK    4  A    between atoms: C_5  and  C_6
REMARK    5  A    between atoms: C_7  and  O_8
REMARK    6  A    between atoms: O_8  and  C_9
REMARK    7  A    between atoms: C_16  and  C_17
REMARK    8  A    between atoms: C_18  and  C_19
REMARK    9  A    between atoms: C_22  and  C_23
REMARK   10  A    between atoms: C_29  and  C_30
REMARK   11  A    between atoms: C_30  and  O_32
REMARK   12  A    between atoms: C_33  and  O_34
REMARK                            x       y       z     vdW  Elec       q    Type
REMARK                         _______ _______ _______ _____ _____    ______ ____
ROOT
ATOM      1  C   UNL     1      -1.879  13.201  19.670  0.00  0.00    +0.000 A 
ATOM      2  C   UNL     1      -2.420  11.932  19.380  0.00  0.00    +0.000 A 
ATOM      3  C   UNL     1      -1.561  10.928  18.906  0.00  0.00    +0.000 A 
ATOM      4  C   UNL     1      -0.194  11.153  18.708  0.00  0.00    +0.000 A 
ATOM      5  C   UNL     1       0.313  12.450  18.842  0.00  0.00    +0.000 A 
ATOM      6  C   UNL     1      -0.549  13.477  19.262  0.00  0.00    +0.000 A 
ENDROOT
BRANCH   4   7
ATOM      7  C   UNL     1       0.634   9.991  18.403  0.00  0.00    +0.000 C 
ATOM      8  C   UNL     1       1.427   9.404  19.304  0.00  0.00    +0.000 C 
BRANCH   8   9
ATOM      9  C   UNL     1       2.105   8.159  18.974  0.00  0.00    +0.000 A 
ATOM     10  C   UNL     1       2.076   7.074  19.848  0.00  0.00    +0.000 A 
ATOM     11  C   UNL     1       2.784   5.907  19.547  0.00  0.00    +0.000 A 
ATOM     12  C   UNL     1       3.530   5.812  18.363  0.00  0.00    +0.000 A 
ATOM     13  C   UNL     1       3.553   6.907  17.484  0.00  0.00    +0.000 A 
ATOM     14  C   UNL     1       2.851   8.074  17.788  0.00  0.00    +0.000 A 
BRANCH  12  15
ATOM     15  C   UNL     1       4.314   4.567  18.028  0.00  0.00    +0.000 C 
ATOM     16  F   UNL     1       3.979   4.019  16.827  0.00  0.00    +0.000 F 
ATOM     17  F   UNL     1       5.655   4.795  17.972  0.00  0.00    +0.000 F 
ATOM     18  F   UNL     1       4.140   3.579  18.949  0.00  0.00    +0.000 F 
ENDBRANCH  12  15
ENDBRANCH   8   9
ENDBRANCH   4   7
BRANCH   5  19
ATOM     19  C   UNL     1       1.748  12.785  18.654  0.00  0.00    +0.000 C 
ATOM     20  O   UNL     1       2.509  13.009  19.581  0.00  0.00    +0.000 OA
BRANCH  19  21
ATOM     21  O   UNL     1       2.189  12.646  17.395  0.00  0.00    +0.000 OA
ATOM     22  H   UNL     1       1.496  12.134  16.930  0.00  0.00    +0.000 HD
ENDBRANCH  19  21
ENDBRANCH   5  19
BRANCH   6  23
ATOM     23  O   UNL     1      -0.107  14.777  19.367  0.00  0.00    +0.000 OA
ATOM     24  H   UNL     1      -0.622  15.346  18.754  0.00  0.00    +0.000 HD
ENDBRANCH   6  23
BRANCH   1  25
ATOM     25  C   UNL     1      -2.464  14.117  20.730  0.00  0.00    +0.000 C 
BRANCH  25  29
ATOM     26  C   UNL     1      -3.687  12.494  24.058  0.00  0.00    +0.000 C 
ATOM     27  C   UNL     1      -2.702  12.741  22.944  0.00  0.00    +0.000 C 
ATOM     28  C   UNL     1      -1.430  11.950  22.977  0.00  0.00    +0.000 C 
ATOM     29  C   UNL     1      -3.065  13.636  22.006  0.00  0.00    +0.000 C 
ENDBRANCH  25  29
ENDBRANCH   1  25
BRANCH   2  30
ATOM     30  O   UNL     1      -3.737  11.649  19.688  0.00  0.00    +0.000 OA
BRANCH  30  31
ATOM     31  C   UNL     1      -4.701  12.106  18.708  0.00  0.00    +0.000 C 
ATOM     32  C   UNL     1      -5.473  10.939  18.068  0.00  0.00    +0.000 C 
ATOM     33  C   UNL     1      -6.612  10.332  18.885  0.00  0.00    +0.000 C 
ATOM     34  C   UNL     1      -7.386  11.268  19.806  0.00  0.00    +0.000 C 
ATOM     35  C   UNL     1      -6.584  12.426  20.382  0.00  0.00    +0.000 C 
ATOM     36  C   UNL     1      -5.689  13.088  19.346  0.00  0.00    +0.000 C 
ENDBRANCH  30  31
ENDBRANCH   2  30
TORSDOF 10
ENDMDL
