MODEL 1
REMARK VINA RESULT:      -7.6      0.000      0.000
REMARK  Name = 
REMARK  3 active torsions:
REMARK  status: ('A' for Active; 'I' for Inactive)
REMARK    1  A    between atoms: C_1  and  C_2
REMARK    2  A    between atoms: C_2  and  C_3
REMARK    3  A    between atoms: C_3  and  N_4
REMARK                            x       y       z     vdW  Elec       q    Type
REMARK                         _______ _______ _______ _____ _____    ______ ____
ROOT
ATOM      1  N   UNL     1       5.252   5.793  16.715  0.00  0.00    +0.000 NA
ATOM      2  C   UNL     1       5.174   4.359  17.035  0.00  0.00    +0.000 C 
ATOM      3  C   UNL     1       3.746   3.823  16.973  0.00  0.00    +0.000 C 
ATOM      4  C   UNL     1       3.092   3.942  18.324  0.00  0.00    +0.000 A 
ATOM      5  C   UNL     1       2.895   2.802  19.133  0.00  0.00    +0.000 A 
ATOM      6 CL   UNL     1       3.411   1.218  18.664  0.00  0.00    +0.000 Cl
ATOM      7  C   UNL     1       2.307   2.923  20.382  0.00  0.00    +0.000 A 
ATOM      8  C   UNL     1       1.909   4.172  20.837  0.00  0.00    +0.000 A 
ATOM      9  C   UNL     1       2.120   5.330  20.060  0.00  0.00    +0.000 A 
ATOM     10  C   UNL     1       2.739   5.229  18.808  0.00  0.00    +0.000 A 
ATOM     11  C   UNL     1       3.066   6.463  17.972  0.00  0.00    +0.000 C 
ATOM     12  C   UNL     1       2.420   7.782  18.453  0.00  0.00    +0.000 C 
ATOM     13  C   UNL     1       1.846   7.886  19.857  0.00  0.00    +0.000 C 
ATOM     14  C   UNL     1       1.648   6.617  20.660  0.00  0.00    +0.000 C 
ATOM     15  C   UNL     1       4.605   6.653  17.744  0.00  0.00    +0.000 C 
ENDROOT
BRANCH   1  16
ATOM     16  C   UNL     1       6.656   6.214  16.516  0.00  0.00    +0.000 C 
BRANCH  16  18
ATOM     17  C   UNL     1       7.887   8.161  17.636  0.00  0.00    +0.000 C 
ATOM     18  C   UNL     1       7.374   6.734  17.776  0.00  0.00    +0.000 C 
ENDBRANCH  16  18
ENDBRANCH   1  16
TORSDOF 2
ENDMDL
MODEL 2
REMARK VINA RESULT:      -7.2      0.966      1.464
REMARK  Name = 
REMARK  3 active torsions:
REMARK  status: ('A' for Active; 'I' for Inactive)
REMARK    1  A    between atoms: C_1  and  C_2
REMARK    2  A    between atoms: C_2  and  C_3
REMARK    3  A    between atoms: C_3  and  N_4
REMARK                            x       y       z     vdW  Elec       q    Type
REMARK                         _______ _______ _______ _____ _____    ______ ____
ROOT
ATOM      1  N   UNL     1       4.882   5.574  16.584  0.00  0.00    +0.000 NA
ATOM      2  C   UNL     1       4.713   4.175  17.009  0.00  0.00    +0.000 C 
ATOM      3  C   UNL     1       3.246   3.758  17.076  0.00  0.00    +0.000 C 
ATOM      4  C   UNL     1       2.698   4.022  18.454  0.00  0.00    +0.000 A 
ATOM      5  C   UNL     1       2.467   2.959  19.354  0.00  0.00    +0.000 A 
ATOM      6 CL   UNL     1       2.821   1.309  18.968  0.00  0.00    +0.000 Cl
ATOM      7  C   UNL     1       1.977   3.211  20.625  0.00  0.00    +0.000 A 
ATOM      8  C   UNL     1       1.712   4.516  21.013  0.00  0.00    +0.000 A 
ATOM      9  C   UNL     1       1.961   5.598  20.144  0.00  0.00    +0.000 A 
ATOM     10  C   UNL     1       2.482   5.363  18.865  0.00  0.00    +0.000 A 
ATOM     11  C   UNL     1       2.848   6.507  17.924  0.00  0.00    +0.000 C 
ATOM     12  C   UNL     1       2.344   7.904  18.349  0.00  0.00    +0.000 C 
ATOM     13  C   UNL     1       1.878   8.149  19.775  0.00  0.00    +0.000 C 
ATOM     14  C   UNL     1       1.635   6.957  20.678  0.00  0.00    +0.000 C 
ATOM     15  C   UNL     1       4.378   6.551  17.587  0.00  0.00    +0.000 C 
ENDROOT
BRANCH   1  16
ATOM     16  C   UNL     1       6.298   5.860  16.267  0.00  0.00    +0.000 C 
BRANCH  16  18
ATOM     17  C   UNL     1       6.733   4.621  14.068  0.00  0.00    +0.000 C 
ATOM     18  C   UNL     1       7.057   4.726  15.552  0.00  0.00    +0.000 C 
ENDBRANCH  16  18
ENDBRANCH   1  16
TORSDOF 2
ENDMDL
MODEL 3
REMARK VINA RESULT:      -6.9      5.330      7.991
REMARK  Name = 
REMARK  3 active torsions:
REMARK  status: ('A' for Active; 'I' for Inactive)
REMARK    1  A    between atoms: C_1  and  C_2
REMARK    2  A    between atoms: C_2  and  C_3
REMARK    3  A    between atoms: C_3  and  N_4
REMARK                            x       y       z     vdW  Elec       q    Type
REMARK                         _______ _______ _______ _____ _____    ______ ____
ROOT
ATOM      1  N   UNL     1      -1.623  11.313  17.826  0.00  0.00    +0.000 NA
ATOM      2  C   UNL     1      -2.070  11.638  19.189  0.00  0.00    +0.000 C 
ATOM      3  C   UNL     1      -0.924  12.095  20.087  0.00  0.00    +0.000 C 
ATOM      4  C   UNL     1      -0.321  10.911  20.795  0.00  0.00    +0.000 A 
ATOM      5  C   UNL     1      -0.571  10.686  22.167  0.00  0.00    +0.000 A 
ATOM      6 CL   UNL     1      -1.595  11.711  23.113  0.00  0.00    +0.000 Cl
ATOM      7  C   UNL     1      -0.025   9.586  22.808  0.00  0.00    +0.000 A 
ATOM      8  C   UNL     1       0.772   8.701  22.095  0.00  0.00    +0.000 A 
ATOM      9  C   UNL     1       1.014   8.886  20.719  0.00  0.00    +0.000 A 
ATOM     10  C   UNL     1       0.447   9.979  20.049  0.00  0.00    +0.000 A 
ATOM     11  C   UNL     1       0.609  10.171  18.544  0.00  0.00    +0.000 C 
ATOM     12  C   UNL     1       1.662   9.264  17.868  0.00  0.00    +0.000 C 
ATOM     13  C   UNL     1       2.182   8.028  18.585  0.00  0.00    +0.000 C 
ATOM     14  C   UNL     1       1.887   7.864  20.062  0.00  0.00    +0.000 C 
ATOM     15  C   UNL     1      -0.753  10.107  17.772  0.00  0.00    +0.000 C 
ENDROOT
BRANCH   1  16
ATOM     16  C   UNL     1      -2.779  11.143  16.919  0.00  0.00    +0.000 C 
BRANCH  16  18
ATOM     17  C   UNL     1      -3.222  10.169  14.591  0.00  0.00    +0.000 C 
ATOM     18  C   UNL     1      -2.725   9.903  16.006  0.00  0.00    +0.000 C 
ENDBRANCH  16  18
ENDBRANCH   1  16
TORSDOF 2
ENDMDL
MODEL 4
REMARK VINA RESULT:      -6.8      2.538      5.263
REMARK  Name = 
REMARK  3 active torsions:
REMARK  status: ('A' for Active; 'I' for Inactive)
REMARK    1  A    between atoms: C_1  and  C_2
REMARK    2  A    between atoms: C_2  and  C_3
REMARK    3  A    between atoms: C_3  and  N_4
REMARK                            x       y       z     vdW  Elec       q    Type
REMARK                         _______ _______ _______ _____ _____    ______ ____
ROOT
ATOM      1  N   UNL     1       1.363   7.450  20.288  0.00  0.00    +0.000 NA
ATOM      2  C   UNL     1       2.312   7.797  19.219  0.00  0.00    +0.000 C 
ATOM      3  C   UNL     1       2.230   6.840  18.032  0.00  0.00    +0.000 C 
ATOM      4  C   UNL     1       3.193   5.697  18.225  0.00  0.00    +0.000 A 
ATOM      5  C   UNL     1       4.393   5.633  17.485  0.00  0.00    +0.000 A 
ATOM      6 CL   UNL     1       4.861   6.851  16.349  0.00  0.00    +0.000 Cl
ATOM      7  C   UNL     1       5.281   4.587  17.679  0.00  0.00    +0.000 A 
ATOM      8  C   UNL     1       4.985   3.598  18.606  0.00  0.00    +0.000 A 
ATOM      9  C   UNL     1       3.807   3.654  19.379  0.00  0.00    +0.000 A 
ATOM     10  C   UNL     1       2.912   4.720  19.215  0.00  0.00    +0.000 A 
ATOM     11  C   UNL     1       1.670   4.867  20.089  0.00  0.00    +0.000 C 
ATOM     12  C   UNL     1       1.313   3.636  20.951  0.00  0.00    +0.000 C 
ATOM     13  C   UNL     1       2.344   2.544  21.190  0.00  0.00    +0.000 C 
ATOM     14  C   UNL     1       3.602   2.530  20.345  0.00  0.00    +0.000 C 
ATOM     15  C   UNL     1       1.694   6.167  20.966  0.00  0.00    +0.000 C 
ENDROOT
BRANCH   1  16
ATOM     16  C   UNL     1       1.273   8.539  21.286  0.00  0.00    +0.000 C 
BRANCH  16  18
ATOM     17  C   UNL     1      -0.181   9.633  23.089  0.00  0.00    +0.000 C 
ATOM     18  C   UNL     1      -0.151   8.877  21.767  0.00  0.00    +0.000 C 
ENDBRANCH  16  18
ENDBRANCH   1  16
TORSDOF 2
ENDMDL
MODEL 5
REMARK VINA RESULT:      -6.8      2.013      4.600
REMARK  Name = 
REMARK  3 active torsions:
REMARK  status: ('A' for Active; 'I' for Inactive)
REMARK    1  A    between atoms: C_1  and  C_2
REMARK    2  A    between atoms: C_2  and  C_3
REMARK    3  A    between atoms: C_3  and  N_4
REMARK                            x       y       z     vdW  Elec       q    Type
REMARK                         _______ _______ _______ _____ _____    ______ ____
ROOT
ATOM      1  N   UNL     1       2.524   8.328  18.424  0.00  0.00    +0.000 NA
ATOM      2  C   UNL     1       1.723   7.359  19.188  0.00  0.00    +0.000 C 
ATOM      3  C   UNL     1       2.586   6.351  19.941  0.00  0.00    +0.000 C 
ATOM      4  C   UNL     1       2.837   5.142  19.078  0.00  0.00    +0.000 A 
ATOM      5  C   UNL     1       2.169   3.924  19.332  0.00  0.00    +0.000 A 
ATOM      6 CL   UNL     1       1.009   3.737  20.602  0.00  0.00    +0.000 Cl
ATOM      7  C   UNL     1       2.394   2.821  18.524  0.00  0.00    +0.000 A 
ATOM      8  C   UNL     1       3.281   2.917  17.461  0.00  0.00    +0.000 A 
ATOM      9  C   UNL     1       3.939   4.129  17.169  0.00  0.00    +0.000 A 
ATOM     10  C   UNL     1       3.702   5.262  17.959  0.00  0.00    +0.000 A 
ATOM     11  C   UNL     1       4.324   6.615  17.629  0.00  0.00    +0.000 C 
ATOM     12  C   UNL     1       5.440   6.591  16.561  0.00  0.00    +0.000 C 
ATOM     13  C   UNL     1       5.605   5.383  15.653  0.00  0.00    +0.000 C 
ATOM     14  C   UNL     1       4.869   4.105  15.998  0.00  0.00    +0.000 C 
ATOM     15  C   UNL     1       3.254   7.708  17.285  0.00  0.00    +0.000 C 
ENDROOT
BRANCH   1  16
ATOM     16  C   UNL     1       1.681   9.442  17.937  0.00  0.00    +0.000 C 
BRANCH  16  18
ATOM     17  C   UNL     1      -0.725  10.267  18.238  0.00  0.00    +0.000 C 
ATOM     18  C   UNL     1       0.594   9.924  18.917  0.00  0.00    +0.000 C 
ENDBRANCH  16  18
ENDBRANCH   1  16
TORSDOF 2
ENDMDL
MODEL 6
REMARK VINA RESULT:      -6.7      1.923      4.400
REMARK  Name = 
REMARK  3 active torsions:
REMARK  status: ('A' for Active; 'I' for Inactive)
REMARK    1  A    between atoms: C_1  and  C_2
REMARK    2  A    between atoms: C_2  and  C_3
REMARK    3  A    between atoms: C_3  and  N_4
REMARK                            x       y       z     vdW  Elec       q    Type
REMARK                         _______ _______ _______ _____ _____    ______ ____
ROOT
ATOM      1  N   UNL     1       2.268   7.552  19.796  0.00  0.00    +0.000 NA
ATOM      2  C   UNL     1       1.589   6.423  20.449  0.00  0.00    +0.000 C 
ATOM      3  C   UNL     1       2.561   5.332  20.891  0.00  0.00    +0.000 C 
ATOM      4  C   UNL     1       2.731   4.318  19.791  0.00  0.00    +0.000 A 
ATOM      5  C   UNL     1       2.127   3.045  19.884  0.00  0.00    +0.000 A 
ATOM      6 CL   UNL     1       1.136   2.572  21.221  0.00  0.00    +0.000 Cl
ATOM      7  C   UNL     1       2.276   2.123  18.860  0.00  0.00    +0.000 A 
ATOM      8  C   UNL     1       3.024   2.455  17.740  0.00  0.00    +0.000 A 
ATOM      9  C   UNL     1       3.613   3.729  17.610  0.00  0.00    +0.000 A 
ATOM     10  C   UNL     1       3.450   4.683  18.622  0.00  0.00    +0.000 A 
ATOM     11  C   UNL     1       3.996   6.101  18.486  0.00  0.00    +0.000 C 
ATOM     12  C   UNL     1       4.973   6.327  17.311  0.00  0.00    +0.000 C 
ATOM     13  C   UNL     1       5.053   5.318  16.177  0.00  0.00    +0.000 C 
ATOM     14  C   UNL     1       4.394   3.966  16.355  0.00  0.00    +0.000 C 
ATOM     15  C   UNL     1       2.867   7.189  18.483  0.00  0.00    +0.000 C 
ENDROOT
BRANCH   1  16
ATOM     16  C   UNL     1       1.347   8.698  19.631  0.00  0.00    +0.000 C 
BRANCH  16  18
ATOM     17  C   UNL     1      -0.074   9.982  17.930  0.00  0.00    +0.000 C 
ATOM     18  C   UNL     1       1.237   9.255  18.199  0.00  0.00    +0.000 C 
ENDBRANCH  16  18
ENDBRANCH   1  16
TORSDOF 2
ENDMDL
MODEL 7
REMARK VINA RESULT:      -6.4      5.493      8.285
REMARK  Name = 
REMARK  3 active torsions:
REMARK  status: ('A' for Active; 'I' for Inactive)
REMARK    1  A    between atoms: C_1  and  C_2
REMARK    2  A    between atoms: C_2  and  C_3
REMARK    3  A    between atoms: C_3  and  N_4
REMARK                            x       y       z     vdW  Elec       q    Type
REMARK                         _______ _______ _______ _____ _____    ______ ____
ROOT
ATOM      1  N   UNL     1      -1.657  11.330  17.855  0.00  0.00    +0.000 NA
ATOM      2  C   UNL     1      -2.088  11.657  19.223  0.00  0.00    +0.000 C 
ATOM      3  C   UNL     1      -0.931  12.114  20.107  0.00  0.00    +0.000 C 
ATOM      4  C   UNL     1      -0.322  10.929  20.810  0.00  0.00    +0.000 A 
ATOM      5  C   UNL     1      -0.556  10.706  22.184  0.00  0.00    +0.000 A 
ATOM      6 CL   UNL     1      -1.569  11.733  23.141  0.00  0.00    +0.000 Cl
ATOM      7  C   UNL     1      -0.005   9.605  22.820  0.00  0.00    +0.000 A 
ATOM      8  C   UNL     1       0.783   8.719  22.100  0.00  0.00    +0.000 A 
ATOM      9  C   UNL     1       1.009   8.903  20.721  0.00  0.00    +0.000 A 
ATOM     10  C   UNL     1       0.436   9.995  20.056  0.00  0.00    +0.000 A 
ATOM     11  C   UNL     1       0.582  10.186  18.550  0.00  0.00    +0.000 C 
ATOM     12  C   UNL     1       1.626   9.276  17.863  0.00  0.00    +0.000 C 
ATOM     13  C   UNL     1       2.153   8.041  18.575  0.00  0.00    +0.000 C 
ATOM     14  C   UNL     1       1.874   7.879  20.056  0.00  0.00    +0.000 C 
ATOM     15  C   UNL     1      -0.789  10.122  17.793  0.00  0.00    +0.000 C 
ENDROOT
BRANCH   1  16
ATOM     16  C   UNL     1      -2.823  11.160  16.961  0.00  0.00    +0.000 C 
BRANCH  16  18
ATOM     17  C   UNL     1      -5.322  11.502  17.409  0.00  0.00    +0.000 C 
ATOM     18  C   UNL     1      -4.099  10.623  17.636  0.00  0.00    +0.000 C 
ENDBRANCH  16  18
ENDBRANCH   1  16
TORSDOF 2
ENDMDL
MODEL 8
REMARK VINA RESULT:      -6.4      2.198      4.819
REMARK  Name = 
REMARK  3 active torsions:
REMARK  status: ('A' for Active; 'I' for Inactive)
REMARK    1  A    between atoms: C_1  and  C_2
REMARK    2  A    between atoms: C_2  and  C_3
REMARK    3  A    between atoms: C_3  and  N_4
REMARK                            x       y       z     vdW  Elec       q    Type
REMARK                         _______ _______ _______ _____ _____    ______ ____
ROOT
ATOM      1  N   UNL     1       3.277   3.679  20.249  0.00  0.00    +0.000 NA
ATOM      2  C   UNL     1       4.357   3.350  19.306  0.00  0.00    +0.000 C 
ATOM      3  C   UNL     1       5.432   4.432  19.248  0.00  0.00    +0.000 C 
ATOM      4  C   UNL     1       5.094   5.436  18.177  0.00  0.00    +0.000 A 
ATOM      5  C   UNL     1       5.796   5.450  16.953  0.00  0.00    +0.000 A 
ATOM      6 CL   UNL     1       7.049   4.317  16.577  0.00  0.00    +0.000 Cl
ATOM      7  C   UNL     1       5.468   6.367  15.967  0.00  0.00    +0.000 A 
ATOM      8  C   UNL     1       4.444   7.277  16.189  0.00  0.00    +0.000 A 
ATOM      9  C   UNL     1       3.708   7.265  17.391  0.00  0.00    +0.000 A 
ATOM     10  C   UNL     1       4.008   6.326  18.387  0.00  0.00    +0.000 A 
ATOM     11  C   UNL     1       3.183   6.221  19.666  0.00  0.00    +0.000 C 
ATOM     12  C   UNL     1       2.198   7.384  19.920  0.00  0.00    +0.000 C 
ATOM     13  C   UNL     1       1.817   8.325  18.789  0.00  0.00    +0.000 C 
ATOM     14  C   UNL     1       2.628   8.294  17.509  0.00  0.00    +0.000 C 
ATOM     15  C   UNL     1       2.455   4.839  19.807  0.00  0.00    +0.000 C 
ENDROOT
BRANCH   1  16
ATOM     16  C   UNL     1       2.407   2.506  20.485  0.00  0.00    +0.000 C 
BRANCH  16  18
ATOM     17  C   UNL     1       0.609   2.200  18.688  0.00  0.00    +0.000 C 
ATOM     18  C   UNL     1       0.929   2.691  20.094  0.00  0.00    +0.000 C 
ENDBRANCH  16  18
ENDBRANCH   1  16
TORSDOF 2
ENDMDL
MODEL 9
REMARK VINA RESULT:      -6.3      2.420      4.015
REMARK  Name = 
REMARK  3 active torsions:
REMARK  status: ('A' for Active; 'I' for Inactive)
REMARK    1  A    between atoms: C_1  and  C_2
REMARK    2  A    between atoms: C_2  and  C_3
REMARK    3  A    between atoms: C_3  and  N_4
REMARK                            x       y       z     vdW  Elec       q    Type
REMARK                         _______ _______ _______ _____ _____    ______ ____
ROOT
ATOM      1  N   UNL     1       5.211   4.250  16.726  0.00  0.00    +0.000 NA
ATOM      2  C   UNL     1       4.616   5.593  16.634  0.00  0.00    +0.000 C 
ATOM      3  C   UNL     1       4.816   6.409  17.907  0.00  0.00    +0.000 C 
ATOM      4  C   UNL     1       3.656   6.193  18.844  0.00  0.00    +0.000 A 
ATOM      5  C   UNL     1       2.674   7.191  19.019  0.00  0.00    +0.000 A 
ATOM      6 CL   UNL     1       2.702   8.695  18.163  0.00  0.00    +0.000 Cl
ATOM      7  C   UNL     1       1.602   6.978  19.871  0.00  0.00    +0.000 A 
ATOM      8  C   UNL     1       1.497   5.776  20.556  0.00  0.00    +0.000 A 
ATOM      9  C   UNL     1       2.449   4.752  20.378  0.00  0.00    +0.000 A 
ATOM     10  C   UNL     1       3.524   4.940  19.499  0.00  0.00    +0.000 A 
ATOM     11  C   UNL     1       4.529   3.829  19.209  0.00  0.00    +0.000 C 
ATOM     12  C   UNL     1       4.457   2.606  20.150  0.00  0.00    +0.000 C 
ATOM     13  C   UNL     1       3.230   2.379  21.018  0.00  0.00    +0.000 C 
ATOM     14  C   UNL     1       2.226   3.503  21.171  0.00  0.00    +0.000 C 
ATOM     15  C   UNL     1       4.516   3.374  17.709  0.00  0.00    +0.000 C 
ENDROOT
BRANCH   1  16
ATOM     16  C   UNL     1       5.243   3.595  15.400  0.00  0.00    +0.000 C 
BRANCH  16  18
ATOM     17  C   UNL     1       6.117   3.613  12.993  0.00  0.00    +0.000 C 
ATOM     18  C   UNL     1       6.254   4.184  14.398  0.00  0.00    +0.000 C 
ENDBRANCH  16  18
ENDBRANCH   1  16
TORSDOF 2
ENDMDL
