MODEL 1
REMARK VINA RESULT:      -7.4      0.000      0.000
REMARK  Name = 
REMARK  4 active torsions:
REMARK  status: ('A' for Active; 'I' for Inactive)
REMARK    1  A    between atoms: C_1  and  C_2
REMARK    2  A    between atoms: N_6  and  N_7
REMARK    3  A    between atoms: C_15  and  C_16
REMARK    4  A    between atoms: C_16  and  N_17
REMARK                            x       y       z     vdW  Elec       q    Type
REMARK                         _______ _______ _______ _____ _____    ______ ____
ROOT
ATOM      1  C   UNL     1       3.763   1.529  18.583  0.00  0.00    +0.000 C 
ATOM      2  C   UNL     1       3.279   2.948  19.016  0.00  0.00    +0.000 C 
ATOM      3  C   UNL     1       4.452   3.549  19.860  0.00  0.00    +0.000 C 
ATOM      4  C   UNL     1       5.343   4.571  19.108  0.00  0.00    +0.000 C 
ATOM      5  C   UNL     1       5.232   4.376  17.611  0.00  0.00    +0.000 C 
ATOM      6  N   UNL     1       6.248   4.067  16.860  0.00  0.00    +0.000 NA
ATOM      7  C   UNL     1       3.852   4.534  17.110  0.00  0.00    +0.000 C 
ATOM      8  C   UNL     1       2.958   3.850  17.832  0.00  0.00    +0.000 C 
ATOM      9  C   UNL     1       1.499   4.018  17.574  0.00  0.00    +0.000 C 
ATOM     10  C   UNL     1       0.844   3.031  18.526  0.00  0.00    +0.000 C 
ATOM     11  C   UNL     1       1.867   2.721  19.646  0.00  0.00    +0.000 C 
ENDROOT
BRANCH   6  12
ATOM     12  N   UNL     1       5.801   3.839  15.541  0.00  0.00    +0.000 NA
ATOM     13  C   UNL     1       6.530   4.374  14.617  0.00  0.00    +0.000 C 
ATOM     14  N   UNL     1       7.595   5.179  14.823  0.00  0.00    +0.000 N 
ATOM     15  N   UNL     1       6.267   4.174  13.305  0.00  0.00    +0.000 N 
ATOM     16  H   UNL     1       7.592   5.428  15.813  0.00  0.00    +0.000 HD
ATOM     17  H   UNL     1       7.563   6.011  14.249  0.00  0.00    +0.000 HD
ATOM     18  H   UNL     1       5.725   3.330  13.147  0.00  0.00    +0.000 HD
ATOM     19  H   UNL     1       7.039   4.284  12.661  0.00  0.00    +0.000 HD
ENDBRANCH   6  12
BRANCH  11  20
ATOM     20  C   UNL     1       1.527   3.376  20.986  0.00  0.00    +0.000 C 
BRANCH  20  21
ATOM     21  N   UNL     1       1.663   2.543  22.167  0.00  0.00    +0.000 NA
ATOM     22  H   UNL     1       0.745   2.345  22.571  0.00  0.00    +0.000 HD
ATOM     23  H   UNL     1       2.192   3.029  22.887  0.00  0.00    +0.000 HD
ENDBRANCH  20  21
ENDBRANCH  11  20
TORSDOF 3
ENDMDL
MODEL 2
REMARK VINA RESULT:      -7.2      1.174      1.180
REMARK  Name = 
REMARK  4 active torsions:
REMARK  status: ('A' for Active; 'I' for Inactive)
REMARK    1  A    between atoms: C_1  and  C_2
REMARK    2  A    between atoms: N_6  and  N_7
REMARK    3  A    between atoms: C_15  and  C_16
REMARK    4  A    between atoms: C_16  and  N_17
REMARK                            x       y       z     vdW  Elec       q    Type
REMARK                         _______ _______ _______ _____ _____    ______ ____
ROOT
ATOM      1  C   UNL     1       4.154   2.269  19.134  0.00  0.00    +0.000 C 
ATOM      2  C   UNL     1       3.633   3.739  19.185  0.00  0.00    +0.000 C 
ATOM      3  C   UNL     1       4.815   4.579  19.775  0.00  0.00    +0.000 C 
ATOM      4  C   UNL     1       5.637   5.378  18.731  0.00  0.00    +0.000 C 
ATOM      5  C   UNL     1       5.475   4.776  17.352  0.00  0.00    +0.000 C 
ATOM      6  N   UNL     1       6.472   4.298  16.666  0.00  0.00    +0.000 NA
ATOM      7  C   UNL     1       4.073   4.754  16.893  0.00  0.00    +0.000 C 
ATOM      8  C   UNL     1       3.234   4.273  17.816  0.00  0.00    +0.000 C 
ATOM      9  C   UNL     1       1.760   4.326  17.591  0.00  0.00    +0.000 C 
ATOM     10  C   UNL     1       1.180   3.623  18.807  0.00  0.00    +0.000 C 
ATOM     11  C   UNL     1       2.257   3.658  19.919  0.00  0.00    +0.000 C 
ENDROOT
BRANCH   6  12
ATOM     12  N   UNL     1       5.984   3.705  15.483  0.00  0.00    +0.000 NA
ATOM     13  C   UNL     1       6.539   4.122  14.392  0.00  0.00    +0.000 C 
ATOM     14  N   UNL     1       7.453   5.113  14.305  0.00  0.00    +0.000 N 
ATOM     15  N   UNL     1       6.227   3.587  13.190  0.00  0.00    +0.000 N 
ATOM     16  H   UNL     1       7.474   5.579  15.213  0.00  0.00    +0.000 HD
ATOM     17  H   UNL     1       7.233   5.775  13.573  0.00  0.00    +0.000 HD
ATOM     18  H   UNL     1       5.835   2.654  13.275  0.00  0.00    +0.000 HD
ATOM     19  H   UNL     1       6.920   3.669  12.458  0.00  0.00    +0.000 HD
ENDBRANCH   6  12
BRANCH  11  20
ATOM     20  C   UNL     1       1.945   4.648  21.043  0.00  0.00    +0.000 C 
BRANCH  20  21
ATOM     21  N   UNL     1       1.873   6.049  20.671  0.00  0.00    +0.000 NA
ATOM     22  H   UNL     1       1.395   6.588  21.397  0.00  0.00    +0.000 HD
ATOM     23  H   UNL     1       1.326   6.165  19.823  0.00  0.00    +0.000 HD
ENDBRANCH  20  21
ENDBRANCH  11  20
TORSDOF 3
ENDMDL
MODEL 3
REMARK VINA RESULT:      -7.0      4.095      5.020
REMARK  Name = 
REMARK  4 active torsions:
REMARK  status: ('A' for Active; 'I' for Inactive)
REMARK    1  A    between atoms: C_1  and  C_2
REMARK    2  A    between atoms: N_6  and  N_7
REMARK    3  A    between atoms: C_15  and  C_16
REMARK    4  A    between atoms: C_16  and  N_17
REMARK                            x       y       z     vdW  Elec       q    Type
REMARK                         _______ _______ _______ _____ _____    ______ ____
ROOT
ATOM      1  C   UNL     1       1.284   4.317  17.537  0.00  0.00    +0.000 C 
ATOM      2  C   UNL     1       2.569   4.225  18.418  0.00  0.00    +0.000 C 
ATOM      3  C   UNL     1       3.745   4.669  17.486  0.00  0.00    +0.000 C 
ATOM      4  C   UNL     1       4.241   6.122  17.703  0.00  0.00    +0.000 C 
ATOM      5  C   UNL     1       3.168   6.957  18.368  0.00  0.00    +0.000 C 
ATOM      6  N   UNL     1       2.646   8.012  17.813  0.00  0.00    +0.000 NA
ATOM      7  C   UNL     1       2.755   6.426  19.682  0.00  0.00    +0.000 C 
ATOM      8  C   UNL     1       2.505   5.113  19.653  0.00  0.00    +0.000 C 
ATOM      9  C   UNL     1       2.232   4.373  20.920  0.00  0.00    +0.000 C 
ATOM     10  C   UNL     1       1.926   2.959  20.457  0.00  0.00    +0.000 C 
ATOM     11  C   UNL     1       2.532   2.793  19.042  0.00  0.00    +0.000 C 
ENDROOT
BRANCH   6  12
ATOM     12  N   UNL     1       1.598   8.496  18.624  0.00  0.00    +0.000 NA
ATOM     13  C   UNL     1       1.344   9.757  18.494  0.00  0.00    +0.000 C 
ATOM     14  N   UNL     1       2.045  10.626  17.733  0.00  0.00    +0.000 N 
ATOM     15  N   UNL     1       0.316  10.342  19.150  0.00  0.00    +0.000 N 
ATOM     16  H   UNL     1       2.898  10.147  17.445  0.00  0.00    +0.000 HD
ATOM     17  H   UNL     1       2.268  11.478  18.230  0.00  0.00    +0.000 HD
ATOM     18  H   UNL     1      -0.396   9.672  19.424  0.00  0.00    +0.000 HD
ATOM     19  H   UNL     1      -0.061  11.190  18.747  0.00  0.00    +0.000 HD
ENDBRANCH   6  12
BRANCH  11  20
ATOM     20  C   UNL     1       3.793   1.927  19.013  0.00  0.00    +0.000 C 
BRANCH  20  21
ATOM     21  N   UNL     1       4.872   2.323  19.901  0.00  0.00    +0.000 NA
ATOM     22  H   UNL     1       5.432   3.064  19.475  0.00  0.00    +0.000 HD
ATOM     23  H   UNL     1       5.505   1.544  20.062  0.00  0.00    +0.000 HD
ENDBRANCH  20  21
ENDBRANCH  11  20
TORSDOF 3
ENDMDL
MODEL 4
REMARK VINA RESULT:      -6.9      1.467      2.352
REMARK  Name = 
REMARK  4 active torsions:
REMARK  status: ('A' for Active; 'I' for Inactive)
REMARK    1  A    between atoms: C_1  and  C_2
REMARK    2  A    between atoms: N_6  and  N_7
REMARK    3  A    between atoms: C_15  and  C_16
REMARK    4  A    between atoms: C_16  and  N_17
REMARK                            x       y       z     vdW  Elec       q    Type
REMARK                         _______ _______ _______ _____ _____    ______ ____
ROOT
ATOM      1  C   UNL     1       1.432   4.433  17.485  0.00  0.00    +0.000 C 
ATOM      2  C   UNL     1       2.123   3.780  18.723  0.00  0.00    +0.000 C 
ATOM      3  C   UNL     1       2.508   2.333  18.269  0.00  0.00    +0.000 C 
ATOM      4  C   UNL     1       4.000   2.138  17.894  0.00  0.00    +0.000 C 
ATOM      5  C   UNL     1       4.636   3.464  17.534  0.00  0.00    +0.000 C 
ATOM      6  N   UNL     1       5.147   3.709  16.364  0.00  0.00    +0.000 NA
ATOM      7  C   UNL     1       4.577   4.448  18.632  0.00  0.00    +0.000 C 
ATOM      8  C   UNL     1       3.361   4.541  19.179  0.00  0.00    +0.000 C 
ATOM      9  C   UNL     1       3.149   5.365  20.405  0.00  0.00    +0.000 C 
ATOM     10  C   UNL     1       1.653   5.275  20.651  0.00  0.00    +0.000 C 
ATOM     11  C   UNL     1       1.137   4.016  19.911  0.00  0.00    +0.000 C 
ENDROOT
BRANCH   6  12
ATOM     12  N   UNL     1       5.550   5.060  16.304  0.00  0.00    +0.000 NA
ATOM     13  C   UNL     1       6.823   5.257  16.411  0.00  0.00    +0.000 C 
ATOM     14  N   UNL     1       7.748   4.304  16.658  0.00  0.00    +0.000 N 
ATOM     15  N   UNL     1       7.360   6.493  16.294  0.00  0.00    +0.000 N 
ATOM     16  H   UNL     1       7.240   3.460  16.925  0.00  0.00    +0.000 HD
ATOM     17  H   UNL     1       8.393   4.575  17.388  0.00  0.00    +0.000 HD
ATOM     18  H   UNL     1       6.756   7.127  15.779  0.00  0.00    +0.000 HD
ATOM     19  H   UNL     1       8.331   6.546  16.016  0.00  0.00    +0.000 HD
ENDBRANCH   6  12
BRANCH  11  20
ATOM     20  C   UNL     1       0.791   2.854  20.844  0.00  0.00    +0.000 C 
BRANCH  20  21
ATOM     21  N   UNL     1       1.696   2.625  21.956  0.00  0.00    +0.000 NA
ATOM     22  H   UNL     1       1.999   1.649  21.975  0.00  0.00    +0.000 HD
ATOM     23  H   UNL     1       1.224   2.794  22.840  0.00  0.00    +0.000 HD
ENDBRANCH  20  21
ENDBRANCH  11  20
TORSDOF 3
ENDMDL
MODEL 5
REMARK VINA RESULT:      -6.8      2.149      3.408
REMARK  Name = 
REMARK  4 active torsions:
REMARK  status: ('A' for Active; 'I' for Inactive)
REMARK    1  A    between atoms: C_1  and  C_2
REMARK    2  A    between atoms: N_6  and  N_7
REMARK    3  A    between atoms: C_15  and  C_16
REMARK    4  A    between atoms: C_16  and  N_17
REMARK                            x       y       z     vdW  Elec       q    Type
REMARK                         _______ _______ _______ _____ _____    ______ ____
ROOT
ATOM      1  C   UNL     1       2.810   5.694  19.834  0.00  0.00    +0.000 C 
ATOM      2  C   UNL     1       2.511   4.261  19.295  0.00  0.00    +0.000 C 
ATOM      3  C   UNL     1       2.445   4.407  17.738  0.00  0.00    +0.000 C 
ATOM      4  C   UNL     1       3.718   3.943  16.982  0.00  0.00    +0.000 C 
ATOM      5  C   UNL     1       4.919   3.953  17.903  0.00  0.00    +0.000 C 
ATOM      6  N   UNL     1       5.968   4.691  17.690  0.00  0.00    +0.000 NA
ATOM      7  C   UNL     1       4.752   3.075  19.078  0.00  0.00    +0.000 C 
ATOM      8  C   UNL     1       3.575   3.246  19.689  0.00  0.00    +0.000 C 
ATOM      9  C   UNL     1       3.165   2.334  20.796  0.00  0.00    +0.000 C 
ATOM     10  C   UNL     1       1.836   2.902  21.263  0.00  0.00    +0.000 C 
ATOM     11  C   UNL     1       1.272   3.769  20.110  0.00  0.00    +0.000 C 
ENDROOT
BRANCH   6  12
ATOM     12  N   UNL     1       6.855   4.569  18.780  0.00  0.00    +0.000 NA
ATOM     13  C   UNL     1       7.607   5.599  18.992  0.00  0.00    +0.000 C 
ATOM     14  N   UNL     1       7.664   6.704  18.217  0.00  0.00    +0.000 N 
ATOM     15  N   UNL     1       8.450   5.653  20.049  0.00  0.00    +0.000 N 
ATOM     16  H   UNL     1       7.157   6.490  17.358  0.00  0.00    +0.000 HD
ATOM     17  H   UNL     1       8.615   6.977  18.008  0.00  0.00    +0.000 HD
ATOM     18  H   UNL     1       8.170   5.024  20.796  0.00  0.00    +0.000 HD
ATOM     19  H   UNL     1       8.717   6.572  20.375  0.00  0.00    +0.000 HD
ENDBRANCH   6  12
BRANCH  11  20
ATOM     20  C   UNL     1       0.096   3.122  19.375  0.00  0.00    +0.000 C 
BRANCH  20  21
ATOM     21  N   UNL     1       0.396   1.941  18.586  0.00  0.00    +0.000 NA
ATOM     22  H   UNL     1       1.134   1.391  19.033  0.00  0.00    +0.000 HD
ATOM     23  H   UNL     1       0.751   2.204  17.671  0.00  0.00    +0.000 HD
ENDBRANCH  20  21
ENDBRANCH  11  20
TORSDOF 3
ENDMDL
MODEL 6
REMARK VINA RESULT:      -6.8      2.227      2.804
REMARK  Name = 
REMARK  4 active torsions:
REMARK  status: ('A' for Active; 'I' for Inactive)
REMARK    1  A    between atoms: C_1  and  C_2
REMARK    2  A    between atoms: N_6  and  N_7
REMARK    3  A    between atoms: C_15  and  C_16
REMARK    4  A    between atoms: C_16  and  N_17
REMARK                            x       y       z     vdW  Elec       q    Type
REMARK                         _______ _______ _______ _____ _____    ______ ____
ROOT
ATOM      1  C   UNL     1       3.672   4.130  17.244  0.00  0.00    +0.000 C 
ATOM      2  C   UNL     1       3.932   5.258  18.291  0.00  0.00    +0.000 C 
ATOM      3  C   UNL     1       4.884   4.622  19.359  0.00  0.00    +0.000 C 
ATOM      4  C   UNL     1       6.378   5.017  19.223  0.00  0.00    +0.000 C 
ATOM      5  C   UNL     1       6.680   5.483  17.815  0.00  0.00    +0.000 C 
ATOM      6  N   UNL     1       7.540   4.887  17.042  0.00  0.00    +0.000 NA
ATOM      7  C   UNL     1       5.872   6.648  17.406  0.00  0.00    +0.000 C 
ATOM      8  C   UNL     1       4.572   6.497  17.679  0.00  0.00    +0.000 C 
ATOM      9  C   UNL     1       3.626   7.635  17.485  0.00  0.00    +0.000 C 
ATOM     10  C   UNL     1       2.268   7.043  17.821  0.00  0.00    +0.000 C 
ATOM     11  C   UNL     1       2.515   5.782  18.686  0.00  0.00    +0.000 C 
ENDROOT
BRANCH   6  12
ATOM     12  N   UNL     1       7.509   5.482  15.763  0.00  0.00    +0.000 NA
ATOM     13  C   UNL     1       6.945   4.770  14.843  0.00  0.00    +0.000 C 
ATOM     14  N   UNL     1       6.485   3.509  14.995  0.00  0.00    +0.000 N 
ATOM     15  N   UNL     1       6.774   5.244  13.588  0.00  0.00    +0.000 N 
ATOM     16  H   UNL     1       6.831   3.173  15.894  0.00  0.00    +0.000 HD
ATOM     17  H   UNL     1       6.787   2.898  14.249  0.00  0.00    +0.000 HD
ATOM     18  H   UNL     1       6.786   6.259  13.556  0.00  0.00    +0.000 HD
ATOM     19  H   UNL     1       6.031   4.832  13.039  0.00  0.00    +0.000 HD
ENDBRANCH   6  12
BRANCH  11  20
ATOM     20  C   UNL     1       2.169   5.975  20.164  0.00  0.00    +0.000 C 
BRANCH  20  21
ATOM     21  N   UNL     1       1.967   7.342  20.609  0.00  0.00    +0.000 NA
ATOM     22  H   UNL     1       1.004   7.636  20.433  0.00  0.00    +0.000 HD
ATOM     23  H   UNL     1       2.560   7.979  20.084  0.00  0.00    +0.000 HD
ENDBRANCH  20  21
ENDBRANCH  11  20
TORSDOF 3
ENDMDL
MODEL 7
REMARK VINA RESULT:      -6.7      1.634      1.981
REMARK  Name = 
REMARK  4 active torsions:
REMARK  status: ('A' for Active; 'I' for Inactive)
REMARK    1  A    between atoms: C_1  and  C_2
REMARK    2  A    between atoms: N_6  and  N_7
REMARK    3  A    between atoms: C_15  and  C_16
REMARK    4  A    between atoms: C_16  and  N_17
REMARK                            x       y       z     vdW  Elec       q    Type
REMARK                         _______ _______ _______ _____ _____    ______ ____
ROOT
ATOM      1  C   UNL     1       4.953   3.792  19.755  0.00  0.00    +0.000 C 
ATOM      2  C   UNL     1       3.445   4.005  19.412  0.00  0.00    +0.000 C 
ATOM      3  C   UNL     1       3.117   5.465  19.867  0.00  0.00    +0.000 C 
ATOM      4  C   UNL     1       3.065   6.513  18.724  0.00  0.00    +0.000 C 
ATOM      5  C   UNL     1       3.848   6.029  17.523  0.00  0.00    +0.000 C 
ATOM      6  N   UNL     1       4.879   6.663  17.048  0.00  0.00    +0.000 NA
ATOM      7  C   UNL     1       3.343   4.752  16.981  0.00  0.00    +0.000 C 
ATOM      8  C   UNL     1       3.146   3.830  17.929  0.00  0.00    +0.000 C 
ATOM      9  C   UNL     1       2.487   2.535  17.591  0.00  0.00    +0.000 C 
ATOM     10  C   UNL     1       2.524   1.755  18.894  0.00  0.00    +0.000 C 
ATOM     11  C   UNL     1       2.708   2.780  20.041  0.00  0.00    +0.000 C 
ENDROOT
BRANCH   6  12
ATOM     12  N   UNL     1       5.458   5.904  16.010  0.00  0.00    +0.000 NA
ATOM     13  C   UNL     1       6.750   5.907  15.983  0.00  0.00    +0.000 C 
ATOM     14  N   UNL     1       7.551   6.633  16.794  0.00  0.00    +0.000 N 
ATOM     15  N   UNL     1       7.442   5.160  15.092  0.00  0.00    +0.000 N 
ATOM     16  H   UNL     1       6.953   7.299  17.283  0.00  0.00    +0.000 HD
ATOM     17  H   UNL     1       8.276   7.117  16.283  0.00  0.00    +0.000 HD
ATOM     18  H   UNL     1       6.895   4.381  14.738  0.00  0.00    +0.000 HD
ATOM     19  H   UNL     1       8.389   4.909  15.342  0.00  0.00    +0.000 HD
ENDBRANCH   6  12
BRANCH  11  20
ATOM     20  C   UNL     1       1.440   3.008  20.867  0.00  0.00    +0.000 C 
BRANCH  20  21
ATOM     21  N   UNL     1       1.456   2.506  22.229  0.00  0.00    +0.000 NA
ATOM     22  H   UNL     1       1.828   1.554  22.255  0.00  0.00    +0.000 HD
ATOM     23  H   UNL     1       0.511   2.452  22.601  0.00  0.00    +0.000 HD
ENDBRANCH  20  21
ENDBRANCH  11  20
TORSDOF 3
ENDMDL
MODEL 8
REMARK VINA RESULT:      -6.6      1.144      1.319
REMARK  Name = 
REMARK  4 active torsions:
REMARK  status: ('A' for Active; 'I' for Inactive)
REMARK    1  A    between atoms: C_1  and  C_2
REMARK    2  A    between atoms: N_6  and  N_7
REMARK    3  A    between atoms: C_15  and  C_16
REMARK    4  A    between atoms: C_16  and  N_17
REMARK                            x       y       z     vdW  Elec       q    Type
REMARK                         _______ _______ _______ _____ _____    ______ ____
ROOT
ATOM      1  C   UNL     1       4.988   2.990  19.430  0.00  0.00    +0.000 C 
ATOM      2  C   UNL     1       3.587   3.676  19.404  0.00  0.00    +0.000 C 
ATOM      3  C   UNL     1       3.856   5.185  19.719  0.00  0.00    +0.000 C 
ATOM      4  C   UNL     1       3.843   6.124  18.485  0.00  0.00    +0.000 C 
ATOM      5  C   UNL     1       4.105   5.341  17.216  0.00  0.00    +0.000 C 
ATOM      6  N   UNL     1       5.125   5.566  16.443  0.00  0.00    +0.000 NA
ATOM      7  C   UNL     1       3.108   4.279  16.979  0.00  0.00    +0.000 C 
ATOM      8  C   UNL     1       2.881   3.530  18.063  0.00  0.00    +0.000 C 
ATOM      9  C   UNL     1       1.789   2.513  18.059  0.00  0.00    +0.000 C 
ATOM     10  C   UNL     1       1.913   1.839  19.415  0.00  0.00    +0.000 C 
ATOM     11  C   UNL     1       2.690   2.805  20.342  0.00  0.00    +0.000 C 
ENDROOT
BRANCH   6  12
ATOM     12  N   UNL     1       5.155   4.601  15.415  0.00  0.00    +0.000 NA
ATOM     13  C   UNL     1       6.281   4.502  14.788  0.00  0.00    +0.000 C 
ATOM     14  N   UNL     1       7.360   5.293  14.981  0.00  0.00    +0.000 N 
ATOM     15  N   UNL     1       6.479   3.566  13.832  0.00  0.00    +0.000 N 
ATOM     16  H   UNL     1       7.054   6.075  15.561  0.00  0.00    +0.000 HD
ATOM     17  H   UNL     1       7.750   5.628  14.111  0.00  0.00    +0.000 HD
ATOM     18  H   UNL     1       5.842   2.781  13.925  0.00  0.00    +0.000 HD
ATOM     19  H   UNL     1       7.436   3.290  13.652  0.00  0.00    +0.000 HD
ENDBRANCH   6  12
BRANCH  11  20
ATOM     20  C   UNL     1       1.811   3.490  21.390  0.00  0.00    +0.000 C 
BRANCH  20  21
ATOM     21  N   UNL     1       1.243   2.635  22.417  0.00  0.00    +0.000 NA
ATOM     22  H   UNL     1       1.527   1.664  22.271  0.00  0.00    +0.000 HD
ATOM     23  H   UNL     1       0.228   2.646  22.369  0.00  0.00    +0.000 HD
ENDBRANCH  20  21
ENDBRANCH  11  20
TORSDOF 3
ENDMDL
MODEL 9
REMARK VINA RESULT:      -6.6      3.123      6.011
REMARK  Name = 
REMARK  4 active torsions:
REMARK  status: ('A' for Active; 'I' for Inactive)
REMARK    1  A    between atoms: C_1  and  C_2
REMARK    2  A    between atoms: N_6  and  N_7
REMARK    3  A    between atoms: C_15  and  C_16
REMARK    4  A    between atoms: C_16  and  N_17
REMARK                            x       y       z     vdW  Elec       q    Type
REMARK                         _______ _______ _______ _____ _____    ______ ____
ROOT
ATOM      1  C   UNL     1       6.858   5.490  16.038  0.00  0.00    +0.000 C 
ATOM      2  C   UNL     1       6.404   6.388  17.231  0.00  0.00    +0.000 C 
ATOM      3  C   UNL     1       5.027   6.991  16.798  0.00  0.00    +0.000 C 
ATOM      4  C   UNL     1       3.784   6.305  17.422  0.00  0.00    +0.000 C 
ATOM      5  C   UNL     1       4.123   4.901  17.877  0.00  0.00    +0.000 C 
ATOM      6  N   UNL     1       3.539   3.842  17.399  0.00  0.00    +0.000 NA
ATOM      7  C   UNL     1       5.205   4.866  18.881  0.00  0.00    +0.000 C 
ATOM      8  C   UNL     1       6.258   5.612  18.533  0.00  0.00    +0.000 C 
ATOM      9  C   UNL     1       7.377   5.826  19.496  0.00  0.00    +0.000 C 
ATOM     10  C   UNL     1       8.388   6.641  18.706  0.00  0.00    +0.000 C 
ATOM     11  C   UNL     1       7.628   7.310  17.535  0.00  0.00    +0.000 C 
ENDROOT
BRANCH   6  12
ATOM     12  N   UNL     1       4.154   2.689  17.932  0.00  0.00    +0.000 NA
ATOM     13  C   UNL     1       3.345   1.728  18.235  0.00  0.00    +0.000 C 
ATOM     14  N   UNL     1       1.997   1.783  18.165  0.00  0.00    +0.000 N 
ATOM     15  N   UNL     1       3.799   0.535  18.682  0.00  0.00    +0.000 N 
ATOM     16  H   UNL     1       1.747   2.761  18.015  0.00  0.00    +0.000 HD
ATOM     17  H   UNL     1       1.554   1.429  19.002  0.00  0.00    +0.000 HD
ATOM     18  H   UNL     1       4.764   0.366  18.412  0.00  0.00    +0.000 HD
ATOM     19  H   UNL     1       3.196  -0.265  18.547  0.00  0.00    +0.000 HD
ENDBRANCH   6  12
BRANCH  11  20
ATOM     20  C   UNL     1       7.408   8.812  17.725  0.00  0.00    +0.000 C 
BRANCH  20  21
ATOM     21  N   UNL     1       8.527   9.568  18.258  0.00  0.00    +0.000 NA
ATOM     22  H   UNL     1       8.571  10.494  17.827  0.00  0.00    +0.000 HD
ATOM     23  H   UNL     1       9.406   9.108  18.037  0.00  0.00    +0.000 HD
ENDBRANCH  20  21
ENDBRANCH  11  20
TORSDOF 3
ENDMDL
