MODEL 1
REMARK VINA RESULT:      -8.7      0.000      0.000
REMARK  Name = 
REMARK  5 active torsions:
REMARK  status: ('A' for Active; 'I' for Inactive)
REMARK    1  A    between atoms: S_2  and  N_4
REMARK    2  A    between atoms: S_2  and  C_27
REMARK    3  A    between atoms: N_4  and  C_5
REMARK    4  A    between atoms: C_14  and  N_15
REMARK    5  A    between atoms: C_18  and  C_19
REMARK                            x       y       z     vdW  Elec       q    Type
REMARK                         _______ _______ _______ _____ _____    ______ ____
ROOT
ATOM      1  C   UNL     1       5.893   4.410  16.781  0.00  0.00    +0.000 A 
ATOM      2  N   UNL     1       5.010   3.380  16.741  0.00  0.00    +0.000 NA
ATOM      3  C   UNL     1       3.983   3.394  17.598  0.00  0.00    +0.000 A 
ATOM      4  C   UNL     1       3.050   2.374  17.528  0.00  0.00    +0.000 A 
ATOM      5  C   UNL     1       1.994   2.308  18.429  0.00  0.00    +0.000 A 
ATOM      6  C   UNL     1       1.875   3.277  19.419  0.00  0.00    +0.000 A 
ATOM      7  C   UNL     1       2.800   4.325  19.472  0.00  0.00    +0.000 A 
ATOM      8  C   UNL     1       3.849   4.417  18.563  0.00  0.00    +0.000 A 
ATOM      9  N   UNL     1       4.716   5.455  18.616  0.00  0.00    +0.000 NA
ATOM     10  C   UNL     1       5.733   5.447  17.709  0.00  0.00    +0.000 A 
ENDROOT
BRANCH  10  11
ATOM     11  N   UNL     1       6.678   6.542  17.895  0.00  0.00    +0.000 N 
ATOM     12  C   UNL     1       7.739   6.455  18.727  0.00  0.00    +0.000 A 
ATOM     13  C   UNL     1       8.566   7.545  18.974  0.00  0.00    +0.000 A 
ATOM     14  C   UNL     1       8.328   8.786  18.382  0.00  0.00    +0.000 A 
ATOM     15  C   UNL     1       7.247   8.845  17.501  0.00  0.00    +0.000 A 
ATOM     16  C   UNL     1       6.442   7.721  17.268  0.00  0.00    +0.000 A 
BRANCH  14  17
ATOM     17  C   UNL     1       9.147   9.964  18.734  0.00  0.00    +0.000 A 
ATOM     18  C   UNL     1       9.332  10.362  20.067  0.00  0.00    +0.000 A 
ATOM     19  C   UNL     1      10.041  11.520  20.349  0.00  0.00    +0.000 A 
ATOM     20  N   UNL     1      10.597  12.303  19.407  0.00  0.00    +0.000 NA
ATOM     21  C   UNL     1      10.438  11.910  18.129  0.00  0.00    +0.000 A 
ATOM     22  C   UNL     1       9.734  10.777  17.749  0.00  0.00    +0.000 A 
ENDBRANCH  14  17
ENDBRANCH  10  11
BRANCH   1  23
ATOM     23  N   UNL     1       6.863   4.282  15.866  0.00  0.00    +0.000 NA
BRANCH  23  25
ATOM     24  O   UNL     1       5.670   6.138  14.533  0.00  0.00    +0.000 OA
ATOM     25  S   UNL     1       6.731   5.133  14.526  0.00  0.00    +0.000 S 
ATOM     26  O   UNL     1       8.013   5.635  14.038  0.00  0.00    +0.000 OA
BRANCH  25  27
ATOM     27  C   UNL     1       6.226   3.931  13.281  0.00  0.00    +0.000 A 
ATOM     28  C   UNL     1       7.200   3.251  12.549  0.00  0.00    +0.000 A 
ATOM     29  C   UNL     1       6.810   2.447  11.477  0.00  0.00    +0.000 A 
ATOM     30  C   UNL     1       5.457   2.323  11.151  0.00  0.00    +0.000 A 
ATOM     31  C   UNL     1       4.488   2.993  11.901  0.00  0.00    +0.000 A 
ATOM     32  C   UNL     1       4.869   3.798  12.973  0.00  0.00    +0.000 A 
ENDBRANCH  25  27
ENDBRANCH  23  25
ENDBRANCH   1  23
TORSDOF 5
ENDMDL
MODEL 2
REMARK VINA RESULT:      -8.4      8.096     11.263
REMARK  Name = 
REMARK  5 active torsions:
REMARK  status: ('A' for Active; 'I' for Inactive)
REMARK    1  A    between atoms: S_2  and  N_4
REMARK    2  A    between atoms: S_2  and  C_27
REMARK    3  A    between atoms: N_4  and  C_5
REMARK    4  A    between atoms: C_14  and  N_15
REMARK    5  A    between atoms: C_18  and  C_19
REMARK                            x       y       z     vdW  Elec       q    Type
REMARK                         _______ _______ _______ _____ _____    ______ ____
ROOT
ATOM      1  C   UNL     1      -0.631  11.988  19.054  0.00  0.00    +0.000 A 
ATOM      2  N   UNL     1      -0.914  13.316  19.021  0.00  0.00    +0.000 NA
ATOM      3  C   UNL     1       0.095  14.172  18.827  0.00  0.00    +0.000 A 
ATOM      4  C   UNL     1      -0.193  15.523  18.742  0.00  0.00    +0.000 A 
ATOM      5  C   UNL     1       0.821  16.463  18.597  0.00  0.00    +0.000 A 
ATOM      6  C   UNL     1       2.144  16.040  18.543  0.00  0.00    +0.000 A 
ATOM      7  C   UNL     1       2.435  14.673  18.599  0.00  0.00    +0.000 A 
ATOM      8  C   UNL     1       1.429  13.720  18.721  0.00  0.00    +0.000 A 
ATOM      9  N   UNL     1       1.731  12.401  18.745  0.00  0.00    +0.000 NA
ATOM     10  C   UNL     1       0.687  11.540  18.902  0.00  0.00    +0.000 A 
ENDROOT
BRANCH  10  11
ATOM     11  N   UNL     1       1.104  10.147  19.018  0.00  0.00    +0.000 N 
ATOM     12  C   UNL     1       1.026   9.458  20.179  0.00  0.00    +0.000 A 
ATOM     13  C   UNL     1       1.528   8.166  20.298  0.00  0.00    +0.000 A 
ATOM     14  C   UNL     1       2.149   7.527  19.223  0.00  0.00    +0.000 A 
ATOM     15  C   UNL     1       2.189   8.243  18.027  0.00  0.00    +0.000 A 
ATOM     16  C   UNL     1       1.661   9.539  17.942  0.00  0.00    +0.000 A 
BRANCH  14  17
ATOM     17  C   UNL     1       2.774   6.199  19.391  0.00  0.00    +0.000 A 
ATOM     18  C   UNL     1       3.917   5.826  18.668  0.00  0.00    +0.000 A 
ATOM     19  C   UNL     1       4.424   4.540  18.795  0.00  0.00    +0.000 A 
ATOM     20  N   UNL     1       3.891   3.604  19.601  0.00  0.00    +0.000 NA
ATOM     21  C   UNL     1       2.807   3.969  20.311  0.00  0.00    +0.000 A 
ATOM     22  C   UNL     1       2.221   5.225  20.239  0.00  0.00    +0.000 A 
ENDBRANCH  14  17
ENDBRANCH  10  11
BRANCH   1  23
ATOM     23  N   UNL     1      -1.727  11.241  19.240  0.00  0.00    +0.000 NA
BRANCH  23  25
ATOM     24  O   UNL     1      -2.134  11.469  16.705  0.00  0.00    +0.000 OA
ATOM     25  S   UNL     1      -2.611  10.895  17.961  0.00  0.00    +0.000 S 
ATOM     26  O   UNL     1      -2.951   9.477  17.867  0.00  0.00    +0.000 OA
BRANCH  25  27
ATOM     27  C   UNL     1      -4.190  11.706  18.275  0.00  0.00    +0.000 A 
ATOM     28  C   UNL     1      -4.424  12.293  19.520  0.00  0.00    +0.000 A 
ATOM     29  C   UNL     1      -5.699  12.775  19.817  0.00  0.00    +0.000 A 
ATOM     30  C   UNL     1      -6.724  12.672  18.874  0.00  0.00    +0.000 A 
ATOM     31  C   UNL     1      -6.476  12.099  17.624  0.00  0.00    +0.000 A 
ATOM     32  C   UNL     1      -5.204  11.616  17.318  0.00  0.00    +0.000 A 
ENDBRANCH  25  27
ENDBRANCH  23  25
ENDBRANCH   1  23
TORSDOF 5
ENDMDL
MODEL 3
REMARK VINA RESULT:      -8.2      0.741      1.200
REMARK  Name = 
REMARK  5 active torsions:
REMARK  status: ('A' for Active; 'I' for Inactive)
REMARK    1  A    between atoms: S_2  and  N_4
REMARK    2  A    between atoms: S_2  and  C_27
REMARK    3  A    between atoms: N_4  and  C_5
REMARK    4  A    between atoms: C_14  and  N_15
REMARK    5  A    between atoms: C_18  and  C_19
REMARK                            x       y       z     vdW  Elec       q    Type
REMARK                         _______ _______ _______ _____ _____    ______ ____
ROOT
ATOM      1  C   UNL     1       5.048   5.137  16.430  0.00  0.00    +0.000 A 
ATOM      2  N   UNL     1       4.155   4.116  16.390  0.00  0.00    +0.000 NA
ATOM      3  C   UNL     1       3.629   3.691  17.544  0.00  0.00    +0.000 A 
ATOM      4  C   UNL     1       2.679   2.684  17.505  0.00  0.00    +0.000 A 
ATOM      5  C   UNL     1       2.139   2.165  18.676  0.00  0.00    +0.000 A 
ATOM      6  C   UNL     1       2.563   2.660  19.904  0.00  0.00    +0.000 A 
ATOM      7  C   UNL     1       3.501   3.697  19.944  0.00  0.00    +0.000 A 
ATOM      8  C   UNL     1       4.032   4.242  18.780  0.00  0.00    +0.000 A 
ATOM      9  N   UNL     1       4.917   5.264  18.841  0.00  0.00    +0.000 NA
ATOM     10  C   UNL     1       5.413   5.714  17.654  0.00  0.00    +0.000 A 
ENDROOT
BRANCH  10  11
ATOM     11  N   UNL     1       6.432   6.746  17.810  0.00  0.00    +0.000 N 
ATOM     12  C   UNL     1       7.555   6.555  18.536  0.00  0.00    +0.000 A 
ATOM     13  C   UNL     1       8.463   7.585  18.763  0.00  0.00    +0.000 A 
ATOM     14  C   UNL     1       8.244   8.868  18.261  0.00  0.00    +0.000 A 
ATOM     15  C   UNL     1       7.095   9.034  17.487  0.00  0.00    +0.000 A 
ATOM     16  C   UNL     1       6.210   7.969  17.270  0.00  0.00    +0.000 A 
BRANCH  14  17
ATOM     17  C   UNL     1       9.158   9.980  18.598  0.00  0.00    +0.000 A 
ATOM     18  C   UNL     1       9.415  10.345  19.929  0.00  0.00    +0.000 A 
ATOM     19  C   UNL     1      10.215  11.445  20.199  0.00  0.00    +0.000 A 
ATOM     20  N   UNL     1      10.794  12.200  19.247  0.00  0.00    +0.000 NA
ATOM     21  C   UNL     1      10.564  11.837  17.971  0.00  0.00    +0.000 A 
ATOM     22  C   UNL     1       9.768  10.762  17.603  0.00  0.00    +0.000 A 
ENDBRANCH  14  17
ENDBRANCH  10  11
BRANCH   1  23
ATOM     23  N   UNL     1       5.488   5.475  15.211  0.00  0.00    +0.000 NA
BRANCH  23  25
ATOM     24  O   UNL     1       7.864   5.621  14.220  0.00  0.00    +0.000 OA
ATOM     25  S   UNL     1       6.789   4.736  14.664  0.00  0.00    +0.000 S 
ATOM     26  O   UNL     1       7.241   3.653  15.535  0.00  0.00    +0.000 OA
BRANCH  25  27
ATOM     27  C   UNL     1       6.230   3.894  13.170  0.00  0.00    +0.000 A 
ATOM     28  C   UNL     1       4.876   3.916  12.837  0.00  0.00    +0.000 A 
ATOM     29  C   UNL     1       4.423   3.130  11.776  0.00  0.00    +0.000 A 
ATOM     30  C   UNL     1       5.322   2.339  11.057  0.00  0.00    +0.000 A 
ATOM     31  C   UNL     1       6.679   2.339  11.386  0.00  0.00    +0.000 A 
ATOM     32  C   UNL     1       7.140   3.120  12.445  0.00  0.00    +0.000 A 
ENDBRANCH  25  27
ENDBRANCH  23  25
ENDBRANCH   1  23
TORSDOF 5
ENDMDL
MODEL 4
REMARK VINA RESULT:      -8.2      8.080     11.263
REMARK  Name = 
REMARK  5 active torsions:
REMARK  status: ('A' for Active; 'I' for Inactive)
REMARK    1  A    between atoms: S_2  and  N_4
REMARK    2  A    between atoms: S_2  and  C_27
REMARK    3  A    between atoms: N_4  and  C_5
REMARK    4  A    between atoms: C_14  and  N_15
REMARK    5  A    between atoms: C_18  and  C_19
REMARK                            x       y       z     vdW  Elec       q    Type
REMARK                         _______ _______ _______ _____ _____    ______ ____
ROOT
ATOM      1  C   UNL     1      -0.499  12.238  19.138  0.00  0.00    +0.000 A 
ATOM      2  N   UNL     1      -0.729  13.576  19.133  0.00  0.00    +0.000 NA
ATOM      3  C   UNL     1       0.302  14.393  18.892  0.00  0.00    +0.000 A 
ATOM      4  C   UNL     1       0.064  15.756  18.834  0.00  0.00    +0.000 A 
ATOM      5  C   UNL     1       1.106  16.656  18.643  0.00  0.00    +0.000 A 
ATOM      6  C   UNL     1       2.406  16.182  18.513  0.00  0.00    +0.000 A 
ATOM      7  C   UNL     1       2.644  14.804  18.542  0.00  0.00    +0.000 A 
ATOM      8  C   UNL     1       1.608  13.890  18.710  0.00  0.00    +0.000 A 
ATOM      9  N   UNL     1       1.858  12.560  18.706  0.00  0.00    +0.000 NA
ATOM     10  C   UNL     1       0.790  11.739  18.911  0.00  0.00    +0.000 A 
ENDROOT
BRANCH  10  11
ATOM     11  N   UNL     1       1.156  10.329  18.993  0.00  0.00    +0.000 N 
ATOM     12  C   UNL     1       1.024   9.608  20.128  0.00  0.00    +0.000 A 
ATOM     13  C   UNL     1       1.479   8.296  20.217  0.00  0.00    +0.000 A 
ATOM     14  C   UNL     1       2.106   7.670  19.139  0.00  0.00    +0.000 A 
ATOM     15  C   UNL     1       2.202   8.422  17.968  0.00  0.00    +0.000 A 
ATOM     16  C   UNL     1       1.722   9.738  17.912  0.00  0.00    +0.000 A 
BRANCH  14  17
ATOM     17  C   UNL     1       2.681   6.316  19.279  0.00  0.00    +0.000 A 
ATOM     18  C   UNL     1       2.179   5.394  20.210  0.00  0.00    +0.000 A 
ATOM     19  C   UNL     1       2.800   4.163  20.365  0.00  0.00    +0.000 A 
ATOM     20  N   UNL     1       3.872   3.773  19.652  0.00  0.00    +0.000 NA
ATOM     21  C   UNL     1       4.341   4.649  18.744  0.00  0.00    +0.000 A 
ATOM     22  C   UNL     1       3.796   5.907  18.528  0.00  0.00    +0.000 A 
ENDBRANCH  14  17
ENDBRANCH  10  11
BRANCH   1  23
ATOM     23  N   UNL     1      -1.612  11.533  19.377  0.00  0.00    +0.000 NA
BRANCH  23  25
ATOM     24  O   UNL     1      -2.141  11.709  16.860  0.00  0.00    +0.000 OA
ATOM     25  S   UNL     1      -2.459  11.041  18.120  0.00  0.00    +0.000 S 
ATOM     26  O   UNL     1      -2.531   9.586  18.013  0.00  0.00    +0.000 OA
BRANCH  25  27
ATOM     27  C   UNL     1      -4.150  11.539  18.498  0.00  0.00    +0.000 A 
ATOM     28  C   UNL     1      -5.188  11.135  17.658  0.00  0.00    +0.000 A 
ATOM     29  C   UNL     1      -6.468  11.655  17.857  0.00  0.00    +0.000 A 
ATOM     30  C   UNL     1      -6.701  12.564  18.892  0.00  0.00    +0.000 A 
ATOM     31  C   UNL     1      -5.660  12.948  19.739  0.00  0.00    +0.000 A 
ATOM     32  C   UNL     1      -4.378  12.434  19.548  0.00  0.00    +0.000 A 
ENDBRANCH  25  27
ENDBRANCH  23  25
ENDBRANCH   1  23
TORSDOF 5
ENDMDL
MODEL 5
REMARK VINA RESULT:      -8.1      1.905      5.142
REMARK  Name = 
REMARK  5 active torsions:
REMARK  status: ('A' for Active; 'I' for Inactive)
REMARK    1  A    between atoms: S_2  and  N_4
REMARK    2  A    between atoms: S_2  and  C_27
REMARK    3  A    between atoms: N_4  and  C_5
REMARK    4  A    between atoms: C_14  and  N_15
REMARK    5  A    between atoms: C_18  and  C_19
REMARK                            x       y       z     vdW  Elec       q    Type
REMARK                         _______ _______ _______ _____ _____    ______ ____
ROOT
ATOM      1  C   UNL     1       5.427   5.582  16.511  0.00  0.00    +0.000 A 
ATOM      2  N   UNL     1       4.939   4.694  15.607  0.00  0.00    +0.000 NA
ATOM      3  C   UNL     1       5.685   4.411  14.533  0.00  0.00    +0.000 A 
ATOM      4  C   UNL     1       5.217   3.469  13.634  0.00  0.00    +0.000 A 
ATOM      5  C   UNL     1       5.923   3.175  12.473  0.00  0.00    +0.000 A 
ATOM      6  C   UNL     1       7.113   3.842  12.208  0.00  0.00    +0.000 A 
ATOM      7  C   UNL     1       7.603   4.773  13.130  0.00  0.00    +0.000 A 
ATOM      8  C   UNL     1       6.919   5.060  14.307  0.00  0.00    +0.000 A 
ATOM      9  N   UNL     1       7.425   5.943  15.199  0.00  0.00    +0.000 NA
ATOM     10  C   UNL     1       6.672   6.190  16.308  0.00  0.00    +0.000 A 
ENDROOT
BRANCH  10  11
ATOM     11  N   UNL     1       7.237   7.224  17.167  0.00  0.00    +0.000 N 
ATOM     12  C   UNL     1       7.096   8.543  16.908  0.00  0.00    +0.000 A 
ATOM     13  C   UNL     1       7.731   9.511  17.678  0.00  0.00    +0.000 A 
ATOM     14  C   UNL     1       8.557   9.162  18.747  0.00  0.00    +0.000 A 
ATOM     15  C   UNL     1       8.662   7.797  19.017  0.00  0.00    +0.000 A 
ATOM     16  C   UNL     1       7.997   6.850  18.226  0.00  0.00    +0.000 A 
BRANCH  14  17
ATOM     17  C   UNL     1       9.313  10.192  19.490  0.00  0.00    +0.000 A 
ATOM     18  C   UNL     1       8.970  10.556  20.801  0.00  0.00    +0.000 A 
ATOM     19  C   UNL     1       9.654  11.585  21.432  0.00  0.00    +0.000 A 
ATOM     20  N   UNL     1      10.666  12.268  20.864  0.00  0.00    +0.000 NA
ATOM     21  C   UNL     1      11.008  11.904  19.614  0.00  0.00    +0.000 A 
ATOM     22  C   UNL     1      10.374  10.898  18.898  0.00  0.00    +0.000 A 
ENDBRANCH  14  17
ENDBRANCH  10  11
BRANCH   1  23
ATOM     23  N   UNL     1       4.592   5.766  17.542  0.00  0.00    +0.000 NA
BRANCH  23  25
ATOM     24  O   UNL     1       5.591   3.630  18.584  0.00  0.00    +0.000 OA
ATOM     25  S   UNL     1       4.755   4.808  18.805  0.00  0.00    +0.000 S 
ATOM     26  O   UNL     1       5.071   5.531  20.034  0.00  0.00    +0.000 OA
BRANCH  25  27
ATOM     27  C   UNL     1       3.098   4.158  19.090  0.00  0.00    +0.000 A 
ATOM     28  C   UNL     1       2.376   4.586  20.205  0.00  0.00    +0.000 A 
ATOM     29  C   UNL     1       1.165   3.962  20.513  0.00  0.00    +0.000 A 
ATOM     30  C   UNL     1       0.686   2.927  19.707  0.00  0.00    +0.000 A 
ATOM     31  C   UNL     1       1.407   2.519  18.582  0.00  0.00    +0.000 A 
ATOM     32  C   UNL     1       2.617   3.136  18.267  0.00  0.00    +0.000 A 
ENDBRANCH  25  27
ENDBRANCH  23  25
ENDBRANCH   1  23
TORSDOF 5
ENDMDL
MODEL 6
REMARK VINA RESULT:      -8.0      4.875      7.352
REMARK  Name = 
REMARK  5 active torsions:
REMARK  status: ('A' for Active; 'I' for Inactive)
REMARK    1  A    between atoms: S_2  and  N_4
REMARK    2  A    between atoms: S_2  and  C_27
REMARK    3  A    between atoms: N_4  and  C_5
REMARK    4  A    between atoms: C_14  and  N_15
REMARK    5  A    between atoms: C_18  and  C_19
REMARK                            x       y       z     vdW  Elec       q    Type
REMARK                         _______ _______ _______ _____ _____    ______ ____
ROOT
ATOM      1  C   UNL     1       2.604   5.122  17.688  0.00  0.00    +0.000 A 
ATOM      2  N   UNL     1       3.430   4.333  16.954  0.00  0.00    +0.000 NA
ATOM      3  C   UNL     1       4.704   4.714  16.812  0.00  0.00    +0.000 A 
ATOM      4  C   UNL     1       5.565   3.888  16.108  0.00  0.00    +0.000 A 
ATOM      5  C   UNL     1       6.885   4.259  15.881  0.00  0.00    +0.000 A 
ATOM      6  C   UNL     1       7.347   5.479  16.363  0.00  0.00    +0.000 A 
ATOM      7  C   UNL     1       6.487   6.300  17.100  0.00  0.00    +0.000 A 
ATOM      8  C   UNL     1       5.170   5.931  17.354  0.00  0.00    +0.000 A 
ATOM      9  N   UNL     1       4.364   6.729  18.093  0.00  0.00    +0.000 NA
ATOM     10  C   UNL     1       3.079   6.307  18.264  0.00  0.00    +0.000 A 
ENDROOT
BRANCH  10  11
ATOM     11  N   UNL     1       2.250   7.266  18.984  0.00  0.00    +0.000 N 
ATOM     12  C   UNL     1       1.809   8.413  18.423  0.00  0.00    +0.000 A 
ATOM     13  C   UNL     1       1.111   9.366  19.158  0.00  0.00    +0.000 A 
ATOM     14  C   UNL     1       0.847   9.184  20.516  0.00  0.00    +0.000 A 
ATOM     15  C   UNL     1       1.282   7.978  21.067  0.00  0.00    +0.000 A 
ATOM     16  C   UNL     1       1.972   7.036  20.292  0.00  0.00    +0.000 A 
BRANCH  14  17
ATOM     17  C   UNL     1       0.201  10.249  21.312  0.00  0.00    +0.000 A 
ATOM     18  C   UNL     1       0.372  11.607  21.003  0.00  0.00    +0.000 A 
ATOM     19  C   UNL     1      -0.186  12.576  21.824  0.00  0.00    +0.000 A 
ATOM     20  N   UNL     1      -0.917  12.297  22.919  0.00  0.00    +0.000 NA
ATOM     21  C   UNL     1      -1.099  10.993  23.203  0.00  0.00    +0.000 A 
ATOM     22  C   UNL     1      -0.569   9.955  22.450  0.00  0.00    +0.000 A 
ENDBRANCH  14  17
ENDBRANCH  10  11
BRANCH   1  23
ATOM     23  N   UNL     1       1.362   4.623  17.764  0.00  0.00    +0.000 NA
BRANCH  23  25
ATOM     24  O   UNL     1       0.728   4.177  20.223  0.00  0.00    +0.000 OA
ATOM     25  S   UNL     1       1.055   3.581  18.929  0.00  0.00    +0.000 S 
ATOM     26  O   UNL     1       0.136   2.521  18.521  0.00  0.00    +0.000 OA
BRANCH  25  27
ATOM     27  C   UNL     1       2.622   2.728  19.191  0.00  0.00    +0.000 A 
ATOM     28  C   UNL     1       2.983   1.680  18.343  0.00  0.00    +0.000 A 
ATOM     29  C   UNL     1       4.112   0.917  18.644  0.00  0.00    +0.000 A 
ATOM     30  C   UNL     1       4.871   1.209  19.780  0.00  0.00    +0.000 A 
ATOM     31  C   UNL     1       4.513   2.273  20.612  0.00  0.00    +0.000 A 
ATOM     32  C   UNL     1       3.387   3.040  20.319  0.00  0.00    +0.000 A 
ENDBRANCH  25  27
ENDBRANCH  23  25
ENDBRANCH   1  23
TORSDOF 5
ENDMDL
MODEL 7
REMARK VINA RESULT:      -8.0      4.573      7.246
REMARK  Name = 
REMARK  5 active torsions:
REMARK  status: ('A' for Active; 'I' for Inactive)
REMARK    1  A    between atoms: S_2  and  N_4
REMARK    2  A    between atoms: S_2  and  C_27
REMARK    3  A    between atoms: N_4  and  C_5
REMARK    4  A    between atoms: C_14  and  N_15
REMARK    5  A    between atoms: C_18  and  C_19
REMARK                            x       y       z     vdW  Elec       q    Type
REMARK                         _______ _______ _______ _____ _____    ______ ____
ROOT
ATOM      1  C   UNL     1       2.545   6.622  20.015  0.00  0.00    +0.000 A 
ATOM      2  N   UNL     1       1.753   7.276  20.902  0.00  0.00    +0.000 NA
ATOM      3  C   UNL     1       1.138   8.393  20.496  0.00  0.00    +0.000 A 
ATOM      4  C   UNL     1       0.289   9.037  21.380  0.00  0.00    +0.000 A 
ATOM      5  C   UNL     1      -0.333  10.230  21.032  0.00  0.00    +0.000 A 
ATOM      6  C   UNL     1      -0.096  10.788  19.780  0.00  0.00    +0.000 A 
ATOM      7  C   UNL     1       0.738  10.122  18.876  0.00  0.00    +0.000 A 
ATOM      8  C   UNL     1       1.350   8.916  19.202  0.00  0.00    +0.000 A 
ATOM      9  N   UNL     1       2.130   8.275  18.301  0.00  0.00    +0.000 NA
ATOM     10  C   UNL     1       2.717   7.118  18.716  0.00  0.00    +0.000 A 
ENDROOT
BRANCH  10  11
ATOM     11  N   UNL     1       3.619   6.542  17.725  0.00  0.00    +0.000 N 
ATOM     12  C   UNL     1       4.489   7.290  17.012  0.00  0.00    +0.000 A 
ATOM     13  C   UNL     1       5.264   6.741  15.995  0.00  0.00    +0.000 A 
ATOM     14  C   UNL     1       5.165   5.390  15.657  0.00  0.00    +0.000 A 
ATOM     15  C   UNL     1       4.285   4.630  16.427  0.00  0.00    +0.000 A 
ATOM     16  C   UNL     1       3.529   5.217  17.452  0.00  0.00    +0.000 A 
BRANCH  14  17
ATOM     17  C   UNL     1       5.912   4.841  14.506  0.00  0.00    +0.000 A 
ATOM     18  C   UNL     1       7.183   5.319  14.156  0.00  0.00    +0.000 A 
ATOM     19  C   UNL     1       7.814   4.833  13.020  0.00  0.00    +0.000 A 
ATOM     20  N   UNL     1       7.284   3.893  12.216  0.00  0.00    +0.000 NA
ATOM     21  C   UNL     1       6.073   3.419  12.564  0.00  0.00    +0.000 A 
ATOM     22  C   UNL     1       5.360   3.854  13.672  0.00  0.00    +0.000 A 
ENDBRANCH  14  17
ENDBRANCH  10  11
BRANCH   1  23
ATOM     23  N   UNL     1       3.089   5.516  20.541  0.00  0.00    +0.000 NA
BRANCH  23  25
ATOM     24  O   UNL     1       2.210   3.787  22.239  0.00  0.00    +0.000 OA
ATOM     25  S   UNL     1       2.116   4.300  20.874  0.00  0.00    +0.000 S 
ATOM     26  O   UNL     1       0.744   4.526  20.424  0.00  0.00    +0.000 OA
BRANCH  25  27
ATOM     27  C   UNL     1       2.706   2.955  19.828  0.00  0.00    +0.000 A 
ATOM     28  C   UNL     1       3.969   2.409  20.061  0.00  0.00    +0.000 A 
ATOM     29  C   UNL     1       4.490   1.485  19.154  0.00  0.00    +0.000 A 
ATOM     30  C   UNL     1       3.748   1.112  18.030  0.00  0.00    +0.000 A 
ATOM     31  C   UNL     1       2.477   1.650  17.816  0.00  0.00    +0.000 A 
ATOM     32  C   UNL     1       1.949   2.573  18.717  0.00  0.00    +0.000 A 
ENDBRANCH  25  27
ENDBRANCH  23  25
ENDBRANCH   1  23
TORSDOF 5
ENDMDL
MODEL 8
REMARK VINA RESULT:      -7.9      1.908      5.158
REMARK  Name = 
REMARK  5 active torsions:
REMARK  status: ('A' for Active; 'I' for Inactive)
REMARK    1  A    between atoms: S_2  and  N_4
REMARK    2  A    between atoms: S_2  and  C_27
REMARK    3  A    between atoms: N_4  and  C_5
REMARK    4  A    between atoms: C_14  and  N_15
REMARK    5  A    between atoms: C_18  and  C_19
REMARK                            x       y       z     vdW  Elec       q    Type
REMARK                         _______ _______ _______ _____ _____    ______ ____
ROOT
ATOM      1  C   UNL     1       5.476   5.510  16.545  0.00  0.00    +0.000 A 
ATOM      2  N   UNL     1       4.997   4.608  15.651  0.00  0.00    +0.000 NA
ATOM      3  C   UNL     1       5.722   4.359  14.555  0.00  0.00    +0.000 A 
ATOM      4  C   UNL     1       5.264   3.403  13.664  0.00  0.00    +0.000 A 
ATOM      5  C   UNL     1       5.947   3.142  12.482  0.00  0.00    +0.000 A 
ATOM      6  C   UNL     1       7.102   3.856  12.186  0.00  0.00    +0.000 A 
ATOM      7  C   UNL     1       7.582   4.801  13.099  0.00  0.00    +0.000 A 
ATOM      8  C   UNL     1       6.922   5.056  14.297  0.00  0.00    +0.000 A 
ATOM      9  N   UNL     1       7.419   5.955  15.178  0.00  0.00    +0.000 NA
ATOM     10  C   UNL     1       6.690   6.167  16.309  0.00  0.00    +0.000 A 
ENDROOT
BRANCH  10  11
ATOM     11  N   UNL     1       7.239   7.218  17.158  0.00  0.00    +0.000 N 
ATOM     12  C   UNL     1       7.077   8.532  16.886  0.00  0.00    +0.000 A 
ATOM     13  C   UNL     1       7.698   9.518  17.645  0.00  0.00    +0.000 A 
ATOM     14  C   UNL     1       8.530   9.192  18.717  0.00  0.00    +0.000 A 
ATOM     15  C   UNL     1       8.657   7.833  19.001  0.00  0.00    +0.000 A 
ATOM     16  C   UNL     1       8.006   6.867  18.220  0.00  0.00    +0.000 A 
BRANCH  14  17
ATOM     17  C   UNL     1       9.270  10.242  19.448  0.00  0.00    +0.000 A 
ATOM     18  C   UNL     1      10.344  10.930  18.864  0.00  0.00    +0.000 A 
ATOM     19  C   UNL     1      11.062  11.851  19.613  0.00  0.00    +0.000 A 
ATOM     20  N   UNL     1      10.782  12.152  20.895  0.00  0.00    +0.000 NA
ATOM     21  C   UNL     1       9.738  11.507  21.448  0.00  0.00    +0.000 A 
ATOM     22  C   UNL     1       8.970  10.562  20.784  0.00  0.00    +0.000 A 
ENDBRANCH  14  17
ENDBRANCH  10  11
BRANCH   1  23
ATOM     23  N   UNL     1       4.665   5.657  17.601  0.00  0.00    +0.000 NA
BRANCH  23  25
ATOM     24  O   UNL     1       5.845   3.618  18.649  0.00  0.00    +0.000 OA
ATOM     25  S   UNL     1       4.939   4.742  18.876  0.00  0.00    +0.000 S 
ATOM     26  O   UNL     1       5.249   5.513  20.078  0.00  0.00    +0.000 OA
BRANCH  25  27
ATOM     27  C   UNL     1       3.341   3.987  19.237  0.00  0.00    +0.000 A 
ATOM     28  C   UNL     1       2.850   2.988  18.397  0.00  0.00    +0.000 A 
ATOM     29  C   UNL     1       1.547   2.522  18.582  0.00  0.00    +0.000 A 
ATOM     30  C   UNL     1       0.752   3.052  19.601  0.00  0.00    +0.000 A 
ATOM     31  C   UNL     1       1.260   4.039  20.449  0.00  0.00    +0.000 A 
ATOM     32  C   UNL     1       2.560   4.510  20.272  0.00  0.00    +0.000 A 
ENDBRANCH  25  27
ENDBRANCH  23  25
ENDBRANCH   1  23
TORSDOF 5
ENDMDL
MODEL 9
REMARK VINA RESULT:      -7.9      8.271     10.959
REMARK  Name = 
REMARK  5 active torsions:
REMARK  status: ('A' for Active; 'I' for Inactive)
REMARK    1  A    between atoms: S_2  and  N_4
REMARK    2  A    between atoms: S_2  and  C_27
REMARK    3  A    between atoms: N_4  and  C_5
REMARK    4  A    between atoms: C_14  and  N_15
REMARK    5  A    between atoms: C_18  and  C_19
REMARK                            x       y       z     vdW  Elec       q    Type
REMARK                         _______ _______ _______ _____ _____    ______ ____
ROOT
ATOM      1  C   UNL     1      -1.345  11.089  19.576  0.00  0.00    +0.000 A 
ATOM      2  N   UNL     1      -2.089  12.101  20.090  0.00  0.00    +0.000 NA
ATOM      3  C   UNL     1      -1.462  13.055  20.789  0.00  0.00    +0.000 A 
ATOM      4  C   UNL     1      -2.206  14.117  21.272  0.00  0.00    +0.000 A 
ATOM      5  C   UNL     1      -1.618  15.107  22.051  0.00  0.00    +0.000 A 
ATOM      6  C   UNL     1      -0.264  15.026  22.354  0.00  0.00    +0.000 A 
ATOM      7  C   UNL     1       0.496  13.969  21.841  0.00  0.00    +0.000 A 
ATOM      8  C   UNL     1      -0.074  12.984  21.042  0.00  0.00    +0.000 A 
ATOM      9  N   UNL     1       0.686  11.986  20.533  0.00  0.00    +0.000 NA
ATOM     10  C   UNL     1       0.039  11.045  19.790  0.00  0.00    +0.000 A 
ENDROOT
BRANCH  10  11
ATOM     11  N   UNL     1       0.906   9.953  19.363  0.00  0.00    +0.000 N 
ATOM     12  C   UNL     1       1.414   9.873  18.113  0.00  0.00    +0.000 A 
ATOM     13  C   UNL     1       2.149   8.770  17.692  0.00  0.00    +0.000 A 
ATOM     14  C   UNL     1       2.384   7.687  18.540  0.00  0.00    +0.000 A 
ATOM     15  C   UNL     1       1.879   7.805  19.835  0.00  0.00    +0.000 A 
ATOM     16  C   UNL     1       1.152   8.938  20.228  0.00  0.00    +0.000 A 
BRANCH  14  17
ATOM     17  C   UNL     1       3.072   6.475  18.050  0.00  0.00    +0.000 A 
ATOM     18  C   UNL     1       4.350   6.536  17.472  0.00  0.00    +0.000 A 
ATOM     19  C   UNL     1       4.926   5.386  16.950  0.00  0.00    +0.000 A 
ATOM     20  N   UNL     1       4.335   4.177  16.976  0.00  0.00    +0.000 NA
ATOM     21  C   UNL     1       3.118   4.116  17.549  0.00  0.00    +0.000 A 
ATOM     22  C   UNL     1       2.457   5.212  18.085  0.00  0.00    +0.000 A 
ENDBRANCH  14  17
ENDBRANCH  10  11
BRANCH   1  23
ATOM     23  N   UNL     1      -2.089  10.211  18.890  0.00  0.00    +0.000 NA
BRANCH  23  25
ATOM     24  O   UNL     1      -1.975  11.868  16.918  0.00  0.00    +0.000 OA
ATOM     25  S   UNL     1      -2.552  10.624  17.423  0.00  0.00    +0.000 S 
ATOM     26  O   UNL     1      -2.490   9.518  16.470  0.00  0.00    +0.000 OA
BRANCH  25  27
ATOM     27  C   UNL     1      -4.316  10.963  17.589  0.00  0.00    +0.000 A 
ATOM     28  C   UNL     1      -4.872  12.050  16.914  0.00  0.00    +0.000 A 
ATOM     29  C   UNL     1      -6.197  12.407  17.173  0.00  0.00    +0.000 A 
ATOM     30  C   UNL     1      -6.952  11.676  18.094  0.00  0.00    +0.000 A 
ATOM     31  C   UNL     1      -6.391  10.578  18.750  0.00  0.00    +0.000 A 
ATOM     32  C   UNL     1      -5.069  10.215  18.498  0.00  0.00    +0.000 A 
ENDBRANCH  25  27
ENDBRANCH  23  25
ENDBRANCH   1  23
TORSDOF 5
ENDMDL
