MODEL 1
REMARK VINA RESULT:      -8.2      0.000      0.000
REMARK  Name = 
REMARK  9 active torsions:
REMARK  status: ('A' for Active; 'I' for Inactive)
REMARK    1  A    between atoms: C_2  and  O_20
REMARK    2  A    between atoms: N_3  and  C_4
REMARK    3  A    between atoms: C_8  and  C_9
REMARK    4  A    between atoms: C_11  and  O_12
REMARK    5  A    between atoms: C_13  and  O_14
REMARK    6  A    between atoms: C_15  and  C_16
REMARK    7  A    between atoms: C_16  and  O_18
REMARK    8  A    between atoms: O_20  and  C_21
REMARK    9  A    between atoms: C_21  and  C_22
REMARK                            x       y       z     vdW  Elec       q    Type
REMARK                         _______ _______ _______ _____ _____    ______ ____
ROOT
ATOM      1  C   UNK A   0       3.235   4.855  20.009  0.00  0.00    +0.000 A 
ATOM      2  C   UNK A   0       2.486   4.067  20.938  0.00  0.00    +0.000 A 
ATOM      3  C   UNK A   0       2.859   2.744  20.937  0.00  0.00    +0.000 A 
ATOM      4  S   UNK A   0       4.096   2.435  19.810  0.00  0.00    +0.000 S 
ATOM      5  C   UNK A   0       4.158   4.083  19.304  0.00  0.00    +0.000 A 
ENDROOT
BRANCH   5   6
ATOM      6  C   UNK A   0       5.126   4.494  18.274  0.00  0.00    +0.000 A 
ATOM      7  N   UNK A   1       5.137   3.761  17.142  0.00  0.00    +0.000 NA
ATOM      8  C   UNK A   1       6.005   4.172  16.213  0.00  0.00    +0.000 A 
ATOM      9  C   UNK A   1       6.864   5.238  16.316  0.00  0.00    +0.000 A 
ATOM     10  C   UNK A   1       6.770   5.915  17.511  0.00  0.00    +0.000 A 
ATOM     11  N   UNK A   1       5.906   5.566  18.512  0.00  0.00    +0.000 NA
BRANCH   8  12
ATOM     12  O   UNK A   1       6.001   3.438  15.063  0.00  0.00    +0.000 OA
ATOM     13  H   UNK A   1       5.098   3.583  14.724  0.00  0.00    +0.000 HD
ENDBRANCH   8  12
BRANCH   9  14
ATOM     14  O   UNK A   1       7.700   5.560  15.299  0.00  0.00    +0.000 OA
ATOM     15  H   UNK A   1       8.265   6.296  15.609  0.00  0.00    +0.000 HD
ENDBRANCH   9  14
BRANCH  10  16
ATOM     16  C   UNK A   1       7.611   7.114  17.824  0.00  0.00    +0.000 C 
ATOM     17  O   UNK A   1       7.699   8.137  17.173  0.00  0.00    +0.000 OA
BRANCH  16  18
ATOM     18  O   UNK A   1       8.296   6.915  18.981  0.00  0.00    +0.000 OA
ATOM     19  H   UNK A   1       8.297   7.743  19.516  0.00  0.00    +0.000 HD
ENDBRANCH  16  18
ENDBRANCH  10  16
ENDBRANCH   5   6
BRANCH   1  22
ATOM     20  O   UNK A   0       1.980   6.279  17.760  0.00  0.00    +0.000 OA
ATOM     21  C   UNK A   0       2.518   6.829  18.710  0.00  0.00    +0.000 C 
ATOM     22  N   UNK A   0       3.095   6.224  19.791  0.00  0.00    +0.000 N 
ATOM     23  H   UNK A   0       3.429   6.841  20.523  0.00  0.00    +0.000 HD
BRANCH  21  24
ATOM     24  O   UNK A   0       2.639   8.177  18.846  0.00  0.00    +0.000 OA
BRANCH  24  25
ATOM     25  C   UNK A   0       1.438   8.934  18.631  0.00  0.00    +0.000 C 
BRANCH  25  26
ATOM     26  C   UNK A   0       0.908   9.503  19.923  0.00  0.00    +0.000 A 
ATOM     27  C   UNK A   0       0.609   8.622  20.979  0.00  0.00    +0.000 A 
ATOM     28  C   UNK A   0       0.063   9.093  22.176  0.00  0.00    +0.000 A 
ATOM     29  C   UNK A   0      -0.186  10.452  22.341  0.00  0.00    +0.000 A 
ATOM     30  C   UNK A   0       0.124  11.343  21.314  0.00  0.00    +0.000 A 
ATOM     31  C   UNK A   0       0.675  10.874  20.115  0.00  0.00    +0.000 A 
ATOM     32 CL   UNK A   0       1.036  12.042  18.894  0.00  0.00    +0.000 Cl
ENDBRANCH  25  26
ENDBRANCH  24  25
ENDBRANCH  21  24
ENDBRANCH   1  22
TORSDOF 9
ENDMDL
MODEL 2
REMARK VINA RESULT:      -8.2      1.270      2.161
REMARK  Name = 
REMARK  9 active torsions:
REMARK  status: ('A' for Active; 'I' for Inactive)
REMARK    1  A    between atoms: C_2  and  O_20
REMARK    2  A    between atoms: N_3  and  C_4
REMARK    3  A    between atoms: C_8  and  C_9
REMARK    4  A    between atoms: C_11  and  O_12
REMARK    5  A    between atoms: C_13  and  O_14
REMARK    6  A    between atoms: C_15  and  C_16
REMARK    7  A    between atoms: C_16  and  O_18
REMARK    8  A    between atoms: O_20  and  C_21
REMARK    9  A    between atoms: C_21  and  C_22
REMARK                            x       y       z     vdW  Elec       q    Type
REMARK                         _______ _______ _______ _____ _____    ______ ____
ROOT
ATOM      1  C   UNK A   0       2.356   4.417  19.963  0.00  0.00    +0.000 A 
ATOM      2  C   UNK A   0       1.382   3.397  20.193  0.00  0.00    +0.000 A 
ATOM      3  C   UNK A   0       1.771   2.170  19.709  0.00  0.00    +0.000 A 
ATOM      4  S   UNK A   0       3.298   2.238  18.964  0.00  0.00    +0.000 S 
ATOM      5  C   UNK A   0       3.469   3.925  19.282  0.00  0.00    +0.000 A 
ENDROOT
BRANCH   5   6
ATOM      6  C   UNK A   0       4.693   4.627  18.861  0.00  0.00    +0.000 A 
ATOM      7  N   UNK A   1       5.638   4.796  19.808  0.00  0.00    +0.000 NA
ATOM      8  C   UNK A   1       6.749   5.411  19.392  0.00  0.00    +0.000 A 
ATOM      9  C   UNK A   1       6.995   5.879  18.125  0.00  0.00    +0.000 A 
ATOM     10  C   UNK A   1       5.965   5.656  17.240  0.00  0.00    +0.000 A 
ATOM     11  N   UNK A   1       4.798   5.028  17.580  0.00  0.00    +0.000 NA
BRANCH   8  12
ATOM     12  O   UNK A   1       7.709   5.564  20.349  0.00  0.00    +0.000 OA
ATOM     13  H   UNK A   1       7.687   4.704  20.809  0.00  0.00    +0.000 HD
ENDBRANCH   8  12
BRANCH   9  14
ATOM     14  O   UNK A   1       8.167   6.487  17.823  0.00  0.00    +0.000 OA
ATOM     15  H   UNK A   1       8.870   6.033  18.330  0.00  0.00    +0.000 HD
ENDBRANCH   9  14
BRANCH  10  16
ATOM     16  C   UNK A   1       6.033   6.078  15.805  0.00  0.00    +0.000 C 
ATOM     17  O   UNK A   1       5.195   6.705  15.185  0.00  0.00    +0.000 OA
BRANCH  16  18
ATOM     18  O   UNK A   1       7.201   5.661  15.250  0.00  0.00    +0.000 OA
ATOM     19  H   UNK A   1       7.954   6.167  15.636  0.00  0.00    +0.000 HD
ENDBRANCH  16  18
ENDBRANCH  10  16
ENDBRANCH   5   6
BRANCH   1  22
ATOM     20  O   UNK A   0       2.066   6.829  18.302  0.00  0.00    +0.000 OA
ATOM     21  C   UNK A   0       2.142   6.838  19.521  0.00  0.00    +0.000 C 
ATOM     22  N   UNK A   0       2.254   5.753  20.346  0.00  0.00    +0.000 N 
ATOM     23  H   UNK A   0       2.231   5.944  21.341  0.00  0.00    +0.000 HD
BRANCH  21  24
ATOM     24  O   UNK A   0       2.134   7.966  20.281  0.00  0.00    +0.000 OA
BRANCH  24  25
ATOM     25  C   UNK A   0       1.298   9.032  19.803  0.00  0.00    +0.000 C 
BRANCH  25  26
ATOM     26  C   UNK A   0       0.544   9.688  20.933  0.00  0.00    +0.000 A 
ATOM     27  C   UNK A   0       0.424   9.001  22.155  0.00  0.00    +0.000 A 
ATOM     28  C   UNK A   0      -0.313   9.541  23.213  0.00  0.00    +0.000 A 
ATOM     29  C   UNK A   0      -0.932  10.779  23.071  0.00  0.00    +0.000 A 
ATOM     30  C   UNK A   0      -0.805  11.483  21.874  0.00  0.00    +0.000 A 
ATOM     31  C   UNK A   0      -0.065  10.947  20.814  0.00  0.00    +0.000 A 
ATOM     32 CL   UNK A   0       0.049  11.885  19.367  0.00  0.00    +0.000 Cl
ENDBRANCH  25  26
ENDBRANCH  24  25
ENDBRANCH  21  24
ENDBRANCH   1  22
TORSDOF 9
ENDMDL
MODEL 3
REMARK VINA RESULT:      -8.1      1.661      2.035
REMARK  Name = 
REMARK  9 active torsions:
REMARK  status: ('A' for Active; 'I' for Inactive)
REMARK    1  A    between atoms: C_2  and  O_20
REMARK    2  A    between atoms: N_3  and  C_4
REMARK    3  A    between atoms: C_8  and  C_9
REMARK    4  A    between atoms: C_11  and  O_12
REMARK    5  A    between atoms: C_13  and  O_14
REMARK    6  A    between atoms: C_15  and  C_16
REMARK    7  A    between atoms: C_16  and  O_18
REMARK    8  A    between atoms: O_20  and  C_21
REMARK    9  A    between atoms: C_21  and  C_22
REMARK                            x       y       z     vdW  Elec       q    Type
REMARK                         _______ _______ _______ _____ _____    ______ ____
ROOT
ATOM      1  C   UNK A   0       2.387   4.024  18.150  0.00  0.00    +0.000 A 
ATOM      2  C   UNK A   0       1.519   3.141  18.866  0.00  0.00    +0.000 A 
ATOM      3  C   UNK A   0       2.065   1.893  19.050  0.00  0.00    +0.000 A 
ATOM      4  S   UNK A   0       3.611   1.768  18.352  0.00  0.00    +0.000 S 
ATOM      5  C   UNK A   0       3.580   3.398  17.791  0.00  0.00    +0.000 A 
ENDROOT
BRANCH   5   6
ATOM      6  C   UNK A   0       4.739   3.943  17.063  0.00  0.00    +0.000 A 
ATOM      7  N   UNK A   1       4.961   3.436  15.834  0.00  0.00    +0.000 NA
ATOM      8  C   UNK A   1       6.002   3.967  15.186  0.00  0.00    +0.000 A 
ATOM      9  C   UNK A   1       6.840   4.947  15.657  0.00  0.00    +0.000 A 
ATOM     10  C   UNK A   1       6.523   5.391  16.920  0.00  0.00    +0.000 A 
ATOM     11  N   UNK A   1       5.473   4.907  17.650  0.00  0.00    +0.000 NA
BRANCH   8  12
ATOM     12  O   UNK A   1       6.213   3.464  13.936  0.00  0.00    +0.000 OA
ATOM     13  H   UNK A   1       5.526   3.913  13.408  0.00  0.00    +0.000 HD
ENDBRANCH   8  12
BRANCH   9  14
ATOM     14  O   UNK A   1       7.865   5.408  14.900  0.00  0.00    +0.000 OA
ATOM     15  H   UNK A   1       8.134   4.684  14.300  0.00  0.00    +0.000 HD
ENDBRANCH   9  14
BRANCH  10  16
ATOM     16  C   UNK A   1       7.305   6.463  17.615  0.00  0.00    +0.000 C 
ATOM     17  O   UNK A   1       7.821   6.397  18.715  0.00  0.00    +0.000 OA
BRANCH  16  18
ATOM     18  O   UNK A   1       7.376   7.571  16.832  0.00  0.00    +0.000 OA
ATOM     19  H   UNK A   1       8.230   8.039  16.992  0.00  0.00    +0.000 HD
ENDBRANCH  16  18
ENDBRANCH  10  16
ENDBRANCH   5   6
BRANCH   1  22
ATOM     20  O   UNK A   0       3.009   6.487  19.635  0.00  0.00    +0.000 OA
ATOM     21  C   UNK A   0       2.416   6.459  18.568  0.00  0.00    +0.000 C 
ATOM     22  N   UNK A   0       2.119   5.352  17.822  0.00  0.00    +0.000 N 
ATOM     23  H   UNK A   0       1.685   5.523  16.922  0.00  0.00    +0.000 HD
BRANCH  21  24
ATOM     24  O   UNK A   0       1.933   7.558  17.930  0.00  0.00    +0.000 OA
BRANCH  24  25
ATOM     25  C   UNK A   0       2.244   8.820  18.542  0.00  0.00    +0.000 C 
BRANCH  25  26
ATOM     26  C   UNK A   0       0.995   9.536  18.990  0.00  0.00    +0.000 A 
ATOM     27  C   UNK A   0       0.205  10.188  18.024  0.00  0.00    +0.000 A 
ATOM     28  C   UNK A   0      -0.930  10.914  18.395  0.00  0.00    +0.000 A 
ATOM     29  C   UNK A   0      -1.301  10.992  19.734  0.00  0.00    +0.000 A 
ATOM     30  C   UNK A   0      -0.542  10.335  20.702  0.00  0.00    +0.000 A 
ATOM     31  C   UNK A   0       0.593   9.605  20.333  0.00  0.00    +0.000 A 
ATOM     32 CL   UNK A   0       1.475   8.814  21.592  0.00  0.00    +0.000 Cl
ENDBRANCH  25  26
ENDBRANCH  24  25
ENDBRANCH  21  24
ENDBRANCH   1  22
TORSDOF 9
ENDMDL
MODEL 4
REMARK VINA RESULT:      -8.1      1.732      2.028
REMARK  Name = 
REMARK  9 active torsions:
REMARK  status: ('A' for Active; 'I' for Inactive)
REMARK    1  A    between atoms: C_2  and  O_20
REMARK    2  A    between atoms: N_3  and  C_4
REMARK    3  A    between atoms: C_8  and  C_9
REMARK    4  A    between atoms: C_11  and  O_12
REMARK    5  A    between atoms: C_13  and  O_14
REMARK    6  A    between atoms: C_15  and  C_16
REMARK    7  A    between atoms: C_16  and  O_18
REMARK    8  A    between atoms: O_20  and  C_21
REMARK    9  A    between atoms: C_21  and  C_22
REMARK                            x       y       z     vdW  Elec       q    Type
REMARK                         _______ _______ _______ _____ _____    ______ ____
ROOT
ATOM      1  C   UNK A   0       2.132   4.952  19.464  0.00  0.00    +0.000 A 
ATOM      2  C   UNK A   0       1.114   4.465  20.342  0.00  0.00    +0.000 A 
ATOM      3  C   UNK A   0       1.491   3.328  21.016  0.00  0.00    +0.000 A 
ATOM      4  S   UNK A   0       3.059   2.827  20.587  0.00  0.00    +0.000 S 
ATOM      5  C   UNK A   0       3.266   4.139  19.487  0.00  0.00    +0.000 A 
ENDROOT
BRANCH   5   6
ATOM      6  C   UNK A   0       4.533   4.282  18.750  0.00  0.00    +0.000 A 
ATOM      7  N   UNK A   1       4.593   3.678  17.547  0.00  0.00    +0.000 NA
ATOM      8  C   UNK A   1       5.743   3.847  16.888  0.00  0.00    +0.000 A 
ATOM      9  C   UNK A   1       6.836   4.553  17.327  0.00  0.00    +0.000 A 
ATOM     10  C   UNK A   1       6.667   5.127  18.566  0.00  0.00    +0.000 A 
ATOM     11  N   UNK A   1       5.521   5.010  19.304  0.00  0.00    +0.000 NA
BRANCH   8  12
ATOM     12  O   UNK A   1       5.793   3.249  15.663  0.00  0.00    +0.000 OA
ATOM     13  H   UNK A   1       5.189   3.802  15.134  0.00  0.00    +0.000 HD
ENDBRANCH   8  12
BRANCH   9  14
ATOM     14  O   UNK A   1       7.951   4.656  16.563  0.00  0.00    +0.000 OA
ATOM     15  H   UNK A   1       8.721   4.581  17.162  0.00  0.00    +0.000 HD
ENDBRANCH   9  14
BRANCH  10  16
ATOM     16  C   UNK A   1       7.733   5.947  19.224  0.00  0.00    +0.000 C 
ATOM     17  O   UNK A   1       8.302   6.917  18.760  0.00  0.00    +0.000 OA
BRANCH  16  18
ATOM     18  O   UNK A   1       8.001   5.459  20.464  0.00  0.00    +0.000 OA
ATOM     19  H   UNK A   1       7.717   4.516  20.520  0.00  0.00    +0.000 HD
ENDBRANCH  16  18
ENDBRANCH  10  16
ENDBRANCH   5   6
BRANCH   1  22
ATOM     20  O   UNK A   0       2.115   7.794  20.226  0.00  0.00    +0.000 OA
ATOM     21  C   UNK A   0       2.026   7.389  19.076  0.00  0.00    +0.000 C 
ATOM     22  N   UNK A   0       2.051   6.087  18.660  0.00  0.00    +0.000 N 
ATOM     23  H   UNK A   0       2.039   5.938  17.657  0.00  0.00    +0.000 HD
BRANCH  21  24
ATOM     24  O   UNK A   0       1.876   8.193  17.990  0.00  0.00    +0.000 OA
BRANCH  24  25
ATOM     25  C   UNK A   0       2.032   9.600  18.231  0.00  0.00    +0.000 C 
BRANCH  25  26
ATOM     26  C   UNK A   0       0.698  10.300  18.288  0.00  0.00    +0.000 A 
ATOM     27  C   UNK A   0      -0.437   9.635  17.788  0.00  0.00    +0.000 A 
ATOM     28  C   UNK A   0      -1.686  10.262  17.766  0.00  0.00    +0.000 A 
ATOM     29  C   UNK A   0      -1.823  11.558  18.251  0.00  0.00    +0.000 A 
ATOM     30  C   UNK A   0      -0.714  12.225  18.770  0.00  0.00    +0.000 A 
ATOM     31  C   UNK A   0       0.537  11.598  18.797  0.00  0.00    +0.000 A 
ATOM     32 CL   UNK A   0       1.861  12.489  19.461  0.00  0.00    +0.000 Cl
ENDBRANCH  25  26
ENDBRANCH  24  25
ENDBRANCH  21  24
ENDBRANCH   1  22
TORSDOF 9
ENDMDL
MODEL 5
REMARK VINA RESULT:      -8.0      1.809      2.124
REMARK  Name = 
REMARK  9 active torsions:
REMARK  status: ('A' for Active; 'I' for Inactive)
REMARK    1  A    between atoms: C_2  and  O_20
REMARK    2  A    between atoms: N_3  and  C_4
REMARK    3  A    between atoms: C_8  and  C_9
REMARK    4  A    between atoms: C_11  and  O_12
REMARK    5  A    between atoms: C_13  and  O_14
REMARK    6  A    between atoms: C_15  and  C_16
REMARK    7  A    between atoms: C_16  and  O_18
REMARK    8  A    between atoms: O_20  and  C_21
REMARK    9  A    between atoms: C_21  and  C_22
REMARK                            x       y       z     vdW  Elec       q    Type
REMARK                         _______ _______ _______ _____ _____    ______ ____
ROOT
ATOM      1  C   UNK A   0       2.173   4.188  18.781  0.00  0.00    +0.000 A 
ATOM      2  C   UNK A   0       1.193   3.224  19.173  0.00  0.00    +0.000 A 
ATOM      3  C   UNK A   0       1.529   1.943  18.804  0.00  0.00    +0.000 A 
ATOM      4  S   UNK A   0       3.012   1.891  17.972  0.00  0.00    +0.000 S 
ATOM      5  C   UNK A   0       3.235   3.597  18.097  0.00  0.00    +0.000 A 
ENDROOT
BRANCH   5   6
ATOM      6  C   UNK A   0       4.446   4.218  17.535  0.00  0.00    +0.000 A 
ATOM      7  N   UNK A   1       4.568   4.177  16.193  0.00  0.00    +0.000 NA
ATOM      8  C   UNK A   1       5.662   4.772  15.708  0.00  0.00    +0.000 A 
ATOM      9  C   UNK A   1       6.644   5.392  16.441  0.00  0.00    +0.000 A 
ATOM     10  C   UNK A   1       6.420   5.374  17.799  0.00  0.00    +0.000 A 
ATOM     11  N   UNK A   1       5.325   4.794  18.377  0.00  0.00    +0.000 NA
BRANCH   8  12
ATOM     12  O   UNK A   1       5.773   4.744  14.349  0.00  0.00    +0.000 OA
ATOM     13  H   UNK A   1       6.389   4.001  14.204  0.00  0.00    +0.000 HD
ENDBRANCH   8  12
BRANCH   9  14
ATOM     14  O   UNK A   1       7.710   5.964  15.832  0.00  0.00    +0.000 OA
ATOM     15  H   UNK A   1       8.335   6.236  16.534  0.00  0.00    +0.000 HD
ENDBRANCH   9  14
BRANCH  10  16
ATOM     16  C   UNK A   1       7.363   6.003  18.777  0.00  0.00    +0.000 C 
ATOM     17  O   UNK A   1       8.107   6.944  18.576  0.00  0.00    +0.000 OA
BRANCH  16  18
ATOM     18  O   UNK A   1       7.284   5.370  19.977  0.00  0.00    +0.000 OA
ATOM     19  H   UNK A   1       6.373   5.458  20.342  0.00  0.00    +0.000 HD
ENDBRANCH  16  18
ENDBRANCH  10  16
ENDBRANCH   5   6
BRANCH   1  22
ATOM     20  O   UNK A   0       2.060   5.641  21.338  0.00  0.00    +0.000 OA
ATOM     21  C   UNK A   0       2.046   6.177  20.240  0.00  0.00    +0.000 C 
ATOM     22  N   UNK A   0       2.120   5.559  19.022  0.00  0.00    +0.000 N 
ATOM     23  H   UNK A   0       2.170   6.169  18.214  0.00  0.00    +0.000 HD
BRANCH  21  24
ATOM     24  O   UNK A   0       1.947   7.519  20.044  0.00  0.00    +0.000 OA
BRANCH  24  25
ATOM     25  C   UNK A   0       1.339   8.261  21.113  0.00  0.00    +0.000 C 
BRANCH  25  26
ATOM     26  C   UNK A   0       0.533   9.423  20.588  0.00  0.00    +0.000 A 
ATOM     27  C   UNK A   0       0.601   9.728  19.216  0.00  0.00    +0.000 A 
ATOM     28  C   UNK A   0      -0.081  10.829  18.690  0.00  0.00    +0.000 A 
ATOM     29  C   UNK A   0      -0.850  11.636  19.524  0.00  0.00    +0.000 A 
ATOM     30  C   UNK A   0      -0.946  11.335  20.882  0.00  0.00    +0.000 A 
ATOM     31  C   UNK A   0      -0.267  10.231  21.410  0.00  0.00    +0.000 A 
ATOM     32 CL   UNK A   0      -0.443   9.923  23.102  0.00  0.00    +0.000 Cl
ENDBRANCH  25  26
ENDBRANCH  24  25
ENDBRANCH  21  24
ENDBRANCH   1  22
TORSDOF 9
ENDMDL
MODEL 6
REMARK VINA RESULT:      -8.0      1.556      1.992
REMARK  Name = 
REMARK  9 active torsions:
REMARK  status: ('A' for Active; 'I' for Inactive)
REMARK    1  A    between atoms: C_2  and  O_20
REMARK    2  A    between atoms: N_3  and  C_4
REMARK    3  A    between atoms: C_8  and  C_9
REMARK    4  A    between atoms: C_11  and  O_12
REMARK    5  A    between atoms: C_13  and  O_14
REMARK    6  A    between atoms: C_15  and  C_16
REMARK    7  A    between atoms: C_16  and  O_18
REMARK    8  A    between atoms: O_20  and  C_21
REMARK    9  A    between atoms: C_21  and  C_22
REMARK                            x       y       z     vdW  Elec       q    Type
REMARK                         _______ _______ _______ _____ _____    ______ ____
ROOT
ATOM      1  C   UNK A   0       2.390   4.416  19.869  0.00  0.00    +0.000 A 
ATOM      2  C   UNK A   0       1.440   3.446  20.316  0.00  0.00    +0.000 A 
ATOM      3  C   UNK A   0       1.715   2.179  19.857  0.00  0.00    +0.000 A 
ATOM      4  S   UNK A   0       3.103   2.149  18.874  0.00  0.00    +0.000 S 
ATOM      5  C   UNK A   0       3.366   3.844  19.052  0.00  0.00    +0.000 A 
ENDROOT
BRANCH   5   6
ATOM      6  C   UNK A   0       4.523   4.477  18.396  0.00  0.00    +0.000 A 
ATOM      7  N   UNK A   1       4.426   4.656  17.064  0.00  0.00    +0.000 NA
ATOM      8  C   UNK A   1       5.478   5.257  16.499  0.00  0.00    +0.000 A 
ATOM      9  C   UNK A   1       6.614   5.683  17.141  0.00  0.00    +0.000 A 
ATOM     10  C   UNK A   1       6.607   5.450  18.497  0.00  0.00    +0.000 A 
ATOM     11  N   UNK A   1       5.571   4.848  19.156  0.00  0.00    +0.000 NA
BRANCH   8  12
ATOM     12  O   UNK A   1       5.369   5.453  15.153  0.00  0.00    +0.000 OA
ATOM     13  H   UNK A   1       4.926   6.321  15.101  0.00  0.00    +0.000 HD
ENDBRANCH   8  12
BRANCH   9  14
ATOM     14  O   UNK A   1       7.617   6.285  16.456  0.00  0.00    +0.000 OA
ATOM     15  H   UNK A   1       7.210   6.966  15.883  0.00  0.00    +0.000 HD
ENDBRANCH   9  14
BRANCH  10  16
ATOM     16  C   UNK A   1       7.746   5.845  19.386  0.00  0.00    +0.000 C 
ATOM     17  O   UNK A   1       8.151   5.250  20.367  0.00  0.00    +0.000 OA
BRANCH  16  18
ATOM     18  O   UNK A   1       8.303   7.003  18.944  0.00  0.00    +0.000 OA
ATOM     19  H   UNK A   1       8.635   7.528  19.710  0.00  0.00    +0.000 HD
ENDBRANCH  16  18
ENDBRANCH  10  16
ENDBRANCH   5   6
BRANCH   1  22
ATOM     20  O   UNK A   0       1.987   6.737  18.106  0.00  0.00    +0.000 OA
ATOM     21  C   UNK A   0       2.213   6.814  19.305  0.00  0.00    +0.000 C 
ATOM     22  N   UNK A   0       2.385   5.775  20.177  0.00  0.00    +0.000 N 
ATOM     23  H   UNK A   0       2.491   6.024  21.153  0.00  0.00    +0.000 HD
BRANCH  21  24
ATOM     24  O   UNK A   0       2.340   7.983  19.987  0.00  0.00    +0.000 OA
BRANCH  24  25
ATOM     25  C   UNK A   0       1.378   8.201  21.031  0.00  0.00    +0.000 C 
BRANCH  25  26
ATOM     26  C   UNK A   0       0.553   9.436  20.769  0.00  0.00    +0.000 A 
ATOM     27  C   UNK A   0       0.482   9.937  19.456  0.00  0.00    +0.000 A 
ATOM     28  C   UNK A   0      -0.222  11.110  19.171  0.00  0.00    +0.000 A 
ATOM     29  C   UNK A   0      -0.876  11.795  20.190  0.00  0.00    +0.000 A 
ATOM     30  C   UNK A   0      -0.835  11.302  21.493  0.00  0.00    +0.000 A 
ATOM     31  C   UNK A   0      -0.133  10.126  21.781  0.00  0.00    +0.000 A 
ATOM     32 CL   UNK A   0      -0.136   9.577  23.420  0.00  0.00    +0.000 Cl
ENDBRANCH  25  26
ENDBRANCH  24  25
ENDBRANCH  21  24
ENDBRANCH   1  22
TORSDOF 9
ENDMDL
MODEL 7
REMARK VINA RESULT:      -8.0      1.165      1.735
REMARK  Name = 
REMARK  9 active torsions:
REMARK  status: ('A' for Active; 'I' for Inactive)
REMARK    1  A    between atoms: C_2  and  O_20
REMARK    2  A    between atoms: N_3  and  C_4
REMARK    3  A    between atoms: C_8  and  C_9
REMARK    4  A    between atoms: C_11  and  O_12
REMARK    5  A    between atoms: C_13  and  O_14
REMARK    6  A    between atoms: C_15  and  C_16
REMARK    7  A    between atoms: C_16  and  O_18
REMARK    8  A    between atoms: O_20  and  C_21
REMARK    9  A    between atoms: C_21  and  C_22
REMARK                            x       y       z     vdW  Elec       q    Type
REMARK                         _______ _______ _______ _____ _____    ______ ____
ROOT
ATOM      1  C   UNK A   0       3.156   5.009  19.978  0.00  0.00    +0.000 A 
ATOM      2  C   UNK A   0       2.383   4.272  20.929  0.00  0.00    +0.000 A 
ATOM      3  C   UNK A   0       2.742   2.946  20.994  0.00  0.00    +0.000 A 
ATOM      4  S   UNK A   0       3.994   2.574  19.904  0.00  0.00    +0.000 S 
ATOM      5  C   UNK A   0       4.082   4.196  19.324  0.00  0.00    +0.000 A 
ENDROOT
BRANCH   5   6
ATOM      6  C   UNK A   0       5.071   4.550  18.292  0.00  0.00    +0.000 A 
ATOM      7  N   UNK A   1       5.071   3.786  17.182  0.00  0.00    +0.000 NA
ATOM      8  C   UNK A   1       5.959   4.146  16.250  0.00  0.00    +0.000 A 
ATOM      9  C   UNK A   1       6.848   5.188  16.333  0.00  0.00    +0.000 A 
ATOM     10  C   UNK A   1       6.763   5.900  17.508  0.00  0.00    +0.000 A 
ATOM     11  N   UNK A   1       5.880   5.605  18.509  0.00  0.00    +0.000 NA
BRANCH   8  12
ATOM     12  O   UNK A   1       5.944   3.380  15.121  0.00  0.00    +0.000 OA
ATOM     13  H   UNK A   1       6.872   3.086  15.054  0.00  0.00    +0.000 HD
ENDBRANCH   8  12
BRANCH   9  14
ATOM     14  O   UNK A   1       7.702   5.457  15.316  0.00  0.00    +0.000 OA
ATOM     15  H   UNK A   1       8.531   4.967  15.494  0.00  0.00    +0.000 HD
ENDBRANCH   9  14
BRANCH  10  16
ATOM     16  C   UNK A   1       7.636   7.083  17.796  0.00  0.00    +0.000 C 
ATOM     17  O   UNK A   1       7.753   8.089  17.122  0.00  0.00    +0.000 OA
BRANCH  16  18
ATOM     18  O   UNK A   1       8.314   6.891  18.958  0.00  0.00    +0.000 OA
ATOM     19  H   UNK A   1       9.209   7.301  18.895  0.00  0.00    +0.000 HD
ENDBRANCH  16  18
ENDBRANCH  10  16
ENDBRANCH   5   6
BRANCH   1  22
ATOM     20  O   UNK A   0       1.950   6.341  17.647  0.00  0.00    +0.000 OA
ATOM     21  C   UNK A   0       2.480   6.928  18.578  0.00  0.00    +0.000 C 
ATOM     22  N   UNK A   0       3.034   6.368  19.695  0.00  0.00    +0.000 N 
ATOM     23  H   UNK A   0       3.364   7.014  20.403  0.00  0.00    +0.000 HD
BRANCH  21  24
ATOM     24  O   UNK A   0       2.614   8.280  18.655  0.00  0.00    +0.000 OA
BRANCH  24  25
ATOM     25  C   UNK A   0       1.570   9.044  18.032  0.00  0.00    +0.000 C 
BRANCH  25  26
ATOM     26  C   UNK A   0       1.493  10.438  18.604  0.00  0.00    +0.000 A 
ATOM     27  C   UNK A   0       2.244  11.461  17.996  0.00  0.00    +0.000 A 
ATOM     28  C   UNK A   0       2.251  12.756  18.522  0.00  0.00    +0.000 A 
ATOM     29  C   UNK A   0       1.502  13.052  19.656  0.00  0.00    +0.000 A 
ATOM     30  C   UNK A   0       0.735  12.056  20.259  0.00  0.00    +0.000 A 
ATOM     31  C   UNK A   0       0.723  10.759  19.732  0.00  0.00    +0.000 A 
ATOM     32 CL   UNK A   0      -0.259   9.583  20.534  0.00  0.00    +0.000 Cl
ENDBRANCH  25  26
ENDBRANCH  24  25
ENDBRANCH  21  24
ENDBRANCH   1  22
TORSDOF 9
ENDMDL
MODEL 8
REMARK VINA RESULT:      -8.0      1.179      1.517
REMARK  Name = 
REMARK  9 active torsions:
REMARK  status: ('A' for Active; 'I' for Inactive)
REMARK    1  A    between atoms: C_2  and  O_20
REMARK    2  A    between atoms: N_3  and  C_4
REMARK    3  A    between atoms: C_8  and  C_9
REMARK    4  A    between atoms: C_11  and  O_12
REMARK    5  A    between atoms: C_13  and  O_14
REMARK    6  A    between atoms: C_15  and  C_16
REMARK    7  A    between atoms: C_16  and  O_18
REMARK    8  A    between atoms: O_20  and  C_21
REMARK    9  A    between atoms: C_21  and  C_22
REMARK                            x       y       z     vdW  Elec       q    Type
REMARK                         _______ _______ _______ _____ _____    ______ ____
ROOT
ATOM      1  C   UNK A   0       3.142   4.616  20.195  0.00  0.00    +0.000 A 
ATOM      2  C   UNK A   0       2.459   3.752  21.107  0.00  0.00    +0.000 A 
ATOM      3  C   UNK A   0       2.943   2.466  21.086  0.00  0.00    +0.000 A 
ATOM      4  S   UNK A   0       4.206   2.282  19.961  0.00  0.00    +0.000 S 
ATOM      5  C   UNK A   0       4.130   3.937  19.482  0.00  0.00    +0.000 A 
ENDROOT
BRANCH   5   6
ATOM      6  C   UNK A   0       5.063   4.446  18.463  0.00  0.00    +0.000 A 
ATOM      7  N   UNK A   1       4.936   3.924  17.226  0.00  0.00    +0.000 NA
ATOM      8  C   UNK A   1       5.775   4.423  16.315  0.00  0.00    +0.000 A 
ATOM      9  C   UNK A   1       6.733   5.384  16.530  0.00  0.00    +0.000 A 
ATOM     10  C   UNK A   1       6.777   5.845  17.826  0.00  0.00    +0.000 A 
ATOM     11  N   UNK A   1       5.950   5.395  18.818  0.00  0.00    +0.000 NA
BRANCH   8  12
ATOM     12  O   UNK A   1       5.631   3.906  15.061  0.00  0.00    +0.000 OA
ATOM     13  H   UNK A   1       6.484   4.128  14.642  0.00  0.00    +0.000 HD
ENDBRANCH   8  12
BRANCH   9  14
ATOM     14  O   UNK A   1       7.527   5.813  15.519  0.00  0.00    +0.000 OA
ATOM     15  H   UNK A   1       8.171   5.100  15.333  0.00  0.00    +0.000 HD
ENDBRANCH   9  14
BRANCH  10  16
ATOM     16  C   UNK A   1       7.742   6.901  18.270  0.00  0.00    +0.000 C 
ATOM     17  O   UNK A   1       7.942   7.979  17.743  0.00  0.00    +0.000 OA
BRANCH  16  18
ATOM     18  O   UNK A   1       8.397   6.494  19.389  0.00  0.00    +0.000 OA
ATOM     19  H   UNK A   1       7.747   6.194  20.066  0.00  0.00    +0.000 HD
ENDBRANCH  16  18
ENDBRANCH  10  16
ENDBRANCH   5   6
BRANCH   1  22
ATOM     20  O   UNK A   0       1.991   5.990  17.861  0.00  0.00    +0.000 OA
ATOM     21  C   UNK A   0       2.368   6.555  18.876  0.00  0.00    +0.000 C 
ATOM     22  N   UNK A   0       2.887   5.972  19.998  0.00  0.00    +0.000 N 
ATOM     23  H   UNK A   0       3.077   6.591  20.777  0.00  0.00    +0.000 HD
BRANCH  21  24
ATOM     24  O   UNK A   0       2.336   7.903  19.059  0.00  0.00    +0.000 OA
BRANCH  24  25
ATOM     25  C   UNK A   0       1.780   8.348  20.307  0.00  0.00    +0.000 C 
BRANCH  25  26
ATOM     26  C   UNK A   0       0.752   9.431  20.096  0.00  0.00    +0.000 A 
ATOM     27  C   UNK A   0       0.496   9.875  18.785  0.00  0.00    +0.000 A 
ATOM     28  C   UNK A   0      -0.406  10.915  18.542  0.00  0.00    +0.000 A 
ATOM     29  C   UNK A   0      -1.074  11.520  19.602  0.00  0.00    +0.000 A 
ATOM     30  C   UNK A   0      -0.849  11.078  20.905  0.00  0.00    +0.000 A 
ATOM     31  C   UNK A   0       0.051  10.035  21.151  0.00  0.00    +0.000 A 
ATOM     32 CL   UNK A   0       0.269   9.542  22.793  0.00  0.00    +0.000 Cl
ENDBRANCH  25  26
ENDBRANCH  24  25
ENDBRANCH  21  24
ENDBRANCH   1  22
TORSDOF 9
ENDMDL
MODEL 9
REMARK VINA RESULT:      -8.0      1.416      1.803
REMARK  Name = 
REMARK  9 active torsions:
REMARK  status: ('A' for Active; 'I' for Inactive)
REMARK    1  A    between atoms: C_2  and  O_20
REMARK    2  A    between atoms: N_3  and  C_4
REMARK    3  A    between atoms: C_8  and  C_9
REMARK    4  A    between atoms: C_11  and  O_12
REMARK    5  A    between atoms: C_13  and  O_14
REMARK    6  A    between atoms: C_15  and  C_16
REMARK    7  A    between atoms: C_16  and  O_18
REMARK    8  A    between atoms: O_20  and  C_21
REMARK    9  A    between atoms: C_21  and  C_22
REMARK                            x       y       z     vdW  Elec       q    Type
REMARK                         _______ _______ _______ _____ _____    ______ ____
ROOT
ATOM      1  C   UNK A   0       2.586   4.861  18.985  0.00  0.00    +0.000 A 
ATOM      2  C   UNK A   0       1.786   4.191  19.963  0.00  0.00    +0.000 A 
ATOM      3  C   UNK A   0       2.377   3.045  20.440  0.00  0.00    +0.000 A 
ATOM      4  S   UNK A   0       3.885   2.757  19.708  0.00  0.00    +0.000 S 
ATOM      5  C   UNK A   0       3.775   4.176  18.734  0.00  0.00    +0.000 A 
ENDROOT
BRANCH   5   6
ATOM      6  C   UNK A   0       4.876   4.520  17.817  0.00  0.00    +0.000 A 
ATOM      7  N   UNK A   1       4.960   3.788  16.688  0.00  0.00    +0.000 NA
ATOM      8  C   UNK A   1       5.949   4.140  15.862  0.00  0.00    +0.000 A 
ATOM      9  C   UNK A   1       6.863   5.144  16.067  0.00  0.00    +0.000 A 
ATOM     10  C   UNK A   1       6.686   5.825  17.250  0.00  0.00    +0.000 A 
ATOM     11  N   UNK A   1       5.696   5.536  18.148  0.00  0.00    +0.000 NA
BRANCH   8  12
ATOM     12  O   UNK A   1       6.021   3.409  14.713  0.00  0.00    +0.000 OA
ATOM     13  H   UNK A   1       5.870   4.083  14.024  0.00  0.00    +0.000 HD
ENDBRANCH   8  12
BRANCH   9  14
ATOM     14  O   UNK A   1       7.825   5.408  15.149  0.00  0.00    +0.000 OA
ATOM     15  H   UNK A   1       8.427   4.637  15.129  0.00  0.00    +0.000 HD
ENDBRANCH   9  14
BRANCH  10  16
ATOM     16  C   UNK A   1       7.568   6.963  17.662  0.00  0.00    +0.000 C 
ATOM     17  O   UNK A   1       7.758   7.999  17.054  0.00  0.00    +0.000 OA
BRANCH  16  18
ATOM     18  O   UNK A   1       8.157   6.689  18.856  0.00  0.00    +0.000 OA
ATOM     19  H   UNK A   1       7.533   6.183  19.427  0.00  0.00    +0.000 HD
ENDBRANCH  16  18
ENDBRANCH  10  16
ENDBRANCH   5   6
BRANCH   1  22
ATOM     20  O   UNK A   0       2.311   7.585  20.064  0.00  0.00    +0.000 OA
ATOM     21  C   UNK A   0       2.128   7.286  18.894  0.00  0.00    +0.000 C 
ATOM     22  N   UNK A   0       2.263   6.047  18.330  0.00  0.00    +0.000 N 
ATOM     23  H   UNK A   0       2.142   5.998  17.325  0.00  0.00    +0.000 HD
BRANCH  21  24
ATOM     24  O   UNK A   0       1.742   8.165  17.930  0.00  0.00    +0.000 OA
BRANCH  24  25
ATOM     25  C   UNK A   0       1.735   9.548  18.316  0.00  0.00    +0.000 C 
BRANCH  25  26
ATOM     26  C   UNK A   0       0.329  10.068  18.474  0.00  0.00    +0.000 A 
ATOM     27  C   UNK A   0      -0.632   9.728  17.503  0.00  0.00    +0.000 A 
ATOM     28  C   UNK A   0      -1.934  10.231  17.573  0.00  0.00    +0.000 A 
ATOM     29  C   UNK A   0      -2.300  11.073  18.617  0.00  0.00    +0.000 A 
ATOM     30  C   UNK A   0      -1.368  11.404  19.600  0.00  0.00    +0.000 A 
ATOM     31  C   UNK A   0      -0.064  10.899  19.535  0.00  0.00    +0.000 A 
ATOM     32 CL   UNK A   0       1.029  11.350  20.795  0.00  0.00    +0.000 Cl
ENDBRANCH  25  26
ENDBRANCH  24  25
ENDBRANCH  21  24
ENDBRANCH   1  22
TORSDOF 9
ENDMDL
