MODEL 1
REMARK VINA RESULT:      -7.3      0.000      0.000
REMARK  Name = 
REMARK  6 active torsions:
REMARK  status: ('A' for Active; 'I' for Inactive)
REMARK    1  A    between atoms: C_1  and  C_2
REMARK    2  A    between atoms: C_6  and  N_7
REMARK    3  A    between atoms: C_8  and  C_10
REMARK    4  A    between atoms: N_13  and  S_14
REMARK    5  A    between atoms: S_14  and  N_17
REMARK    6  A    between atoms: C_29  and  C_30
REMARK                            x       y       z     vdW  Elec       q    Type
REMARK                         _______ _______ _______ _____ _____    ______ ____
ROOT
ATOM      1  C   UNL     1       1.880   9.105  20.273  0.00  0.00    +0.000 C 
ATOM      2  C   UNL     1       1.443   9.783  18.966  0.00  0.00    +0.000 C 
ATOM      3  C   UNL     1      -0.069   9.811  18.761  0.00  0.00    +0.000 C 
ATOM      4  N   UNL     1      -0.783  10.290  19.969  0.00  0.00    +0.000 NA
ATOM      5  C   UNL     1      -0.489   9.423  21.135  0.00  0.00    +0.000 C 
ATOM      6  C   UNL     1       0.999   9.467  21.478  0.00  0.00    +0.000 C 
ENDROOT
BRANCH   1   8
ATOM      7  N   UNL     1       2.573   7.164  18.967  0.00  0.00    +0.000 N 
ATOM      8  C   UNL     1       1.891   7.598  20.091  0.00  0.00    +0.000 C 
ATOM      9  O   UNL     1       1.374   6.832  20.894  0.00  0.00    +0.000 OA
ATOM     10  H   UNL     1       3.101   7.835  18.416  0.00  0.00    +0.000 HD
BRANCH   7  16
ATOM     11  C   UNL     1       4.532   3.219  19.469  0.00  0.00    +0.000 C 
ATOM     12  C   UNL     1       4.444   3.921  18.106  0.00  0.00    +0.000 C 
ATOM     13  C   UNL     1       3.353   3.290  17.224  0.00  0.00    +0.000 C 
ATOM     14  C   UNL     1       1.933   3.634  17.673  0.00  0.00    +0.000 C 
ATOM     15  C   UNL     1       1.723   5.138  17.839  0.00  0.00    +0.000 C 
ATOM     16  C   UNL     1       2.787   5.743  18.757  0.00  0.00    +0.000 C 
ATOM     17  C   UNL     1       4.228   5.446  18.272  0.00  0.00    +0.000 C 
ATOM     18  C   UNL     1       4.576   6.187  16.970  0.00  0.00    +0.000 C 
ENDBRANCH   7  16
ENDBRANCH   1   8
BRANCH   4  19
ATOM     19  S   UNL     1      -0.797  11.952  20.270  0.00  0.00    +0.000 S 
ATOM     20  O   UNL     1       0.523  12.351  20.697  0.00  0.00    +0.000 OA
ATOM     21  O   UNL     1      -1.441  12.610  19.158  0.00  0.00    +0.000 OA
BRANCH  19  22
ATOM     22  N   UNL     1      -1.828  12.014  21.597  0.00  0.00    +0.000 NA
ATOM     23  C   UNL     1      -1.238  12.302  22.925  0.00  0.00    +0.000 C 
ATOM     24  C   UNL     1      -1.182  13.794  23.215  0.00  0.00    +0.000 C 
ATOM     25  C   UNL     1      -2.505  14.505  22.939  0.00  0.00    +0.000 C 
ATOM     26  C   UNL     1      -3.027  14.171  21.542  0.00  0.00    +0.000 C 
ATOM     27  C   UNL     1      -3.141  12.661  21.397  0.00  0.00    +0.000 C 
ATOM     28  O   UNL     1      -3.524  14.127  23.893  0.00  0.00    +0.000 OA
ATOM     29  C   UNL     1      -4.177  15.368  24.190  0.00  0.00    +0.000 C 
ATOM     30  C   UNL     1      -3.002  16.299  24.244  0.00  0.00    +0.000 C 
ATOM     31  O   UNL     1      -2.284  15.928  23.063  0.00  0.00    +0.000 OA
ENDBRANCH  19  22
ENDBRANCH   4  19
TORSDOF 4
ENDMDL
MODEL 2
REMARK VINA RESULT:      -7.3      1.626      2.272
REMARK  Name = 
REMARK  6 active torsions:
REMARK  status: ('A' for Active; 'I' for Inactive)
REMARK    1  A    between atoms: C_1  and  C_2
REMARK    2  A    between atoms: C_6  and  N_7
REMARK    3  A    between atoms: C_8  and  C_10
REMARK    4  A    between atoms: N_13  and  S_14
REMARK    5  A    between atoms: S_14  and  N_17
REMARK    6  A    between atoms: C_29  and  C_30
REMARK                            x       y       z     vdW  Elec       q    Type
REMARK                         _______ _______ _______ _____ _____    ______ ____
ROOT
ATOM      1  C   UNL     1       1.403   9.709  17.880  0.00  0.00    +0.000 C 
ATOM      2  C   UNL     1      -0.120   9.654  18.071  0.00  0.00    +0.000 C 
ATOM      3  C   UNL     1      -0.584  10.060  19.467  0.00  0.00    +0.000 C 
ATOM      4  N   UNL     1       0.044  11.328  19.911  0.00  0.00    +0.000 NA
ATOM      5  C   UNL     1       1.521  11.208  19.928  0.00  0.00    +0.000 C 
ATOM      6  C   UNL     1       2.058  10.940  18.524  0.00  0.00    +0.000 C 
ENDROOT
BRANCH   1   8
ATOM      7  N   UNL     1       2.796   7.736  17.532  0.00  0.00    +0.000 N 
ATOM      8  C   UNL     1       2.036   8.449  18.442  0.00  0.00    +0.000 C 
ATOM      9  O   UNL     1       1.915   8.116  19.615  0.00  0.00    +0.000 OA
ATOM     10  H   UNL     1       2.975   8.135  16.614  0.00  0.00    +0.000 HD
BRANCH   7  16
ATOM     11  C   UNL     1       6.247   5.611  19.329  0.00  0.00    +0.000 C 
ATOM     12  C   UNL     1       5.816   5.387  17.872  0.00  0.00    +0.000 C 
ATOM     13  C   UNL     1       5.055   4.059  17.715  0.00  0.00    +0.000 C 
ATOM     14  C   UNL     1       3.641   4.097  18.295  0.00  0.00    +0.000 C 
ATOM     15  C   UNL     1       2.827   5.278  17.771  0.00  0.00    +0.000 C 
ATOM     16  C   UNL     1       3.577   6.596  17.977  0.00  0.00    +0.000 C 
ATOM     17  C   UNL     1       4.989   6.583  17.339  0.00  0.00    +0.000 C 
ATOM     18  C   UNL     1       4.940   6.566  15.802  0.00  0.00    +0.000 C 
ENDBRANCH   7  16
ENDBRANCH   1   8
BRANCH   4  19
ATOM     19  S   UNL     1      -0.571  12.773  19.289  0.00  0.00    +0.000 S 
ATOM     20  O   UNL     1       0.487  13.458  18.585  0.00  0.00    +0.000 OA
ATOM     21  O   UNL     1      -1.826  12.488  18.634  0.00  0.00    +0.000 OA
BRANCH  19  22
ATOM     22  N   UNL     1      -0.890  13.607  20.714  0.00  0.00    +0.000 NA
ATOM     23  C   UNL     1      -1.998  14.591  20.713  0.00  0.00    +0.000 C 
ATOM     24  C   UNL     1      -3.330  13.954  21.082  0.00  0.00    +0.000 C 
ATOM     25  C   UNL     1      -3.248  13.089  22.338  0.00  0.00    +0.000 C 
ATOM     26  C   UNL     1      -2.096  12.090  22.243  0.00  0.00    +0.000 C 
ATOM     27  C   UNL     1      -0.801  12.842  21.974  0.00  0.00    +0.000 C 
ATOM     28  O   UNL     1      -3.043  13.888  23.525  0.00  0.00    +0.000 OA
ATOM     29  C   UNL     1      -3.913  13.281  24.489  0.00  0.00    +0.000 C 
ATOM     30  C   UNL     1      -5.111  12.982  23.637  0.00  0.00    +0.000 C 
ATOM     31  O   UNL     1      -4.505  12.390  22.483  0.00  0.00    +0.000 OA
ENDBRANCH  19  22
ENDBRANCH   4  19
TORSDOF 4
ENDMDL
MODEL 3
REMARK VINA RESULT:      -7.3      1.744      2.383
REMARK  Name = 
REMARK  6 active torsions:
REMARK  status: ('A' for Active; 'I' for Inactive)
REMARK    1  A    between atoms: C_1  and  C_2
REMARK    2  A    between atoms: C_6  and  N_7
REMARK    3  A    between atoms: C_8  and  C_10
REMARK    4  A    between atoms: N_13  and  S_14
REMARK    5  A    between atoms: S_14  and  N_17
REMARK    6  A    between atoms: C_29  and  C_30
REMARK                            x       y       z     vdW  Elec       q    Type
REMARK                         _______ _______ _______ _____ _____    ______ ____
ROOT
ATOM      1  C   UNL     1       2.043   8.819  20.282  0.00  0.00    +0.000 C 
ATOM      2  C   UNL     1       1.374   9.957  19.496  0.00  0.00    +0.000 C 
ATOM      3  C   UNL     1      -0.150   9.943  19.565  0.00  0.00    +0.000 C 
ATOM      4  N   UNL     1      -0.640   9.788  20.956  0.00  0.00    +0.000 NA
ATOM      5  C   UNL     1      -0.137   8.530  21.556  0.00  0.00    +0.000 C 
ATOM      6  C   UNL     1       1.388   8.545  21.644  0.00  0.00    +0.000 C 
ENDROOT
BRANCH   1   8
ATOM      7  N   UNL     1       2.363   6.403  20.156  0.00  0.00    +0.000 N 
ATOM      8  C   UNL     1       2.030   7.547  19.453  0.00  0.00    +0.000 C 
ATOM      9  O   UNL     1       1.713   7.533  18.270  0.00  0.00    +0.000 OA
ATOM     10  H   UNL     1       2.478   6.456  21.165  0.00  0.00    +0.000 HD
BRANCH   7  16
ATOM     11  C   UNL     1       0.316   2.750  18.701  0.00  0.00    +0.000 C 
ATOM     12  C   UNL     1       1.440   2.696  19.747  0.00  0.00    +0.000 C 
ATOM     13  C   UNL     1       2.764   2.229  19.117  0.00  0.00    +0.000 C 
ATOM     14  C   UNL     1       3.421   3.286  18.229  0.00  0.00    +0.000 C 
ATOM     15  C   UNL     1       3.578   4.629  18.941  0.00  0.00    +0.000 C 
ATOM     16  C   UNL     1       2.243   5.103  19.521  0.00  0.00    +0.000 C 
ATOM     17  C   UNL     1       1.602   4.058  20.467  0.00  0.00    +0.000 C 
ATOM     18  C   UNL     1       2.391   3.887  21.776  0.00  0.00    +0.000 C 
ENDBRANCH   7  16
ENDBRANCH   1   8
BRANCH   4  19
ATOM     19  S   UNL     1      -0.610  11.147  21.959  0.00  0.00    +0.000 S 
ATOM     20  O   UNL     1      -0.851  10.720  23.317  0.00  0.00    +0.000 OA
ATOM     21  O   UNL     1       0.557  11.930  21.630  0.00  0.00    +0.000 OA
BRANCH  19  22
ATOM     22  N   UNL     1      -1.974  11.963  21.408  0.00  0.00    +0.000 NA
ATOM     23  C   UNL     1      -2.996  12.364  22.403  0.00  0.00    +0.000 C 
ATOM     24  C   UNL     1      -2.716  13.740  22.988  0.00  0.00    +0.000 C 
ATOM     25  C   UNL     1      -2.420  14.792  21.922  0.00  0.00    +0.000 C 
ATOM     26  C   UNL     1      -1.340  14.306  20.956  0.00  0.00    +0.000 C 
ATOM     27  C   UNL     1      -1.768  12.977  20.353  0.00  0.00    +0.000 C 
ATOM     28  O   UNL     1      -3.596  15.111  21.144  0.00  0.00    +0.000 OA
ATOM     29  C   UNL     1      -3.527  16.537  21.010  0.00  0.00    +0.000 C 
ATOM     30  C   UNL     1      -3.054  16.927  22.379  0.00  0.00    +0.000 C 
ATOM     31  O   UNL     1      -1.985  15.998  22.591  0.00  0.00    +0.000 OA
ENDBRANCH  19  22
ENDBRANCH   4  19
TORSDOF 4
ENDMDL
MODEL 4
REMARK VINA RESULT:      -7.2      1.318      1.695
REMARK  Name = 
REMARK  6 active torsions:
REMARK  status: ('A' for Active; 'I' for Inactive)
REMARK    1  A    between atoms: C_1  and  C_2
REMARK    2  A    between atoms: C_6  and  N_7
REMARK    3  A    between atoms: C_8  and  C_10
REMARK    4  A    between atoms: N_13  and  S_14
REMARK    5  A    between atoms: S_14  and  N_17
REMARK    6  A    between atoms: C_29  and  C_30
REMARK                            x       y       z     vdW  Elec       q    Type
REMARK                         _______ _______ _______ _____ _____    ______ ____
ROOT
ATOM      1  C   UNL     1       1.444   9.912  18.128  0.00  0.00    +0.000 C 
ATOM      2  C   UNL     1      -0.084   9.849  17.988  0.00  0.00    +0.000 C 
ATOM      3  C   UNL     1      -0.833  10.029  19.306  0.00  0.00    +0.000 C 
ATOM      4  N   UNL     1      -0.335  11.198  20.070  0.00  0.00    +0.000 NA
ATOM      5  C   UNL     1       1.109  11.056  20.372  0.00  0.00    +0.000 C 
ATOM      6  C   UNL     1       1.928  11.012  19.084  0.00  0.00    +0.000 C 
ENDROOT
BRANCH   1   8
ATOM      7  N   UNL     1       2.778   7.919  17.676  0.00  0.00    +0.000 N 
ATOM      8  C   UNL     1       1.973   8.569  18.596  0.00  0.00    +0.000 C 
ATOM      9  O   UNL     1       1.737   8.118  19.710  0.00  0.00    +0.000 OA
ATOM     10  H   UNL     1       3.053   8.404  16.826  0.00  0.00    +0.000 HD
BRANCH   7  16
ATOM     11  C   UNL     1       6.048   5.438  19.350  0.00  0.00    +0.000 C 
ATOM     12  C   UNL     1       5.611   5.333  17.881  0.00  0.00    +0.000 C 
ATOM     13  C   UNL     1       4.753   4.078  17.644  0.00  0.00    +0.000 C 
ATOM     14  C   UNL     1       3.343   4.187  18.223  0.00  0.00    +0.000 C 
ATOM     15  C   UNL     1       2.623   5.456  17.769  0.00  0.00    +0.000 C 
ATOM     16  C   UNL     1       3.469   6.699  18.055  0.00  0.00    +0.000 C 
ATOM     17  C   UNL     1       4.879   6.618  17.419  0.00  0.00    +0.000 C 
ATOM     18  C   UNL     1       4.839   6.696  15.884  0.00  0.00    +0.000 C 
ENDBRANCH   7  16
ENDBRANCH   1   8
BRANCH   4  19
ATOM     19  S   UNL     1      -0.838  12.734  19.578  0.00  0.00    +0.000 S 
ATOM     20  O   UNL     1       0.237  13.668  19.820  0.00  0.00    +0.000 OA
ATOM     21  O   UNL     1      -1.432  12.620  18.266  0.00  0.00    +0.000 OA
BRANCH  19  22
ATOM     22  N   UNL     1      -2.061  13.027  20.694  0.00  0.00    +0.000 NA
ATOM     23  C   UNL     1      -2.052  12.252  21.957  0.00  0.00    +0.000 C 
ATOM     24  C   UNL     1      -1.238  12.937  23.044  0.00  0.00    +0.000 C 
ATOM     25  C   UNL     1      -1.586  14.415  23.207  0.00  0.00    +0.000 C 
ATOM     26  C   UNL     1      -1.547  15.140  21.863  0.00  0.00    +0.000 C 
ATOM     27  C   UNL     1      -2.472  14.433  20.885  0.00  0.00    +0.000 C 
ATOM     28  O   UNL     1      -2.907  14.594  23.767  0.00  0.00    +0.000 OA
ATOM     29  C   UNL     1      -2.726  15.659  24.710  0.00  0.00    +0.000 C 
ATOM     30  C   UNL     1      -1.394  15.293  25.296  0.00  0.00    +0.000 C 
ATOM     31  O   UNL     1      -0.631  15.002  24.120  0.00  0.00    +0.000 OA
ENDBRANCH  19  22
ENDBRANCH   4  19
TORSDOF 4
ENDMDL
MODEL 5
REMARK VINA RESULT:      -7.2      7.988     10.580
REMARK  Name = 
REMARK  6 active torsions:
REMARK  status: ('A' for Active; 'I' for Inactive)
REMARK    1  A    between atoms: C_1  and  C_2
REMARK    2  A    between atoms: C_6  and  N_7
REMARK    3  A    between atoms: C_8  and  C_10
REMARK    4  A    between atoms: N_13  and  S_14
REMARK    5  A    between atoms: S_14  and  N_17
REMARK    6  A    between atoms: C_29  and  C_30
REMARK                            x       y       z     vdW  Elec       q    Type
REMARK                         _______ _______ _______ _____ _____    ______ ____
ROOT
ATOM      1  C   UNL     1       8.240   7.450  17.725  0.00  0.00    +0.000 C 
ATOM      2  C   UNL     1       7.913   6.568  18.939  0.00  0.00    +0.000 C 
ATOM      3  C   UNL     1       6.417   6.367  19.171  0.00  0.00    +0.000 C 
ATOM      4  N   UNL     1       5.711   5.982  17.926  0.00  0.00    +0.000 NA
ATOM      5  C   UNL     1       5.883   7.017  16.880  0.00  0.00    +0.000 C 
ATOM      6  C   UNL     1       7.356   7.165  16.502  0.00  0.00    +0.000 C 
ENDROOT
BRANCH   1   8
ATOM      7  N   UNL     1       9.072   9.354  19.005  0.00  0.00    +0.000 N 
ATOM      8  C   UNL     1       8.115   8.914  18.106  0.00  0.00    +0.000 C 
ATOM      9  O   UNL     1       7.264   9.652  17.626  0.00  0.00    +0.000 OA
ATOM     10  H   UNL     1       9.837   8.735  19.260  0.00  0.00    +0.000 HD
BRANCH   7  16
ATOM     11  C   UNL     1       8.747  13.724  18.337  0.00  0.00    +0.000 C 
ATOM     12  C   UNL     1      10.082  13.046  18.679  0.00  0.00    +0.000 C 
ATOM     13  C   UNL     1      10.465  13.279  20.151  0.00  0.00    +0.000 C 
ATOM     14  C   UNL     1       9.618  12.471  21.134  0.00  0.00    +0.000 C 
ATOM     15  C   UNL     1       9.585  10.983  20.789  0.00  0.00    +0.000 C 
ATOM     16  C   UNL     1       9.158  10.765  19.336  0.00  0.00    +0.000 C 
ATOM     17  C   UNL     1      10.051  11.536  18.332  0.00  0.00    +0.000 C 
ATOM     18  C   UNL     1      11.477  10.968  18.256  0.00  0.00    +0.000 C 
ENDBRANCH   7  16
ENDBRANCH   1   8
BRANCH   4  19
ATOM     19  S   UNL     1       5.844   4.380  17.407  0.00  0.00    +0.000 S 
ATOM     20  O   UNL     1       6.324   4.377  16.045  0.00  0.00    +0.000 OA
ATOM     21  O   UNL     1       6.527   3.625  18.430  0.00  0.00    +0.000 OA
BRANCH  19  22
ATOM     22  N   UNL     1       4.224   3.926  17.400  0.00  0.00    +0.000 NA
ATOM     23  C   UNL     1       3.896   2.507  17.676  0.00  0.00    +0.000 C 
ATOM     24  C   UNL     1       3.706   2.242  19.162  0.00  0.00    +0.000 C 
ATOM     25  C   UNL     1       2.778   3.251  19.834  0.00  0.00    +0.000 C 
ATOM     26  C   UNL     1       3.203   4.684  19.516  0.00  0.00    +0.000 C 
ATOM     27  C   UNL     1       3.261   4.868  18.008  0.00  0.00    +0.000 C 
ATOM     28  O   UNL     1       1.409   3.090  19.398  0.00  0.00    +0.000 OA
ATOM     29  C   UNL     1       0.656   3.240  20.608  0.00  0.00    +0.000 C 
ATOM     30  C   UNL     1       1.528   2.497  21.577  0.00  0.00    +0.000 C 
ATOM     31  O   UNL     1       2.823   3.020  21.260  0.00  0.00    +0.000 OA
ENDBRANCH  19  22
ENDBRANCH   4  19
TORSDOF 4
ENDMDL
MODEL 6
REMARK VINA RESULT:      -7.2      2.705      3.506
REMARK  Name = 
REMARK  6 active torsions:
REMARK  status: ('A' for Active; 'I' for Inactive)
REMARK    1  A    between atoms: C_1  and  C_2
REMARK    2  A    between atoms: C_6  and  N_7
REMARK    3  A    between atoms: C_8  and  C_10
REMARK    4  A    between atoms: N_13  and  S_14
REMARK    5  A    between atoms: S_14  and  N_17
REMARK    6  A    between atoms: C_29  and  C_30
REMARK                            x       y       z     vdW  Elec       q    Type
REMARK                         _______ _______ _______ _____ _____    ______ ____
ROOT
ATOM      1  C   UNL     1       1.889   8.823  20.595  0.00  0.00    +0.000 C 
ATOM      2  C   UNL     1       1.384   9.568  19.350  0.00  0.00    +0.000 C 
ATOM      3  C   UNL     1      -0.136   9.665  19.262  0.00  0.00    +0.000 C 
ATOM      4  N   UNL     1      -0.736  10.125  20.538  0.00  0.00    +0.000 NA
ATOM      5  C   UNL     1      -0.393   9.203  21.646  0.00  0.00    +0.000 C 
ATOM      6  C   UNL     1       1.116   9.172  21.876  0.00  0.00    +0.000 C 
ENDROOT
BRANCH   1   8
ATOM      7  N   UNL     1       2.586   6.879  19.295  0.00  0.00    +0.000 N 
ATOM      8  C   UNL     1       1.821   7.325  20.358  0.00  0.00    +0.000 C 
ATOM      9  O   UNL     1       1.174   6.572  21.075  0.00  0.00    +0.000 OA
ATOM     10  H   UNL     1       3.212   7.529  18.826  0.00  0.00    +0.000 HD
BRANCH   7  16
ATOM     11  C   UNL     1       3.905   2.723  20.091  0.00  0.00    +0.000 C 
ATOM     12  C   UNL     1       4.336   3.490  18.833  0.00  0.00    +0.000 C 
ATOM     13  C   UNL     1       3.544   3.024  17.598  0.00  0.00    +0.000 C 
ATOM     14  C   UNL     1       2.093   3.504  17.590  0.00  0.00    +0.000 C 
ATOM     15  C   UNL     1       1.976   5.013  17.797  0.00  0.00    +0.000 C 
ATOM     16  C   UNL     1       2.729   5.454  19.054  0.00  0.00    +0.000 C 
ATOM     17  C   UNL     1       4.216   5.021  19.039  0.00  0.00    +0.000 C 
ATOM     18  C   UNL     1       5.039   5.776  17.983  0.00  0.00    +0.000 C 
ENDBRANCH   7  16
ENDBRANCH   1   8
BRANCH   4  19
ATOM     19  S   UNL     1      -0.655  11.773  20.898  0.00  0.00    +0.000 S 
ATOM     20  O   UNL     1      -1.944  12.366  20.626  0.00  0.00    +0.000 OA
ATOM     21  O   UNL     1      -0.034  11.926  22.193  0.00  0.00    +0.000 OA
BRANCH  19  22
ATOM     22  N   UNL     1       0.428  12.290  19.721  0.00  0.00    +0.000 NA
ATOM     23  C   UNL     1      -0.112  13.008  18.542  0.00  0.00    +0.000 C 
ATOM     24  C   UNL     1      -0.191  14.510  18.774  0.00  0.00    +0.000 C 
ATOM     25  C   UNL     1       1.102  15.095  19.336  0.00  0.00    +0.000 C 
ATOM     26  C   UNL     1       1.573  14.310  20.560  0.00  0.00    +0.000 C 
ATOM     27  C   UNL     1       1.716  12.842  20.190  0.00  0.00    +0.000 C 
ATOM     28  O   UNL     1       2.168  15.072  18.360  0.00  0.00    +0.000 OA
ATOM     29  C   UNL     1       2.804  16.345  18.533  0.00  0.00    +0.000 C 
ATOM     30  C   UNL     1       1.611  17.230  18.742  0.00  0.00    +0.000 C 
ATOM     31  O   UNL     1       0.853  16.474  19.692  0.00  0.00    +0.000 OA
ENDBRANCH  19  22
ENDBRANCH   4  19
TORSDOF 4
ENDMDL
MODEL 7
REMARK VINA RESULT:      -7.2      2.150      3.199
REMARK  Name = 
REMARK  6 active torsions:
REMARK  status: ('A' for Active; 'I' for Inactive)
REMARK    1  A    between atoms: C_1  and  C_2
REMARK    2  A    between atoms: C_6  and  N_7
REMARK    3  A    between atoms: C_8  and  C_10
REMARK    4  A    between atoms: N_13  and  S_14
REMARK    5  A    between atoms: S_14  and  N_17
REMARK    6  A    between atoms: C_29  and  C_30
REMARK                            x       y       z     vdW  Elec       q    Type
REMARK                         _______ _______ _______ _____ _____    ______ ____
ROOT
ATOM      1  C   UNL     1       1.173   8.966  21.709  0.00  0.00    +0.000 C 
ATOM      2  C   UNL     1       1.723  10.395  21.600  0.00  0.00    +0.000 C 
ATOM      3  C   UNL     1       0.919  11.297  20.666  0.00  0.00    +0.000 C 
ATOM      4  N   UNL     1      -0.536  11.219  20.938  0.00  0.00    +0.000 NA
ATOM      5  C   UNL     1      -1.029   9.830  20.781  0.00  0.00    +0.000 C 
ATOM      6  C   UNL     1      -0.360   8.901  21.791  0.00  0.00    +0.000 C 
ENDROOT
BRANCH   1   8
ATOM      7  N   UNL     1       2.016   6.845  20.843  0.00  0.00    +0.000 N 
ATOM      8  C   UNL     1       1.649   8.141  20.526  0.00  0.00    +0.000 C 
ATOM      9  O   UNL     1       1.666   8.577  19.382  0.00  0.00    +0.000 OA
ATOM     10  H   UNL     1       1.847   6.497  21.783  0.00  0.00    +0.000 HD
BRANCH   7  16
ATOM     11  C   UNL     1       1.245   3.984  17.547  0.00  0.00    +0.000 C 
ATOM     12  C   UNL     1       1.985   3.575  18.829  0.00  0.00    +0.000 C 
ATOM     13  C   UNL     1       3.502   3.474  18.588  0.00  0.00    +0.000 C 
ATOM     14  C   UNL     1       4.184   4.833  18.436  0.00  0.00    +0.000 C 
ATOM     15  C   UNL     1       3.858   5.782  19.589  0.00  0.00    +0.000 C 
ATOM     16  C   UNL     1       2.346   5.908  19.785  0.00  0.00    +0.000 C 
ATOM     17  C   UNL     1       1.658   4.536  19.998  0.00  0.00    +0.000 C 
ATOM     18  C   UNL     1       2.028   3.895  21.346  0.00  0.00    +0.000 C 
ENDBRANCH   7  16
ENDBRANCH   1   8
BRANCH   4  19
ATOM     19  S   UNL     1      -1.136  12.068  22.270  0.00  0.00    +0.000 S 
ATOM     20  O   UNL     1      -1.956  11.174  23.053  0.00  0.00    +0.000 OA
ATOM     21  O   UNL     1      -0.044  12.789  22.880  0.00  0.00    +0.000 OA
BRANCH  19  22
ATOM     22  N   UNL     1      -2.141  13.174  21.498  0.00  0.00    +0.000 NA
ATOM     23  C   UNL     1      -2.703  12.803  20.178  0.00  0.00    +0.000 C 
ATOM     24  C   UNL     1      -4.028  12.068  20.306  0.00  0.00    +0.000 C 
ATOM     25  C   UNL     1      -5.011  12.768  21.242  0.00  0.00    +0.000 C 
ATOM     26  C   UNL     1      -4.357  13.091  22.584  0.00  0.00    +0.000 C 
ATOM     27  C   UNL     1      -3.100  13.913  22.345  0.00  0.00    +0.000 C 
ATOM     28  O   UNL     1      -5.494  14.008  20.677  0.00  0.00    +0.000 OA
ATOM     29  C   UNL     1      -6.892  13.996  20.997  0.00  0.00    +0.000 C 
ATOM     30  C   UNL     1      -7.222  12.552  20.760  0.00  0.00    +0.000 C 
ATOM     31  O   UNL     1      -6.146  11.894  21.436  0.00  0.00    +0.000 OA
ENDBRANCH  19  22
ENDBRANCH   4  19
TORSDOF 4
ENDMDL
MODEL 8
REMARK VINA RESULT:      -7.2      1.287      1.583
REMARK  Name = 
REMARK  6 active torsions:
REMARK  status: ('A' for Active; 'I' for Inactive)
REMARK    1  A    between atoms: C_1  and  C_2
REMARK    2  A    between atoms: C_6  and  N_7
REMARK    3  A    between atoms: C_8  and  C_10
REMARK    4  A    between atoms: N_13  and  S_14
REMARK    5  A    between atoms: S_14  and  N_17
REMARK    6  A    between atoms: C_29  and  C_30
REMARK                            x       y       z     vdW  Elec       q    Type
REMARK                         _______ _______ _______ _____ _____    ______ ____
ROOT
ATOM      1  C   UNL     1       1.696   8.991  20.970  0.00  0.00    +0.000 C 
ATOM      2  C   UNL     1       1.078   9.856  19.862  0.00  0.00    +0.000 C 
ATOM      3  C   UNL     1      -0.433  10.035  19.988  0.00  0.00    +0.000 C 
ATOM      4  N   UNL     1      -0.831  10.422  21.362  0.00  0.00    +0.000 NA
ATOM      5  C   UNL     1      -0.402   9.399  22.345  0.00  0.00    +0.000 C 
ATOM      6  C   UNL     1       1.120   9.276  22.365  0.00  0.00    +0.000 C 
ENDROOT
BRANCH   1   8
ATOM      7  N   UNL     1       2.428   7.017  19.735  0.00  0.00    +0.000 N 
ATOM      8  C   UNL     1       1.507   7.521  20.638  0.00  0.00    +0.000 C 
ATOM      9  O   UNL     1       0.638   6.833  21.157  0.00  0.00    +0.000 OA
ATOM     10  H   UNL     1       3.210   7.598  19.446  0.00  0.00    +0.000 HD
BRANCH   7  16
ATOM     11  C   UNL     1       2.983   2.699  20.570  0.00  0.00    +0.000 C 
ATOM     12  C   UNL     1       3.812   3.441  19.511  0.00  0.00    +0.000 C 
ATOM     13  C   UNL     1       3.313   3.122  18.091  0.00  0.00    +0.000 C 
ATOM     14  C   UNL     1       1.982   3.792  17.750  0.00  0.00    +0.000 C 
ATOM     15  C   UNL     1       2.000   5.296  18.016  0.00  0.00    +0.000 C 
ATOM     16  C   UNL     1       2.453   5.594  19.447  0.00  0.00    +0.000 C 
ATOM     17  C   UNL     1       3.830   4.966  19.778  0.00  0.00    +0.000 C 
ATOM     18  C   UNL     1       4.982   5.637  19.011  0.00  0.00    +0.000 C 
ENDBRANCH   7  16
ENDBRANCH   1   8
BRANCH   4  19
ATOM     19  S   UNL     1      -0.605  12.031  21.826  0.00  0.00    +0.000 S 
ATOM     20  O   UNL     1      -0.528  12.087  23.267  0.00  0.00    +0.000 OA
ATOM     21  O   UNL     1       0.444  12.596  21.010  0.00  0.00    +0.000 OA
BRANCH  19  22
ATOM     22  N   UNL     1      -2.073  12.696  21.345  0.00  0.00    +0.000 NA
ATOM     23  C   UNL     1      -3.292  12.311  22.094  0.00  0.00    +0.000 C 
ATOM     24  C   UNL     1      -3.550  13.229  23.280  0.00  0.00    +0.000 C 
ATOM     25  C   UNL     1      -3.469  14.710  22.915  0.00  0.00    +0.000 C 
ATOM     26  C   UNL     1      -2.173  15.022  22.169  0.00  0.00    +0.000 C 
ATOM     27  C   UNL     1      -2.067  14.119  20.949  0.00  0.00    +0.000 C 
ATOM     28  O   UNL     1      -4.572  15.113  22.072  0.00  0.00    +0.000 OA
ATOM     29  C   UNL     1      -4.948  16.389  22.607  0.00  0.00    +0.000 C 
ATOM     30  C   UNL     1      -4.810  16.130  24.078  0.00  0.00    +0.000 C 
ATOM     31  O   UNL     1      -3.538  15.476  24.139  0.00  0.00    +0.000 OA
ENDBRANCH  19  22
ENDBRANCH   4  19
TORSDOF 4
ENDMDL
MODEL 9
REMARK VINA RESULT:      -7.1      1.283      1.537
REMARK  Name = 
REMARK  6 active torsions:
REMARK  status: ('A' for Active; 'I' for Inactive)
REMARK    1  A    between atoms: C_1  and  C_2
REMARK    2  A    between atoms: C_6  and  N_7
REMARK    3  A    between atoms: C_8  and  C_10
REMARK    4  A    between atoms: N_13  and  S_14
REMARK    5  A    between atoms: S_14  and  N_17
REMARK    6  A    between atoms: C_29  and  C_30
REMARK                            x       y       z     vdW  Elec       q    Type
REMARK                         _______ _______ _______ _____ _____    ______ ____
ROOT
ATOM      1  C   UNL     1       1.769   8.958  20.545  0.00  0.00    +0.000 C 
ATOM      2  C   UNL     1       0.978   9.676  19.441  0.00  0.00    +0.000 C 
ATOM      3  C   UNL     1      -0.476   9.958  19.808  0.00  0.00    +0.000 C 
ATOM      4  N   UNL     1      -0.599  10.575  21.151  0.00  0.00    +0.000 NA
ATOM      5  C   UNL     1      -0.021   9.694  22.192  0.00  0.00    +0.000 C 
ATOM      6  C   UNL     1       1.474   9.488  21.956  0.00  0.00    +0.000 C 
ENDROOT
BRANCH   1   8
ATOM      7  N   UNL     1       2.238   6.771  19.569  0.00  0.00    +0.000 N 
ATOM      8  C   UNL     1       1.482   7.468  20.495  0.00  0.00    +0.000 C 
ATOM      9  O   UNL     1       0.676   6.926  21.242  0.00  0.00    +0.000 OA
ATOM     10  H   UNL     1       2.988   7.249  19.079  0.00  0.00    +0.000 HD
BRANCH   7  16
ATOM     11  C   UNL     1       2.365   2.634  21.158  0.00  0.00    +0.000 C 
ATOM     12  C   UNL     1       3.336   3.125  20.074  0.00  0.00    +0.000 C 
ATOM     13  C   UNL     1       2.932   2.600  18.685  0.00  0.00    +0.000 C 
ATOM     14  C   UNL     1       1.693   3.288  18.113  0.00  0.00    +0.000 C 
ATOM     15  C   UNL     1       1.813   4.811  18.127  0.00  0.00    +0.000 C 
ATOM     16  C   UNL     1       2.169   5.321  19.526  0.00  0.00    +0.000 C 
ATOM     17  C   UNL     1       3.458   4.668  20.085  0.00  0.00    +0.000 C 
ATOM     18  C   UNL     1       4.721   5.118  19.332  0.00  0.00    +0.000 C 
ENDBRANCH   7  16
ENDBRANCH   1   8
BRANCH   4  19
ATOM     19  S   UNL     1      -0.245  12.221  21.298  0.00  0.00    +0.000 S 
ATOM     20  O   UNL     1       1.160  12.363  21.596  0.00  0.00    +0.000 OA
ATOM     21  O   UNL     1      -0.833  12.915  20.176  0.00  0.00    +0.000 OA
BRANCH  19  22
ATOM     22  N   UNL     1      -1.124  12.599  22.681  0.00  0.00    +0.000 NA
ATOM     23  C   UNL     1      -1.055  13.988  23.193  0.00  0.00    +0.000 C 
ATOM     24  C   UNL     1      -2.121  14.880  22.574  0.00  0.00    +0.000 C 
ATOM     25  C   UNL     1      -3.514  14.258  22.612  0.00  0.00    +0.000 C 
ATOM     26  C   UNL     1      -3.498  12.839  22.044  0.00  0.00    +0.000 C 
ATOM     27  C   UNL     1      -2.473  12.008  22.801  0.00  0.00    +0.000 C 
ATOM     28  O   UNL     1      -4.032  14.188  23.960  0.00  0.00    +0.000 OA
ATOM     29  C   UNL     1      -5.404  14.577  23.809  0.00  0.00    +0.000 C 
ATOM     30  C   UNL     1      -5.274  15.684  22.805  0.00  0.00    +0.000 C 
ATOM     31  O   UNL     1      -4.400  15.096  21.836  0.00  0.00    +0.000 OA
ENDBRANCH  19  22
ENDBRANCH   4  19
TORSDOF 4
ENDMDL
