MODEL 1
REMARK VINA RESULT:      -9.0      0.000      0.000
REMARK  Name = 
REMARK  9 active torsions:
REMARK  status: ('A' for Active; 'I' for Inactive)
REMARK    1  A    between atoms: N_1  and  C_2
REMARK    2  A    between atoms: C_3  and  C_4
REMARK    3  A    between atoms: C_4  and  O_6
REMARK    4  A    between atoms: N_9  and  C_10
REMARK    5  A    between atoms: C_13  and  C_14
REMARK    6  A    between atoms: C_14  and  C_15
REMARK    7  A    between atoms: C_15  and  C_16
REMARK    8  A    between atoms: C_15  and  C_25
REMARK    9  A    between atoms: C_16  and  C_18
REMARK                            x       y       z     vdW  Elec       q    Type
REMARK                         _______ _______ _______ _____ _____    ______ ____
ROOT
ATOM      1  C   UNL     1       1.251   9.151  19.540  0.00  0.00    +0.000 A 
ATOM      2  C   UNL     1       1.563   8.112  20.427  0.00  0.00    +0.000 A 
ATOM      3  C   UNL     1       2.308   7.011  19.987  0.00  0.00    +0.000 A 
ATOM      4  C   UNL     1       2.790   6.959  18.672  0.00  0.00    +0.000 A 
ATOM      5  C   UNL     1       2.466   7.998  17.791  0.00  0.00    +0.000 A 
ATOM      6  C   UNL     1       1.702   9.086  18.217  0.00  0.00    +0.000 A 
ENDROOT
BRANCH   1  11
ATOM      7  C   UNL     1      -0.677  10.820  19.518  0.00  0.00    +0.000 A 
ATOM      8  C   UNL     1      -0.890  12.010  20.195  0.00  0.00    +0.000 A 
ATOM      9  C   UNL     1       0.202  12.089  21.082  0.00  0.00    +0.000 A 
ATOM     10  N   UNL     1       1.009  11.032  21.034  0.00  0.00    +0.000 NA
ATOM     11  N   UNL     1       0.524  10.286  20.003  0.00  0.00    +0.000 N 
BRANCH   7  12
ATOM     12  N   UNL     1      -1.471  10.211  18.595  0.00  0.00    +0.000 N 
ATOM     13  H   UNL     1      -1.993  10.808  17.946  0.00  0.00    +0.000 HD
ATOM     14  H   UNL     1      -1.983   9.364  18.830  0.00  0.00    +0.000 HD
ENDBRANCH   7  12
BRANCH   8  15
ATOM     15  C   UNL     1      -2.034  12.883  20.007  0.00  0.00    +0.000 C 
ATOM     16  O   UNL     1      -3.191  12.480  19.961  0.00  0.00    +0.000 OA
BRANCH  15  17
ATOM     17  O   UNL     1      -1.763  14.209  19.904  0.00  0.00    +0.000 OA
ATOM     18  H   UNL     1      -0.844  14.425  19.679  0.00  0.00    +0.000 HD
ENDBRANCH  15  17
ENDBRANCH   8  15
ENDBRANCH   1  11
BRANCH   4  19
ATOM     19  C   UNL     1       3.756   5.880  18.243  0.00  0.00    +0.000 C 
BRANCH  19  20
ATOM     20  C   UNL     1       3.217   4.467  17.934  0.00  0.00    +0.000 C 
BRANCH  20  21
ATOM     21  C   UNL     1       2.562   3.856  19.179  0.00  0.00    +0.000 A 
ATOM     22  C   UNL     1       1.173   3.620  19.185  0.00  0.00    +0.000 A 
ATOM     23  C   UNL     1       0.549   3.093  20.318  0.00  0.00    +0.000 A 
ATOM     24  C   UNL     1       1.303   2.801  21.448  0.00  0.00    +0.000 A 
ATOM     25  F   UNL     1       0.702   2.291  22.530  0.00  0.00    +0.000 F 
ATOM     26  C   UNL     1       2.669   3.038  21.472  0.00  0.00    +0.000 A 
ATOM     27  C   UNL     1       3.292   3.577  20.347  0.00  0.00    +0.000 A 
ENDBRANCH  20  21
BRANCH  20  28
ATOM     28  C   UNL     1       4.189   3.527  17.191  0.00  0.00    +0.000 C 
ATOM     29  O   UNL     1       4.116   2.298  17.257  0.00  0.00    +0.000 OA
BRANCH  28  30
ATOM     30  C   UNL     1       5.252   4.078  16.284  0.00  0.00    +0.000 A 
ATOM     31  C   UNL     1       6.488   4.559  16.734  0.00  0.00    +0.000 A 
ATOM     32  C   UNL     1       7.450   4.995  15.815  0.00  0.00    +0.000 A 
ATOM     33  C   UNL     1       7.166   4.988  14.455  0.00  0.00    +0.000 A 
ATOM     34  F   UNL     1       8.096   5.397  13.584  0.00  0.00    +0.000 F 
ATOM     35  C   UNL     1       5.929   4.569  13.991  0.00  0.00    +0.000 A 
ATOM     36  C   UNL     1       4.975   4.114  14.903  0.00  0.00    +0.000 A 
ENDBRANCH  28  30
ENDBRANCH  20  28
ENDBRANCH  19  20
ENDBRANCH   4  19
TORSDOF 9
ENDMDL
MODEL 2
REMARK VINA RESULT:      -8.8      4.394      9.758
REMARK  Name = 
REMARK  9 active torsions:
REMARK  status: ('A' for Active; 'I' for Inactive)
REMARK    1  A    between atoms: N_1  and  C_2
REMARK    2  A    between atoms: C_3  and  C_4
REMARK    3  A    between atoms: C_4  and  O_6
REMARK    4  A    between atoms: N_9  and  C_10
REMARK    5  A    between atoms: C_13  and  C_14
REMARK    6  A    between atoms: C_14  and  C_15
REMARK    7  A    between atoms: C_15  and  C_16
REMARK    8  A    between atoms: C_15  and  C_25
REMARK    9  A    between atoms: C_16  and  C_18
REMARK                            x       y       z     vdW  Elec       q    Type
REMARK                         _______ _______ _______ _____ _____    ______ ____
ROOT
ATOM      1  C   UNL     1       2.942   6.991  18.358  0.00  0.00    +0.000 A 
ATOM      2  C   UNL     1       2.466   6.867  19.670  0.00  0.00    +0.000 A 
ATOM      3  C   UNL     1       1.684   7.883  20.234  0.00  0.00    +0.000 A 
ATOM      4  C   UNL     1       1.331   9.010  19.478  0.00  0.00    +0.000 A 
ATOM      5  C   UNL     1       1.819   9.128  18.171  0.00  0.00    +0.000 A 
ATOM      6  C   UNL     1       2.620   8.130  17.613  0.00  0.00    +0.000 A 
ENDROOT
BRANCH   1  11
ATOM      7  C   UNL     1       4.991   5.984  17.220  0.00  0.00    +0.000 A 
ATOM      8  C   UNL     1       5.227   4.744  16.649  0.00  0.00    +0.000 A 
ATOM      9  C   UNL     1       4.058   4.014  16.942  0.00  0.00    +0.000 A 
ATOM     10  N   UNL     1       3.177   4.686  17.681  0.00  0.00    +0.000 NA
ATOM     11  N   UNL     1       3.706   5.937  17.777  0.00  0.00    +0.000 N 
BRANCH   7  12
ATOM     12  N   UNL     1       5.825   7.057  17.303  0.00  0.00    +0.000 N 
ATOM     13  H   UNL     1       5.773   7.761  16.561  0.00  0.00    +0.000 HD
ATOM     14  H   UNL     1       6.771   6.950  17.663  0.00  0.00    +0.000 HD
ENDBRANCH   7  12
BRANCH   8  15
ATOM     15  C   UNL     1       6.451   4.357  15.973  0.00  0.00    +0.000 C 
ATOM     16  O   UNL     1       7.558   4.405  16.499  0.00  0.00    +0.000 OA
BRANCH  15  17
ATOM     17  O   UNL     1       6.313   3.905  14.700  0.00  0.00    +0.000 OA
ATOM     18  H   UNL     1       5.411   3.947  14.344  0.00  0.00    +0.000 HD
ENDBRANCH  15  17
ENDBRANCH   8  15
ENDBRANCH   1  11
BRANCH   4  19
ATOM     19  C   UNL     1       0.332  10.013  20.003  0.00  0.00    +0.000 C 
BRANCH  19  20
ATOM     20  C   UNL     1      -0.157  11.145  19.075  0.00  0.00    +0.000 C 
BRANCH  20  21
ATOM     21  C   UNL     1       0.649  12.427  19.318  0.00  0.00    +0.000 A 
ATOM     22  C   UNL     1       1.657  12.435  20.302  0.00  0.00    +0.000 A 
ATOM     23  C   UNL     1       2.384  13.600  20.561  0.00  0.00    +0.000 A 
ATOM     24  C   UNL     1       2.111  14.758  19.846  0.00  0.00    +0.000 A 
ATOM     25  F   UNL     1       2.814  15.870  20.094  0.00  0.00    +0.000 F 
ATOM     26  C   UNL     1       1.114  14.779  18.882  0.00  0.00    +0.000 A 
ATOM     27  C   UNL     1       0.377  13.622  18.630  0.00  0.00    +0.000 A 
ENDBRANCH  20  21
BRANCH  20  28
ATOM     28  C   UNL     1      -1.685  11.348  19.014  0.00  0.00    +0.000 C 
ATOM     29  O   UNL     1      -2.333  11.854  19.934  0.00  0.00    +0.000 OA
BRANCH  28  30
ATOM     30  C   UNL     1      -2.461  10.991  17.779  0.00  0.00    +0.000 A 
ATOM     31  C   UNL     1      -3.700  11.555  17.446  0.00  0.00    +0.000 A 
ATOM     32  C   UNL     1      -4.327  11.216  16.242  0.00  0.00    +0.000 A 
ATOM     33  C   UNL     1      -3.741  10.288  15.390  0.00  0.00    +0.000 A 
ATOM     34  F   UNL     1      -4.344   9.978  14.236  0.00  0.00    +0.000 F 
ATOM     35  C   UNL     1      -2.544   9.675  15.725  0.00  0.00    +0.000 A 
ATOM     36  C   UNL     1      -1.905  10.026  16.915  0.00  0.00    +0.000 A 
ENDBRANCH  28  30
ENDBRANCH  20  28
ENDBRANCH  19  20
ENDBRANCH   4  19
TORSDOF 9
ENDMDL
MODEL 3
REMARK VINA RESULT:      -8.8      0.368      1.064
REMARK  Name = 
REMARK  9 active torsions:
REMARK  status: ('A' for Active; 'I' for Inactive)
REMARK    1  A    between atoms: N_1  and  C_2
REMARK    2  A    between atoms: C_3  and  C_4
REMARK    3  A    between atoms: C_4  and  O_6
REMARK    4  A    between atoms: N_9  and  C_10
REMARK    5  A    between atoms: C_13  and  C_14
REMARK    6  A    between atoms: C_14  and  C_15
REMARK    7  A    between atoms: C_15  and  C_16
REMARK    8  A    between atoms: C_15  and  C_25
REMARK    9  A    between atoms: C_16  and  C_18
REMARK                            x       y       z     vdW  Elec       q    Type
REMARK                         _______ _______ _______ _____ _____    ______ ____
ROOT
ATOM      1  C   UNL     1       1.408   9.108  19.415  0.00  0.00    +0.000 A 
ATOM      2  C   UNL     1       1.668   8.041  20.285  0.00  0.00    +0.000 A 
ATOM      3  C   UNL     1       2.384   6.925  19.835  0.00  0.00    +0.000 A 
ATOM      4  C   UNL     1       2.889   6.884  18.528  0.00  0.00    +0.000 A 
ATOM      5  C   UNL     1       2.618   7.952  17.664  0.00  0.00    +0.000 A 
ATOM      6  C   UNL     1       1.882   9.056  18.100  0.00  0.00    +0.000 A 
ENDROOT
BRANCH   1  11
ATOM      7  C   UNL     1      -0.221  11.060  19.219  0.00  0.00    +0.000 A 
ATOM      8  C   UNL     1      -0.489  12.140  20.045  0.00  0.00    +0.000 A 
ATOM      9  C   UNL     1       0.289  11.884  21.191  0.00  0.00    +0.000 A 
ATOM     10  N   UNL     1       0.948  10.728  21.145  0.00  0.00    +0.000 NA
ATOM     11  N   UNL     1       0.711  10.257  19.889  0.00  0.00    +0.000 N 
BRANCH   7  12
ATOM     12  N   UNL     1      -0.767  10.757  18.009  0.00  0.00    +0.000 N 
ATOM     13  H   UNL     1      -1.725  11.071  17.825  0.00  0.00    +0.000 HD
ATOM     14  H   UNL     1      -0.563   9.868  17.557  0.00  0.00    +0.000 HD
ENDBRANCH   7  12
BRANCH   8  15
ATOM     15  C   UNL     1      -1.417  13.213  19.740  0.00  0.00    +0.000 C 
ATOM     16  O   UNL     1      -1.144  14.401  19.872  0.00  0.00    +0.000 OA
BRANCH  15  17
ATOM     17  O   UNL     1      -2.632  12.836  19.265  0.00  0.00    +0.000 OA
ATOM     18  H   UNL     1      -3.353  13.463  19.433  0.00  0.00    +0.000 HD
ENDBRANCH  15  17
ENDBRANCH   8  15
ENDBRANCH   1  11
BRANCH   4  19
ATOM     19  C   UNL     1       3.826   5.783  18.093  0.00  0.00    +0.000 C 
BRANCH  19  20
ATOM     20  C   UNL     1       3.257   4.375  17.816  0.00  0.00    +0.000 C 
BRANCH  20  21
ATOM     21  C   UNL     1       2.602   3.801  19.079  0.00  0.00    +0.000 A 
ATOM     22  C   UNL     1       1.204   3.638  19.122  0.00  0.00    +0.000 A 
ATOM     23  C   UNL     1       0.583   3.145  20.272  0.00  0.00    +0.000 A 
ATOM     24  C   UNL     1       1.349   2.815  21.383  0.00  0.00    +0.000 A 
ATOM     25  F   UNL     1       0.750   2.339  22.481  0.00  0.00    +0.000 F 
ATOM     26  C   UNL     1       2.726   2.980  21.371  0.00  0.00    +0.000 A 
ATOM     27  C   UNL     1       3.347   3.485  20.229  0.00  0.00    +0.000 A 
ENDBRANCH  20  21
BRANCH  20  28
ATOM     28  C   UNL     1       4.202   3.402  17.082  0.00  0.00    +0.000 C 
ATOM     29  O   UNL     1       4.132   2.177  17.205  0.00  0.00    +0.000 OA
BRANCH  28  30
ATOM     30  C   UNL     1       5.231   3.911  16.113  0.00  0.00    +0.000 A 
ATOM     31  C   UNL     1       5.048   3.937  14.725  0.00  0.00    +0.000 A 
ATOM     32  C   UNL     1       6.031   4.489  13.896  0.00  0.00    +0.000 A 
ATOM     33  C   UNL     1       7.210   4.978  14.445  0.00  0.00    +0.000 A 
ATOM     34  F   UNL     1       8.139   5.513  13.645  0.00  0.00    +0.000 F 
ATOM     35  C   UNL     1       7.437   4.912  15.812  0.00  0.00    +0.000 A 
ATOM     36  C   UNL     1       6.449   4.380  16.643  0.00  0.00    +0.000 A 
ENDBRANCH  28  30
ENDBRANCH  20  28
ENDBRANCH  19  20
ENDBRANCH   4  19
TORSDOF 9
ENDMDL
MODEL 4
REMARK VINA RESULT:      -8.8      4.367      9.814
REMARK  Name = 
REMARK  9 active torsions:
REMARK  status: ('A' for Active; 'I' for Inactive)
REMARK    1  A    between atoms: N_1  and  C_2
REMARK    2  A    between atoms: C_3  and  C_4
REMARK    3  A    between atoms: C_4  and  O_6
REMARK    4  A    between atoms: N_9  and  C_10
REMARK    5  A    between atoms: C_13  and  C_14
REMARK    6  A    between atoms: C_14  and  C_15
REMARK    7  A    between atoms: C_15  and  C_16
REMARK    8  A    between atoms: C_15  and  C_25
REMARK    9  A    between atoms: C_16  and  C_18
REMARK                            x       y       z     vdW  Elec       q    Type
REMARK                         _______ _______ _______ _____ _____    ______ ____
ROOT
ATOM      1  C   UNL     1       2.848   6.899  18.344  0.00  0.00    +0.000 A 
ATOM      2  C   UNL     1       2.540   8.035  17.583  0.00  0.00    +0.000 A 
ATOM      3  C   UNL     1       1.791   9.076  18.145  0.00  0.00    +0.000 A 
ATOM      4  C   UNL     1       1.383   9.016  19.485  0.00  0.00    +0.000 A 
ATOM      5  C   UNL     1       1.689   7.873  20.234  0.00  0.00    +0.000 A 
ATOM      6  C   UNL     1       2.413   6.821  19.671  0.00  0.00    +0.000 A 
ENDROOT
BRANCH   1  11
ATOM      7  C   UNL     1       4.927   5.936  17.225  0.00  0.00    +0.000 A 
ATOM      8  C   UNL     1       5.199   4.696  16.669  0.00  0.00    +0.000 A 
ATOM      9  C   UNL     1       4.049   3.937  16.967  0.00  0.00    +0.000 A 
ATOM     10  N   UNL     1       3.148   4.594  17.695  0.00  0.00    +0.000 NA
ATOM     11  N   UNL     1       3.642   5.860  17.778  0.00  0.00    +0.000 N 
BRANCH   7  12
ATOM     12  N   UNL     1       5.731   7.031  17.297  0.00  0.00    +0.000 N 
ATOM     13  H   UNL     1       6.553   7.062  16.687  0.00  0.00    +0.000 HD
ATOM     14  H   UNL     1       5.902   7.490  18.190  0.00  0.00    +0.000 HD
ENDBRANCH   7  12
BRANCH   8  15
ATOM     15  C   UNL     1       6.435   4.334  16.001  0.00  0.00    +0.000 C 
ATOM     16  O   UNL     1       6.479   3.866  14.868  0.00  0.00    +0.000 OA
BRANCH  15  17
ATOM     17  O   UNL     1       7.578   4.565  16.695  0.00  0.00    +0.000 OA
ATOM     18  H   UNL     1       8.208   3.827  16.709  0.00  0.00    +0.000 HD
ENDBRANCH  15  17
ENDBRANCH   8  15
ENDBRANCH   1  11
BRANCH   4  19
ATOM     19  C   UNL     1       0.750  10.211  20.157  0.00  0.00    +0.000 C 
BRANCH  19  20
ATOM     20  C   UNL     1       0.113  11.315  19.287  0.00  0.00    +0.000 C 
BRANCH  20  21
ATOM     21  C   UNL     1       0.833  12.652  19.501  0.00  0.00    +0.000 A 
ATOM     22  C   UNL     1       0.438  13.779  18.754  0.00  0.00    +0.000 A 
ATOM     23  C   UNL     1       1.099  15.000  18.910  0.00  0.00    +0.000 A 
ATOM     24  C   UNL     1       2.154  15.104  19.807  0.00  0.00    +0.000 A 
ATOM     25  F   UNL     1       2.782  16.277  19.958  0.00  0.00    +0.000 F 
ATOM     26  C   UNL     1       2.571  14.005  20.544  0.00  0.00    +0.000 A 
ATOM     27  C   UNL     1       1.922  12.782  20.380  0.00  0.00    +0.000 A 
ENDBRANCH  20  21
BRANCH  20  28
ATOM     28  C   UNL     1      -1.427  11.398  19.331  0.00  0.00    +0.000 C 
ATOM     29  O   UNL     1      -2.049  11.790  20.321  0.00  0.00    +0.000 OA
BRANCH  28  30
ATOM     30  C   UNL     1      -2.252  11.059  18.123  0.00  0.00    +0.000 A 
ATOM     31  C   UNL     1      -3.502  11.629  17.849  0.00  0.00    +0.000 A 
ATOM     32  C   UNL     1      -4.178  11.307  16.666  0.00  0.00    +0.000 A 
ATOM     33  C   UNL     1      -3.627  10.393  15.777  0.00  0.00    +0.000 A 
ATOM     34  F   UNL     1      -4.276  10.100  14.644  0.00  0.00    +0.000 F 
ATOM     35  C   UNL     1      -2.417   9.774  16.054  0.00  0.00    +0.000 A 
ATOM     36  C   UNL     1      -1.732  10.107  17.224  0.00  0.00    +0.000 A 
ENDBRANCH  28  30
ENDBRANCH  20  28
ENDBRANCH  19  20
ENDBRANCH   4  19
TORSDOF 9
ENDMDL
MODEL 5
REMARK VINA RESULT:      -8.7      0.322      1.232
REMARK  Name = 
REMARK  9 active torsions:
REMARK  status: ('A' for Active; 'I' for Inactive)
REMARK    1  A    between atoms: N_1  and  C_2
REMARK    2  A    between atoms: C_3  and  C_4
REMARK    3  A    between atoms: C_4  and  O_6
REMARK    4  A    between atoms: N_9  and  C_10
REMARK    5  A    between atoms: C_13  and  C_14
REMARK    6  A    between atoms: C_14  and  C_15
REMARK    7  A    between atoms: C_15  and  C_16
REMARK    8  A    between atoms: C_15  and  C_25
REMARK    9  A    between atoms: C_16  and  C_18
REMARK                            x       y       z     vdW  Elec       q    Type
REMARK                         _______ _______ _______ _____ _____    ______ ____
ROOT
ATOM      1  C   UNL     1       1.305   9.126  19.568  0.00  0.00    +0.000 A 
ATOM      2  C   UNL     1       1.599   8.033  20.396  0.00  0.00    +0.000 A 
ATOM      3  C   UNL     1       2.330   6.949  19.896  0.00  0.00    +0.000 A 
ATOM      4  C   UNL     1       2.815   6.964  18.581  0.00  0.00    +0.000 A 
ATOM      5  C   UNL     1       2.509   8.056  17.759  0.00  0.00    +0.000 A 
ATOM      6  C   UNL     1       1.758   9.129  18.245  0.00  0.00    +0.000 A 
ENDROOT
BRANCH   1  11
ATOM      7  C   UNL     1      -0.656  10.750  19.710  0.00  0.00    +0.000 A 
ATOM      8  C   UNL     1      -0.840  11.934  20.406  0.00  0.00    +0.000 A 
ATOM      9  C   UNL     1       0.318  12.035  21.203  0.00  0.00    +0.000 A 
ATOM     10  N   UNL     1       1.143  10.996  21.085  0.00  0.00    +0.000 NA
ATOM     11  N   UNL     1       0.593  10.243  20.093  0.00  0.00    +0.000 N 
BRANCH   7  12
ATOM     12  N   UNL     1      -1.508  10.126  18.851  0.00  0.00    +0.000 N 
ATOM     13  H   UNL     1      -2.468  10.479  18.791  0.00  0.00    +0.000 HD
ATOM     14  H   UNL     1      -1.462   9.119  18.717  0.00  0.00    +0.000 HD
ENDBRANCH   7  12
BRANCH   8  15
ATOM     15  C   UNL     1      -2.014  12.781  20.316  0.00  0.00    +0.000 C 
ATOM     16  O   UNL     1      -2.854  12.679  19.428  0.00  0.00    +0.000 OA
BRANCH  15  17
ATOM     17  O   UNL     1      -2.162  13.705  21.298  0.00  0.00    +0.000 OA
ATOM     18  H   UNL     1      -3.077  13.976  21.476  0.00  0.00    +0.000 HD
ENDBRANCH  15  17
ENDBRANCH   8  15
ENDBRANCH   1  11
BRANCH   4  19
ATOM     19  C   UNL     1       3.766   5.898  18.093  0.00  0.00    +0.000 C 
BRANCH  19  20
ATOM     20  C   UNL     1       3.231   4.474  17.829  0.00  0.00    +0.000 C 
BRANCH  20  21
ATOM     21  C   UNL     1       2.538   3.919  19.080  0.00  0.00    +0.000 A 
ATOM     22  C   UNL     1       3.310   3.600  20.215  0.00  0.00    +0.000 A 
ATOM     23  C   UNL     1       2.705   3.064  21.355  0.00  0.00    +0.000 A 
ATOM     24  C   UNL     1       1.334   2.842  21.369  0.00  0.00    +0.000 A 
ATOM     25  F   UNL     1       0.758   2.334  22.465  0.00  0.00    +0.000 F 
ATOM     26  C   UNL     1       0.555   3.134  20.259  0.00  0.00    +0.000 A 
ATOM     27  C   UNL     1       1.158   3.656  19.116  0.00  0.00    +0.000 A 
ENDBRANCH  20  21
BRANCH  20  28
ATOM     28  C   UNL     1       4.219   3.501  17.155  0.00  0.00    +0.000 C 
ATOM     29  O   UNL     1       4.197   2.282  17.345  0.00  0.00    +0.000 OA
BRANCH  28  30
ATOM     30  C   UNL     1       5.235   3.996  16.165  0.00  0.00    +0.000 A 
ATOM     31  C   UNL     1       5.021   4.032  14.781  0.00  0.00    +0.000 A 
ATOM     32  C   UNL     1       5.994   4.570  13.932  0.00  0.00    +0.000 A 
ATOM     33  C   UNL     1       7.193   5.036  14.457  0.00  0.00    +0.000 A 
ATOM     34  F   UNL     1       8.114   5.559  13.638  0.00  0.00    +0.000 F 
ATOM     35  C   UNL     1       7.450   4.960  15.817  0.00  0.00    +0.000 A 
ATOM     36  C   UNL     1       6.473   4.442  16.669  0.00  0.00    +0.000 A 
ENDBRANCH  28  30
ENDBRANCH  20  28
ENDBRANCH  19  20
ENDBRANCH   4  19
TORSDOF 9
ENDMDL
MODEL 6
REMARK VINA RESULT:      -8.6      4.064     10.214
REMARK  Name = 
REMARK  9 active torsions:
REMARK  status: ('A' for Active; 'I' for Inactive)
REMARK    1  A    between atoms: N_1  and  C_2
REMARK    2  A    between atoms: C_3  and  C_4
REMARK    3  A    between atoms: C_4  and  O_6
REMARK    4  A    between atoms: N_9  and  C_10
REMARK    5  A    between atoms: C_13  and  C_14
REMARK    6  A    between atoms: C_14  and  C_15
REMARK    7  A    between atoms: C_15  and  C_16
REMARK    8  A    between atoms: C_15  and  C_25
REMARK    9  A    between atoms: C_16  and  C_18
REMARK                            x       y       z     vdW  Elec       q    Type
REMARK                         _______ _______ _______ _____ _____    ______ ____
ROOT
ATOM      1  C   UNL     1       2.362   7.374  18.890  0.00  0.00    +0.000 A 
ATOM      2  C   UNL     1       1.633   7.838  19.994  0.00  0.00    +0.000 A 
ATOM      3  C   UNL     1       1.121   9.141  20.001  0.00  0.00    +0.000 A 
ATOM      4  C   UNL     1       1.289   9.978  18.889  0.00  0.00    +0.000 A 
ATOM      5  C   UNL     1       2.026   9.508  17.794  0.00  0.00    +0.000 A 
ATOM      6  C   UNL     1       2.561   8.218  17.792  0.00  0.00    +0.000 A 
ENDROOT
BRANCH   1  11
ATOM      7  C   UNL     1       2.923   5.112  19.924  0.00  0.00    +0.000 A 
ATOM      8  C   UNL     1       3.615   4.011  19.444  0.00  0.00    +0.000 A 
ATOM      9  C   UNL     1       3.879   4.343  18.100  0.00  0.00    +0.000 A 
ATOM     10  N   UNL     1       3.361   5.511  17.725  0.00  0.00    +0.000 NA
ATOM     11  N   UNL     1       2.849   6.035  18.873  0.00  0.00    +0.000 N 
BRANCH   7  12
ATOM     12  N   UNL     1       2.356   5.294  21.148  0.00  0.00    +0.000 N 
ATOM     13  H   UNL     1       2.965   5.233  21.970  0.00  0.00    +0.000 HD
ATOM     14  H   UNL     1       1.419   4.949  21.341  0.00  0.00    +0.000 HD
ENDBRANCH   7  12
BRANCH   8  15
ATOM     15  C   UNL     1       3.904   2.811  20.206  0.00  0.00    +0.000 C 
ATOM     16  O   UNL     1       3.230   2.437  21.160  0.00  0.00    +0.000 OA
BRANCH  15  17
ATOM     17  O   UNL     1       4.973   2.084  19.792  0.00  0.00    +0.000 OA
ATOM     18  H   UNL     1       5.713   2.604  19.439  0.00  0.00    +0.000 HD
ENDBRANCH  15  17
ENDBRANCH   8  15
ENDBRANCH   1  11
BRANCH   4  19
ATOM     19  C   UNL     1       0.577  11.306  18.804  0.00  0.00    +0.000 C 
BRANCH  19  20
ATOM     20  C   UNL     1      -0.907  11.394  19.220  0.00  0.00    +0.000 C 
BRANCH  20  21
ATOM     21  C   UNL     1      -1.819  11.045  18.038  0.00  0.00    +0.000 A 
ATOM     22  C   UNL     1      -3.040  11.731  17.879  0.00  0.00    +0.000 A 
ATOM     23  C   UNL     1      -3.901  11.410  16.827  0.00  0.00    +0.000 A 
ATOM     24  C   UNL     1      -3.554  10.406  15.933  0.00  0.00    +0.000 A 
ATOM     25  F   UNL     1      -4.380  10.104  14.924  0.00  0.00    +0.000 F 
ATOM     26  C   UNL     1      -2.365   9.705  16.077  0.00  0.00    +0.000 A 
ATOM     27  C   UNL     1      -1.510  10.015  17.134  0.00  0.00    +0.000 A 
ENDBRANCH  20  21
BRANCH  20  28
ATOM     28  C   UNL     1      -1.311  12.666  19.993  0.00  0.00    +0.000 C 
ATOM     29  O   UNL     1      -1.033  13.804  19.606  0.00  0.00    +0.000 OA
BRANCH  28  30
ATOM     30  C   UNL     1      -2.136  12.578  21.245  0.00  0.00    +0.000 A 
ATOM     31  C   UNL     1      -3.432  13.098  21.363  0.00  0.00    +0.000 A 
ATOM     32  C   UNL     1      -4.158  12.915  22.545  0.00  0.00    +0.000 A 
ATOM     33  C   UNL     1      -3.582  12.251  23.620  0.00  0.00    +0.000 A 
ATOM     34  F   UNL     1      -4.288  12.073  24.742  0.00  0.00    +0.000 F 
ATOM     35  C   UNL     1      -2.280  11.777  23.546  0.00  0.00    +0.000 A 
ATOM     36  C   UNL     1      -1.560  11.940  22.361  0.00  0.00    +0.000 A 
ENDBRANCH  28  30
ENDBRANCH  20  28
ENDBRANCH  19  20
ENDBRANCH   4  19
TORSDOF 9
ENDMDL
MODEL 7
REMARK VINA RESULT:      -8.6      4.444     10.221
REMARK  Name = 
REMARK  9 active torsions:
REMARK  status: ('A' for Active; 'I' for Inactive)
REMARK    1  A    between atoms: N_1  and  C_2
REMARK    2  A    between atoms: C_3  and  C_4
REMARK    3  A    between atoms: C_4  and  O_6
REMARK    4  A    between atoms: N_9  and  C_10
REMARK    5  A    between atoms: C_13  and  C_14
REMARK    6  A    between atoms: C_14  and  C_15
REMARK    7  A    between atoms: C_15  and  C_16
REMARK    8  A    between atoms: C_15  and  C_25
REMARK    9  A    between atoms: C_16  and  C_18
REMARK                            x       y       z     vdW  Elec       q    Type
REMARK                         _______ _______ _______ _____ _____    ______ ____
ROOT
ATOM      1  C   UNL     1       2.161   6.554  19.470  0.00  0.00    +0.000 A 
ATOM      2  C   UNL     1       1.636   7.322  20.519  0.00  0.00    +0.000 A 
ATOM      3  C   UNL     1       1.338   8.675  20.320  0.00  0.00    +0.000 A 
ATOM      4  C   UNL     1       1.515   9.264  19.060  0.00  0.00    +0.000 A 
ATOM      5  C   UNL     1       2.049   8.491  18.021  0.00  0.00    +0.000 A 
ATOM      6  C   UNL     1       2.372   7.148  18.221  0.00  0.00    +0.000 A 
ENDROOT
BRANCH   1  11
ATOM      7  C   UNL     1       3.646   4.483  19.567  0.00  0.00    +0.000 A 
ATOM      8  C   UNL     1       3.359   3.133  19.694  0.00  0.00    +0.000 A 
ATOM      9  C   UNL     1       1.966   3.107  19.904  0.00  0.00    +0.000 A 
ATOM     10  N   UNL     1       1.410   4.315  19.970  0.00  0.00    +0.000 NA
ATOM     11  N   UNL     1       2.428   5.169  19.669  0.00  0.00    +0.000 N 
BRANCH   7  12
ATOM     12  N   UNL     1       4.858   5.087  19.426  0.00  0.00    +0.000 N 
ATOM     13  H   UNL     1       5.109   5.441  18.498  0.00  0.00    +0.000 HD
ATOM     14  H   UNL     1       5.669   4.745  19.937  0.00  0.00    +0.000 HD
ENDBRANCH   7  12
BRANCH   8  15
ATOM     15  C   UNL     1       4.341   2.065  19.661  0.00  0.00    +0.000 C 
ATOM     16  O   UNL     1       5.209   1.920  20.515  0.00  0.00    +0.000 OA
BRANCH  15  17
ATOM     17  O   UNL     1       4.240   1.193  18.627  0.00  0.00    +0.000 OA
ATOM     18  H   UNL     1       5.080   0.963  18.198  0.00  0.00    +0.000 HD
ENDBRANCH  15  17
ENDBRANCH   8  15
ENDBRANCH   1  11
BRANCH   4  19
ATOM     19  C   UNL     1       1.016  10.661  18.780  0.00  0.00    +0.000 C 
BRANCH  19  20
ATOM     20  C   UNL     1      -0.317  11.124  19.408  0.00  0.00    +0.000 C 
BRANCH  20  21
ATOM     21  C   UNL     1      -1.468  10.964  18.406  0.00  0.00    +0.000 A 
ATOM     22  C   UNL     1      -1.352  10.026  17.362  0.00  0.00    +0.000 A 
ATOM     23  C   UNL     1      -2.375   9.884  16.421  0.00  0.00    +0.000 A 
ATOM     24  C   UNL     1      -3.512  10.675  16.513  0.00  0.00    +0.000 A 
ATOM     25  F   UNL     1      -4.492  10.532  15.612  0.00  0.00    +0.000 F 
ATOM     26  C   UNL     1      -3.643  11.617  17.523  0.00  0.00    +0.000 A 
ATOM     27  C   UNL     1      -2.619  11.770  18.456  0.00  0.00    +0.000 A 
ENDBRANCH  20  21
BRANCH  20  28
ATOM     28  C   UNL     1      -0.279  12.485  20.133  0.00  0.00    +0.000 C 
ATOM     29  O   UNL     1       0.399  13.437  19.738  0.00  0.00    +0.000 OA
BRANCH  28  30
ATOM     30  C   UNL     1      -1.133  12.738  21.342  0.00  0.00    +0.000 A 
ATOM     31  C   UNL     1      -1.645  13.997  21.684  0.00  0.00    +0.000 A 
ATOM     32  C   UNL     1      -2.488  14.135  22.792  0.00  0.00    +0.000 A 
ATOM     33  C   UNL     1      -2.789  13.031  23.579  0.00  0.00    +0.000 A 
ATOM     34  F   UNL     1      -3.605  13.172  24.631  0.00  0.00    +0.000 F 
ATOM     35  C   UNL     1      -2.249  11.787  23.293  0.00  0.00    +0.000 A 
ATOM     36  C   UNL     1      -1.424  11.641  22.176  0.00  0.00    +0.000 A 
ENDBRANCH  28  30
ENDBRANCH  20  28
ENDBRANCH  19  20
ENDBRANCH   4  19
TORSDOF 9
ENDMDL
MODEL 8
REMARK VINA RESULT:      -8.6      4.436      9.877
REMARK  Name = 
REMARK  9 active torsions:
REMARK  status: ('A' for Active; 'I' for Inactive)
REMARK    1  A    between atoms: N_1  and  C_2
REMARK    2  A    between atoms: C_3  and  C_4
REMARK    3  A    between atoms: C_4  and  O_6
REMARK    4  A    between atoms: N_9  and  C_10
REMARK    5  A    between atoms: C_13  and  C_14
REMARK    6  A    between atoms: C_14  and  C_15
REMARK    7  A    between atoms: C_15  and  C_16
REMARK    8  A    between atoms: C_15  and  C_25
REMARK    9  A    between atoms: C_16  and  C_18
REMARK                            x       y       z     vdW  Elec       q    Type
REMARK                         _______ _______ _______ _____ _____    ______ ____
ROOT
ATOM      1  C   UNL     1       2.506   6.971  19.197  0.00  0.00    +0.000 A 
ATOM      2  C   UNL     1       2.350   7.905  18.164  0.00  0.00    +0.000 A 
ATOM      3  C   UNL     1       1.654   9.099  18.394  0.00  0.00    +0.000 A 
ATOM      4  C   UNL     1       1.150   9.393  19.668  0.00  0.00    +0.000 A 
ATOM      5  C   UNL     1       1.304   8.450  20.692  0.00  0.00    +0.000 A 
ATOM      6  C   UNL     1       1.974   7.247  20.461  0.00  0.00    +0.000 A 
ENDROOT
BRANCH   1  11
ATOM      7  C   UNL     1       2.891   4.451  19.253  0.00  0.00    +0.000 A 
ATOM      8  C   UNL     1       4.006   3.670  18.992  0.00  0.00    +0.000 A 
ATOM      9  C   UNL     1       4.959   4.596  18.523  0.00  0.00    +0.000 A 
ATOM     10  N   UNL     1       4.496   5.841  18.429  0.00  0.00    +0.000 NA
ATOM     11  N   UNL     1       3.247   5.776  18.968  0.00  0.00    +0.000 N 
BRANCH   7  12
ATOM     12  N   UNL     1       1.651   4.058  19.656  0.00  0.00    +0.000 N 
ATOM     13  H   UNL     1       1.526   3.079  19.929  0.00  0.00    +0.000 HD
ATOM     14  H   UNL     1       0.818   4.441  19.214  0.00  0.00    +0.000 HD
ENDBRANCH   7  12
BRANCH   8  15
ATOM     15  C   UNL     1       4.067   2.228  19.142  0.00  0.00    +0.000 C 
ATOM     16  O   UNL     1       3.315   1.455  18.559  0.00  0.00    +0.000 OA
BRANCH  15  17
ATOM     17  O   UNL     1       5.039   1.754  19.963  0.00  0.00    +0.000 OA
ATOM     18  H   UNL     1       5.263   0.818  19.838  0.00  0.00    +0.000 HD
ENDBRANCH  15  17
ENDBRANCH   8  15
ENDBRANCH   1  11
BRANCH   4  19
ATOM     19  C   UNL     1       0.574  10.754  19.978  0.00  0.00    +0.000 C 
BRANCH  19  20
ATOM     20  C   UNL     1      -0.113  11.556  18.852  0.00  0.00    +0.000 C 
BRANCH  20  21
ATOM     21  C   UNL     1       0.450  12.981  18.785  0.00  0.00    +0.000 A 
ATOM     22  C   UNL     1       1.836  13.172  18.625  0.00  0.00    +0.000 A 
ATOM     23  C   UNL     1       2.375  14.460  18.591  0.00  0.00    +0.000 A 
ATOM     24  C   UNL     1       1.539  15.561  18.718  0.00  0.00    +0.000 A 
ATOM     25  F   UNL     1       2.059  16.795  18.680  0.00  0.00    +0.000 F 
ATOM     26  C   UNL     1       0.172  15.400  18.892  0.00  0.00    +0.000 A 
ATOM     27  C   UNL     1      -0.366  14.115  18.939  0.00  0.00    +0.000 A 
ENDBRANCH  20  21
BRANCH  20  28
ATOM     28  C   UNL     1      -1.653  11.469  18.812  0.00  0.00    +0.000 C 
ATOM     29  O   UNL     1      -2.369  11.800  19.760  0.00  0.00    +0.000 OA
BRANCH  28  30
ATOM     30  C   UNL     1      -2.368  11.030  17.566  0.00  0.00    +0.000 A 
ATOM     31  C   UNL     1      -1.858  10.083  16.668  0.00  0.00    +0.000 A 
ATOM     32  C   UNL     1      -2.618   9.679  15.565  0.00  0.00    +0.000 A 
ATOM     33  C   UNL     1      -3.865  10.246  15.335  0.00  0.00    +0.000 A 
ATOM     34  F   UNL     1      -4.589   9.846  14.283  0.00  0.00    +0.000 F 
ATOM     35  C   UNL     1      -4.366  11.226  16.179  0.00  0.00    +0.000 A 
ATOM     36  C   UNL     1      -3.619  11.615  17.292  0.00  0.00    +0.000 A 
ENDBRANCH  28  30
ENDBRANCH  20  28
ENDBRANCH  19  20
ENDBRANCH   4  19
TORSDOF 9
ENDMDL
MODEL 9
REMARK VINA RESULT:      -8.6      4.350      9.800
REMARK  Name = 
REMARK  9 active torsions:
REMARK  status: ('A' for Active; 'I' for Inactive)
REMARK    1  A    between atoms: N_1  and  C_2
REMARK    2  A    between atoms: C_3  and  C_4
REMARK    3  A    between atoms: C_4  and  O_6
REMARK    4  A    between atoms: N_9  and  C_10
REMARK    5  A    between atoms: C_13  and  C_14
REMARK    6  A    between atoms: C_14  and  C_15
REMARK    7  A    between atoms: C_15  and  C_16
REMARK    8  A    between atoms: C_15  and  C_25
REMARK    9  A    between atoms: C_16  and  C_18
REMARK                            x       y       z     vdW  Elec       q    Type
REMARK                         _______ _______ _______ _____ _____    ______ ____
ROOT
ATOM      1  C   UNL     1       2.713   6.872  18.997  0.00  0.00    +0.000 A 
ATOM      2  C   UNL     1       2.678   7.670  17.846  0.00  0.00    +0.000 A 
ATOM      3  C   UNL     1       1.960   8.872  17.845  0.00  0.00    +0.000 A 
ATOM      4  C   UNL     1       1.310   9.313  19.006  0.00  0.00    +0.000 A 
ATOM      5  C   UNL     1       1.344   8.504  20.149  0.00  0.00    +0.000 A 
ATOM      6  C   UNL     1       2.037   7.292  20.147  0.00  0.00    +0.000 A 
ENDROOT
BRANCH   1  11
ATOM      7  C   UNL     1       3.026   4.341  19.027  0.00  0.00    +0.000 A 
ATOM      8  C   UNL     1       4.146   3.540  19.185  0.00  0.00    +0.000 A 
ATOM      9  C   UNL     1       5.213   4.460  19.208  0.00  0.00    +0.000 A 
ATOM     10  N   UNL     1       4.836   5.724  19.022  0.00  0.00    +0.000 NA
ATOM     11  N   UNL     1       3.476   5.668  19.003  0.00  0.00    +0.000 N 
BRANCH   7  12
ATOM     12  N   UNL     1       1.728   3.967  18.867  0.00  0.00    +0.000 N 
ATOM     13  H   UNL     1       1.531   2.971  18.726  0.00  0.00    +0.000 HD
ATOM     14  H   UNL     1       1.078   4.560  18.355  0.00  0.00    +0.000 HD
ENDBRANCH   7  12
BRANCH   8  15
ATOM     15  C   UNL     1       4.133   2.091  19.246  0.00  0.00    +0.000 C 
ATOM     16  O   UNL     1       3.313   1.397  18.654  0.00  0.00    +0.000 OA
BRANCH  15  17
ATOM     17  O   UNL     1       5.110   1.515  19.992  0.00  0.00    +0.000 OA
ATOM     18  H   UNL     1       4.839   1.236  20.881  0.00  0.00    +0.000 HD
ENDBRANCH  15  17
ENDBRANCH   8  15
ENDBRANCH   1  11
BRANCH   4  19
ATOM     19  C   UNL     1       0.702  10.693  19.078  0.00  0.00    +0.000 C 
BRANCH  19  20
ATOM     20  C   UNL     1      -0.743  10.854  19.597  0.00  0.00    +0.000 C 
BRANCH  20  21
ATOM     21  C   UNL     1      -1.742  10.796  18.435  0.00  0.00    +0.000 A 
ATOM     22  C   UNL     1      -2.932  11.546  18.506  0.00  0.00    +0.000 A 
ATOM     23  C   UNL     1      -3.871  11.486  17.473  0.00  0.00    +0.000 A 
ATOM     24  C   UNL     1      -3.631  10.678  16.369  0.00  0.00    +0.000 A 
ATOM     25  F   UNL     1      -4.531  10.627  15.379  0.00  0.00    +0.000 F 
ATOM     26  C   UNL     1      -2.474   9.918  16.283  0.00  0.00    +0.000 A 
ATOM     27  C   UNL     1      -1.542   9.966  17.318  0.00  0.00    +0.000 A 
ENDBRANCH  20  21
BRANCH  20  28
ATOM     28  C   UNL     1      -0.974  12.013  20.587  0.00  0.00    +0.000 C 
ATOM     29  O   UNL     1      -1.689  11.909  21.587  0.00  0.00    +0.000 OA
BRANCH  28  30
ATOM     30  C   UNL     1      -0.272  13.329  20.411  0.00  0.00    +0.000 A 
ATOM     31  C   UNL     1      -0.501  14.197  19.335  0.00  0.00    +0.000 A 
ATOM     32  C   UNL     1       0.147  15.436  19.280  0.00  0.00    +0.000 A 
ATOM     33  C   UNL     1       1.050  15.793  20.273  0.00  0.00    +0.000 A 
ATOM     34  F   UNL     1       1.657  16.984  20.217  0.00  0.00    +0.000 F 
ATOM     35  C   UNL     1       1.335  14.927  21.318  0.00  0.00    +0.000 A 
ATOM     36  C   UNL     1       0.675  13.699  21.387  0.00  0.00    +0.000 A 
ENDBRANCH  28  30
ENDBRANCH  20  28
ENDBRANCH  19  20
ENDBRANCH   4  19
TORSDOF 9
ENDMDL
