MODEL 1
REMARK VINA RESULT:      -7.6      0.000      0.000
REMARK  Name = 
REMARK  6 active torsions:
REMARK  status: ('A' for Active; 'I' for Inactive)
REMARK    1  A    between atoms: C_1  and  C_2
REMARK    2  A    between atoms: C_5  and  N_6
REMARK    3  A    between atoms: C_7  and  C_9
REMARK    4  A    between atoms: C_9  and  C_10
REMARK    5  A    between atoms: C_10  and  C_12
REMARK    6  A    between atoms: C_19  and  C_20
REMARK                            x       y       z     vdW  Elec       q    Type
REMARK                         _______ _______ _______ _____ _____    ______ ____
ROOT
ATOM      1  N   UNL     1       5.226   4.131  17.795  0.00  0.00    +0.000 N 
ATOM      2  C   UNL     1       6.538   4.527  17.957  0.00  0.00    +0.000 C 
ATOM      3  O   UNL     1       7.125   4.647  19.035  0.00  0.00    +0.000 OA
ATOM      4  H   UNL     1       4.883   4.067  16.831  0.00  0.00    +0.000 HD
ENDROOT
BRANCH   1   9
ATOM      5  C   UNL     1       1.368   2.849  21.841  0.00  0.00    +0.000 C 
ATOM      6  C   UNL     1       2.377   3.223  20.793  0.00  0.00    +0.000 A 
ATOM      7  C   UNL     1       3.262   2.241  20.336  0.00  0.00    +0.000 A 
ATOM      8  C   UNL     1       4.206   2.524  19.354  0.00  0.00    +0.000 A 
ATOM      9  C   UNL     1       4.293   3.796  18.798  0.00  0.00    +0.000 A 
ATOM     10  C   UNL     1       3.416   4.794  19.258  0.00  0.00    +0.000 A 
ATOM     11  C   UNL     1       2.459   4.523  20.257  0.00  0.00    +0.000 A 
ATOM     12  C   UNL     1       1.542   5.614  20.741  0.00  0.00    +0.000 C 
ENDBRANCH   1   9
BRANCH   2  13
ATOM     13  C   UNL     1       7.319   4.853  16.699  0.00  0.00    +0.000 C 
BRANCH  13  14
ATOM     14  C   UNL     1       6.588   5.494  15.551  0.00  0.00    +0.000 C 
ATOM     15  O   UNL     1       5.909   6.515  15.674  0.00  0.00    +0.000 OA
BRANCH  14  16
ATOM     16  C   UNL     1       6.638   4.847  14.216  0.00  0.00    +0.000 A 
ATOM     17  C   UNL     1       5.640   3.909  13.922  0.00  0.00    +0.000 A 
ATOM     18  C   UNL     1       5.621   3.267  12.688  0.00  0.00    +0.000 A 
ATOM     19  C   UNL     1       6.594   3.570  11.737  0.00  0.00    +0.000 A 
ATOM     20  C   UNL     1       7.583   4.513  12.019  0.00  0.00    +0.000 A 
ATOM     21  C   UNL     1       7.612   5.153  13.261  0.00  0.00    +0.000 A 
ENDBRANCH  14  16
ENDBRANCH  13  14
ENDBRANCH   2  13
TORSDOF 4
ENDMDL
MODEL 2
REMARK VINA RESULT:      -7.5      0.108      1.086
REMARK  Name = 
REMARK  6 active torsions:
REMARK  status: ('A' for Active; 'I' for Inactive)
REMARK    1  A    between atoms: C_1  and  C_2
REMARK    2  A    between atoms: C_5  and  N_6
REMARK    3  A    between atoms: C_7  and  C_9
REMARK    4  A    between atoms: C_9  and  C_10
REMARK    5  A    between atoms: C_10  and  C_12
REMARK    6  A    between atoms: C_19  and  C_20
REMARK                            x       y       z     vdW  Elec       q    Type
REMARK                         _______ _______ _______ _____ _____    ______ ____
ROOT
ATOM      1  N   UNL     1       5.152   4.184  17.783  0.00  0.00    +0.000 N 
ATOM      2  C   UNL     1       6.456   4.601  17.950  0.00  0.00    +0.000 C 
ATOM      3  O   UNL     1       7.038   4.729  19.030  0.00  0.00    +0.000 OA
ATOM      4  H   UNL     1       4.813   4.115  16.818  0.00  0.00    +0.000 HD
ENDROOT
BRANCH   1   9
ATOM      5  C   UNL     1       1.304   2.833  21.817  0.00  0.00    +0.000 C 
ATOM      6  C   UNL     1       2.312   3.225  20.773  0.00  0.00    +0.000 A 
ATOM      7  C   UNL     1       3.182   2.246  20.284  0.00  0.00    +0.000 A 
ATOM      8  C   UNL     1       4.122   2.545  19.304  0.00  0.00    +0.000 A 
ATOM      9  C   UNL     1       4.221   3.831  18.782  0.00  0.00    +0.000 A 
ATOM     10  C   UNL     1       3.359   4.826  19.275  0.00  0.00    +0.000 A 
ATOM     11  C   UNL     1       2.405   4.538  20.273  0.00  0.00    +0.000 A 
ATOM     12  C   UNL     1       1.503   5.626  20.793  0.00  0.00    +0.000 C 
ENDBRANCH   1   9
BRANCH   2  13
ATOM     13  C   UNL     1       7.236   4.942  16.695  0.00  0.00    +0.000 C 
BRANCH  13  14
ATOM     14  C   UNL     1       6.494   5.551  15.537  0.00  0.00    +0.000 C 
ATOM     15  O   UNL     1       5.815   6.576  15.639  0.00  0.00    +0.000 OA
BRANCH  14  16
ATOM     16  C   UNL     1       6.532   4.869  14.220  0.00  0.00    +0.000 A 
ATOM     17  C   UNL     1       7.559   5.234  13.340  0.00  0.00    +0.000 A 
ATOM     18  C   UNL     1       7.660   4.633  12.089  0.00  0.00    +0.000 A 
ATOM     19  C   UNL     1       6.741   3.653  11.718  0.00  0.00    +0.000 A 
ATOM     20  C   UNL     1       5.723   3.277  12.595  0.00  0.00    +0.000 A 
ATOM     21  C   UNL     1       5.611   3.885  13.848  0.00  0.00    +0.000 A 
ENDBRANCH  14  16
ENDBRANCH  13  14
ENDBRANCH   2  13
TORSDOF 4
ENDMDL
MODEL 3
REMARK VINA RESULT:      -7.2      2.932      4.728
REMARK  Name = 
REMARK  6 active torsions:
REMARK  status: ('A' for Active; 'I' for Inactive)
REMARK    1  A    between atoms: C_1  and  C_2
REMARK    2  A    between atoms: C_5  and  N_6
REMARK    3  A    between atoms: C_7  and  C_9
REMARK    4  A    between atoms: C_9  and  C_10
REMARK    5  A    between atoms: C_10  and  C_12
REMARK    6  A    between atoms: C_19  and  C_20
REMARK                            x       y       z     vdW  Elec       q    Type
REMARK                         _______ _______ _______ _____ _____    ______ ____
ROOT
ATOM      1  N   UNL     1       3.163   6.159  18.762  0.00  0.00    +0.000 N 
ATOM      2  C   UNL     1       2.738   4.850  18.845  0.00  0.00    +0.000 C 
ATOM      3  O   UNL     1       1.591   4.481  19.108  0.00  0.00    +0.000 OA
ATOM      4  H   UNL     1       4.149   6.307  18.521  0.00  0.00    +0.000 HD
ENDROOT
BRANCH   1   9
ATOM      5  C   UNL     1       0.100  10.919  19.692  0.00  0.00    +0.000 C 
ATOM      6  C   UNL     1       0.883   9.655  19.480  0.00  0.00    +0.000 A 
ATOM      7  C   UNL     1       1.372   9.379  18.199  0.00  0.00    +0.000 A 
ATOM      8  C   UNL     1       2.120   8.234  17.946  0.00  0.00    +0.000 A 
ATOM      9  C   UNL     1       2.404   7.330  18.965  0.00  0.00    +0.000 A 
ATOM     10  C   UNL     1       1.907   7.592  20.254  0.00  0.00    +0.000 A 
ATOM     11  C   UNL     1       1.143   8.746  20.523  0.00  0.00    +0.000 A 
ATOM     12  C   UNL     1       0.612   8.995  21.910  0.00  0.00    +0.000 C 
ENDBRANCH   1   9
BRANCH   2  13
ATOM     13  C   UNL     1       3.777   3.772  18.601  0.00  0.00    +0.000 C 
BRANCH  13  14
ATOM     14  C   UNL     1       5.205   4.193  18.385  0.00  0.00    +0.000 C 
ATOM     15  O   UNL     1       5.979   4.437  19.313  0.00  0.00    +0.000 OA
BRANCH  14  16
ATOM     16  C   UNL     1       5.699   4.376  16.998  0.00  0.00    +0.000 A 
ATOM     17  C   UNL     1       7.043   4.740  16.842  0.00  0.00    +0.000 A 
ATOM     18  C   UNL     1       7.577   4.925  15.570  0.00  0.00    +0.000 A 
ATOM     19  C   UNL     1       6.773   4.731  14.448  0.00  0.00    +0.000 A 
ATOM     20  C   UNL     1       5.438   4.356  14.598  0.00  0.00    +0.000 A 
ATOM     21  C   UNL     1       4.893   4.180  15.873  0.00  0.00    +0.000 A 
ENDBRANCH  14  16
ENDBRANCH  13  14
ENDBRANCH   2  13
TORSDOF 4
ENDMDL
MODEL 4
REMARK VINA RESULT:      -7.2      3.910      5.400
REMARK  Name = 
REMARK  6 active torsions:
REMARK  status: ('A' for Active; 'I' for Inactive)
REMARK    1  A    between atoms: C_1  and  C_2
REMARK    2  A    between atoms: C_5  and  N_6
REMARK    3  A    between atoms: C_7  and  C_9
REMARK    4  A    between atoms: C_9  and  C_10
REMARK    5  A    between atoms: C_10  and  C_12
REMARK    6  A    between atoms: C_19  and  C_20
REMARK                            x       y       z     vdW  Elec       q    Type
REMARK                         _______ _______ _______ _____ _____    ______ ____
ROOT
ATOM      1  N   UNL     1       5.875   6.134  18.453  0.00  0.00    +0.000 N 
ATOM      2  C   UNL     1       7.198   5.816  18.682  0.00  0.00    +0.000 C 
ATOM      3  O   UNL     1       7.635   4.688  18.920  0.00  0.00    +0.000 OA
ATOM      4  H   UNL     1       5.668   7.119  18.256  0.00  0.00    +0.000 HD
ENDROOT
BRANCH   1   9
ATOM      5  C   UNL     1       1.300   2.674  18.512  0.00  0.00    +0.000 C 
ATOM      6  C   UNL     1       2.496   3.584  18.537  0.00  0.00    +0.000 A 
ATOM      7  C   UNL     1       3.433   3.483  17.504  0.00  0.00    +0.000 A 
ATOM      8  C   UNL     1       4.550   4.311  17.464  0.00  0.00    +0.000 A 
ATOM      9  C   UNL     1       4.763   5.266  18.453  0.00  0.00    +0.000 A 
ATOM     10  C   UNL     1       3.833   5.368  19.502  0.00  0.00    +0.000 A 
ATOM     11  C   UNL     1       2.700   4.531  19.558  0.00  0.00    +0.000 A 
ATOM     12  C   UNL     1       1.727   4.652  20.701  0.00  0.00    +0.000 C 
ENDBRANCH   1   9
BRANCH   2  13
ATOM     13  C   UNL     1       8.196   6.956  18.646  0.00  0.00    +0.000 C 
BRANCH  13  14
ATOM     14  C   UNL     1       7.856   8.178  17.837  0.00  0.00    +0.000 C 
ATOM     15  O   UNL     1       7.155   8.137  16.823  0.00  0.00    +0.000 OA
BRANCH  14  16
ATOM     16  C   UNL     1       8.426   9.488  18.238  0.00  0.00    +0.000 A 
ATOM     17  C   UNL     1       9.145   9.531  19.439  0.00  0.00    +0.000 A 
ATOM     18  C   UNL     1       9.712  10.725  19.876  0.00  0.00    +0.000 A 
ATOM     19  C   UNL     1       9.574  11.878  19.105  0.00  0.00    +0.000 A 
ATOM     20  C   UNL     1       8.870  11.837  17.901  0.00  0.00    +0.000 A 
ATOM     21  C   UNL     1       8.289  10.644  17.463  0.00  0.00    +0.000 A 
ENDBRANCH  14  16
ENDBRANCH  13  14
ENDBRANCH   2  13
TORSDOF 4
ENDMDL
MODEL 5
REMARK VINA RESULT:      -7.1      3.276      5.351
REMARK  Name = 
REMARK  6 active torsions:
REMARK  status: ('A' for Active; 'I' for Inactive)
REMARK    1  A    between atoms: C_1  and  C_2
REMARK    2  A    between atoms: C_5  and  N_6
REMARK    3  A    between atoms: C_7  and  C_9
REMARK    4  A    between atoms: C_9  and  C_10
REMARK    5  A    between atoms: C_10  and  C_12
REMARK    6  A    between atoms: C_19  and  C_20
REMARK                            x       y       z     vdW  Elec       q    Type
REMARK                         _______ _______ _______ _____ _____    ______ ____
ROOT
ATOM      1  N   UNL     1       3.135   6.455  18.171  0.00  0.00    +0.000 N 
ATOM      2  C   UNL     1       2.753   5.138  18.024  0.00  0.00    +0.000 C 
ATOM      3  O   UNL     1       1.628   4.686  18.246  0.00  0.00    +0.000 OA
ATOM      4  H   UNL     1       4.107   6.681  17.934  0.00  0.00    +0.000 HD
ENDROOT
BRANCH   1   9
ATOM      5  C   UNL     1      -0.032  10.862  20.030  0.00  0.00    +0.000 C 
ATOM      6  C   UNL     1       0.785   9.686  19.575  0.00  0.00    +0.000 A 
ATOM      7  C   UNL     1       1.096   9.575  18.216  0.00  0.00    +0.000 A 
ATOM      8  C   UNL     1       1.865   8.519  17.738  0.00  0.00    +0.000 A 
ATOM      9  C   UNL     1       2.346   7.541  18.604  0.00  0.00    +0.000 A 
ATOM     10  C   UNL     1       2.029   7.637  19.970  0.00  0.00    +0.000 A 
ATOM     11  C   UNL     1       1.246   8.699  20.466  0.00  0.00    +0.000 A 
ATOM     12  C   UNL     1       0.910   8.769  21.933  0.00  0.00    +0.000 C 
ENDBRANCH   1   9
BRANCH   2  13
ATOM     13  C   UNL     1       3.817   4.161  17.560  0.00  0.00    +0.000 C 
BRANCH  13  14
ATOM     14  C   UNL     1       4.959   4.689  16.736  0.00  0.00    +0.000 C 
ATOM     15  O   UNL     1       5.053   4.500  15.521  0.00  0.00    +0.000 OA
BRANCH  14  16
ATOM     16  C   UNL     1       6.054   5.426  17.413  0.00  0.00    +0.000 A 
ATOM     17  C   UNL     1       6.420   6.666  16.871  0.00  0.00    +0.000 A 
ATOM     18  C   UNL     1       7.435   7.416  17.457  0.00  0.00    +0.000 A 
ATOM     19  C   UNL     1       8.081   6.936  18.595  0.00  0.00    +0.000 A 
ATOM     20  C   UNL     1       7.711   5.708  19.146  0.00  0.00    +0.000 A 
ATOM     21  C   UNL     1       6.699   4.946  18.556  0.00  0.00    +0.000 A 
ENDBRANCH  14  16
ENDBRANCH  13  14
ENDBRANCH   2  13
TORSDOF 4
ENDMDL
MODEL 6
REMARK VINA RESULT:      -7.1      3.817      5.331
REMARK  Name = 
REMARK  6 active torsions:
REMARK  status: ('A' for Active; 'I' for Inactive)
REMARK    1  A    between atoms: C_1  and  C_2
REMARK    2  A    between atoms: C_5  and  N_6
REMARK    3  A    between atoms: C_7  and  C_9
REMARK    4  A    between atoms: C_9  and  C_10
REMARK    5  A    between atoms: C_10  and  C_12
REMARK    6  A    between atoms: C_19  and  C_20
REMARK                            x       y       z     vdW  Elec       q    Type
REMARK                         _______ _______ _______ _____ _____    ______ ____
ROOT
ATOM      1  N   UNL     1       5.724   6.028  18.556  0.00  0.00    +0.000 N 
ATOM      2  C   UNL     1       7.053   5.659  18.598  0.00  0.00    +0.000 C 
ATOM      3  O   UNL     1       7.478   4.502  18.622  0.00  0.00    +0.000 OA
ATOM      4  H   UNL     1       5.528   7.034  18.527  0.00  0.00    +0.000 HD
ENDROOT
BRANCH   1   9
ATOM      5  C   UNL     1       1.080   2.662  18.580  0.00  0.00    +0.000 C 
ATOM      6  C   UNL     1       2.299   3.539  18.614  0.00  0.00    +0.000 A 
ATOM      7  C   UNL     1       3.077   3.646  17.457  0.00  0.00    +0.000 A 
ATOM      8  C   UNL     1       4.207   4.457  17.422  0.00  0.00    +0.000 A 
ATOM      9  C   UNL     1       4.593   5.187  18.542  0.00  0.00    +0.000 A 
ATOM     10  C   UNL     1       3.824   5.077  19.714  0.00  0.00    +0.000 A 
ATOM     11  C   UNL     1       2.681   4.255  19.765  0.00  0.00    +0.000 A 
ATOM     12  C   UNL     1       1.884   4.145  21.038  0.00  0.00    +0.000 C 
ENDBRANCH   1   9
BRANCH   2  13
ATOM     13  C   UNL     1       8.077   6.778  18.628  0.00  0.00    +0.000 C 
BRANCH  13  14
ATOM     14  C   UNL     1       7.797   8.023  17.833  0.00  0.00    +0.000 C 
ATOM     15  O   UNL     1       7.119   8.023  16.803  0.00  0.00    +0.000 OA
BRANCH  14  16
ATOM     16  C   UNL     1       8.400   9.306  18.270  0.00  0.00    +0.000 A 
ATOM     17  C   UNL     1       8.163  10.431  17.467  0.00  0.00    +0.000 A 
ATOM     18  C   UNL     1       8.693  11.668  17.818  0.00  0.00    +0.000 A 
ATOM     19  C   UNL     1       9.452  11.791  18.981  0.00  0.00    +0.000 A 
ATOM     20  C   UNL     1       9.680  10.677  19.790  0.00  0.00    +0.000 A 
ATOM     21  C   UNL     1       9.159   9.430  19.437  0.00  0.00    +0.000 A 
ENDBRANCH  14  16
ENDBRANCH  13  14
ENDBRANCH   2  13
TORSDOF 4
ENDMDL
MODEL 7
REMARK VINA RESULT:      -7.1      2.211      3.114
REMARK  Name = 
REMARK  6 active torsions:
REMARK  status: ('A' for Active; 'I' for Inactive)
REMARK    1  A    between atoms: C_1  and  C_2
REMARK    2  A    between atoms: C_5  and  N_6
REMARK    3  A    between atoms: C_7  and  C_9
REMARK    4  A    between atoms: C_9  and  C_10
REMARK    5  A    between atoms: C_10  and  C_12
REMARK    6  A    between atoms: C_19  and  C_20
REMARK                            x       y       z     vdW  Elec       q    Type
REMARK                         _______ _______ _______ _____ _____    ______ ____
ROOT
ATOM      1  N   UNL     1       3.968   5.838  17.639  0.00  0.00    +0.000 N 
ATOM      2  C   UNL     1       5.207   5.325  17.959  0.00  0.00    +0.000 C 
ATOM      3  O   UNL     1       5.793   5.476  19.033  0.00  0.00    +0.000 OA
ATOM      4  H   UNL     1       3.605   5.615  16.706  0.00  0.00    +0.000 HD
ENDROOT
BRANCH   1   9
ATOM      5  C   UNL     1       0.517   9.132  20.825  0.00  0.00    +0.000 C 
ATOM      6  C   UNL     1       1.435   8.303  19.972  0.00  0.00    +0.000 A 
ATOM      7  C   UNL     1       1.837   7.051  20.447  0.00  0.00    +0.000 A 
ATOM      8  C   UNL     1       2.671   6.230  19.694  0.00  0.00    +0.000 A 
ATOM      9  C   UNL     1       3.127   6.636  18.444  0.00  0.00    +0.000 A 
ATOM     10  C   UNL     1       2.738   7.898  17.962  0.00  0.00    +0.000 A 
ATOM     11  C   UNL     1       1.899   8.742  18.717  0.00  0.00    +0.000 A 
ATOM     12  C   UNL     1       1.509  10.094  18.183  0.00  0.00    +0.000 C 
ENDBRANCH   1   9
BRANCH   2  13
ATOM     13  C   UNL     1       5.912   4.512  16.890  0.00  0.00    +0.000 C 
BRANCH  13  14
ATOM     14  C   UNL     1       6.811   5.233  15.922  0.00  0.00    +0.000 C 
ATOM     15  O   UNL     1       7.504   6.200  16.244  0.00  0.00    +0.000 OA
BRANCH  14  16
ATOM     16  C   UNL     1       6.833   4.800  14.503  0.00  0.00    +0.000 A 
ATOM     17  C   UNL     1       5.894   3.835  14.114  0.00  0.00    +0.000 A 
ATOM     18  C   UNL     1       5.854   3.385  12.798  0.00  0.00    +0.000 A 
ATOM     19  C   UNL     1       6.743   3.908  11.861  0.00  0.00    +0.000 A 
ATOM     20  C   UNL     1       7.671   4.879  12.240  0.00  0.00    +0.000 A 
ATOM     21  C   UNL     1       7.724   5.327  13.563  0.00  0.00    +0.000 A 
ENDBRANCH  14  16
ENDBRANCH  13  14
ENDBRANCH   2  13
TORSDOF 4
ENDMDL
MODEL 8
REMARK VINA RESULT:      -7.1      3.054      4.973
REMARK  Name = 
REMARK  6 active torsions:
REMARK  status: ('A' for Active; 'I' for Inactive)
REMARK    1  A    between atoms: C_1  and  C_2
REMARK    2  A    between atoms: C_5  and  N_6
REMARK    3  A    between atoms: C_7  and  C_9
REMARK    4  A    between atoms: C_9  and  C_10
REMARK    5  A    between atoms: C_10  and  C_12
REMARK    6  A    between atoms: C_19  and  C_20
REMARK                            x       y       z     vdW  Elec       q    Type
REMARK                         _______ _______ _______ _____ _____    ______ ____
ROOT
ATOM      1  N   UNL     1       3.066   6.542  19.719  0.00  0.00    +0.000 N 
ATOM      2  C   UNL     1       2.819   5.224  19.397  0.00  0.00    +0.000 C 
ATOM      3  O   UNL     1       1.729   4.759  19.054  0.00  0.00    +0.000 OA
ATOM      4  H   UNL     1       4.030   6.779  19.973  0.00  0.00    +0.000 HD
ENDROOT
BRANCH   1   9
ATOM      5  C   UNL     1      -0.651  10.907  19.901  0.00  0.00    +0.000 C 
ATOM      6  C   UNL     1       0.301   9.745  19.882  0.00  0.00    +0.000 A 
ATOM      7  C   UNL     1       1.035   9.502  18.717  0.00  0.00    +0.000 A 
ATOM      8  C   UNL     1       1.945   8.452  18.646  0.00  0.00    +0.000 A 
ATOM      9  C   UNL     1       2.150   7.614  19.738  0.00  0.00    +0.000 A 
ATOM     10  C   UNL     1       1.409   7.843  20.910  0.00  0.00    +0.000 A 
ATOM     11  C   UNL     1       0.479   8.899  20.993  0.00  0.00    +0.000 A 
ATOM     12  C   UNL     1      -0.312   9.113  22.257  0.00  0.00    +0.000 C 
ENDBRANCH   1   9
BRANCH   2  13
ATOM     13  C   UNL     1       3.989   4.264  19.482  0.00  0.00    +0.000 C 
BRANCH  13  14
ATOM     14  C   UNL     1       5.308   4.692  18.898  0.00  0.00    +0.000 C 
ATOM     15  O   UNL     1       6.286   4.980  19.591  0.00  0.00    +0.000 OA
BRANCH  14  16
ATOM     16  C   UNL     1       5.432   4.826  17.426  0.00  0.00    +0.000 A 
ATOM     17  C   UNL     1       5.273   6.108  16.884  0.00  0.00    +0.000 A 
ATOM     18  C   UNL     1       5.382   6.310  15.512  0.00  0.00    +0.000 A 
ATOM     19  C   UNL     1       5.663   5.232  14.675  0.00  0.00    +0.000 A 
ATOM     20  C   UNL     1       5.836   3.954  15.210  0.00  0.00    +0.000 A 
ATOM     21  C   UNL     1       5.718   3.744  16.587  0.00  0.00    +0.000 A 
ENDBRANCH  14  16
ENDBRANCH  13  14
ENDBRANCH   2  13
TORSDOF 4
ENDMDL
MODEL 9
REMARK VINA RESULT:      -7.1      1.605      2.531
REMARK  Name = 
REMARK  6 active torsions:
REMARK  status: ('A' for Active; 'I' for Inactive)
REMARK    1  A    between atoms: C_1  and  C_2
REMARK    2  A    between atoms: C_5  and  N_6
REMARK    3  A    between atoms: C_7  and  C_9
REMARK    4  A    between atoms: C_9  and  C_10
REMARK    5  A    between atoms: C_10  and  C_12
REMARK    6  A    between atoms: C_19  and  C_20
REMARK                            x       y       z     vdW  Elec       q    Type
REMARK                         _______ _______ _______ _____ _____    ______ ____
ROOT
ATOM      1  N   UNL     1       5.534   3.947  17.025  0.00  0.00    +0.000 N 
ATOM      2  C   UNL     1       5.904   4.762  15.976  0.00  0.00    +0.000 C 
ATOM      3  O   UNL     1       5.336   5.803  15.639  0.00  0.00    +0.000 OA
ATOM      4  H   UNL     1       6.116   3.118  17.190  0.00  0.00    +0.000 HD
ENDROOT
BRANCH   1   9
ATOM      5  C   UNL     1       1.100   4.528  20.618  0.00  0.00    +0.000 C 
ATOM      6  C   UNL     1       2.237   4.356  19.651  0.00  0.00    +0.000 A 
ATOM      7  C   UNL     1       3.299   5.266  19.700  0.00  0.00    +0.000 A 
ATOM      8  C   UNL     1       4.387   5.147  18.843  0.00  0.00    +0.000 A 
ATOM      9  C   UNL     1       4.450   4.115  17.911  0.00  0.00    +0.000 A 
ATOM     10  C   UNL     1       3.383   3.202  17.846  0.00  0.00    +0.000 A 
ATOM     11  C   UNL     1       2.271   3.315  18.704  0.00  0.00    +0.000 A 
ATOM     12  C   UNL     1       1.135   2.331  18.603  0.00  0.00    +0.000 C 
ENDBRANCH   1   9
BRANCH   2  13
ATOM     13  C   UNL     1       7.109   4.331  15.161  0.00  0.00    +0.000 C 
BRANCH  13  14
ATOM     14  C   UNL     1       7.130   4.654  13.692  0.00  0.00    +0.000 C 
ATOM     15  O   UNL     1       7.741   5.618  13.226  0.00  0.00    +0.000 OA
BRANCH  14  16
ATOM     16  C   UNL     1       6.342   3.811  12.759  0.00  0.00    +0.000 A 
ATOM     17  C   UNL     1       7.026   2.786  12.091  0.00  0.00    +0.000 A 
ATOM     18  C   UNL     1       6.351   1.953  11.205  0.00  0.00    +0.000 A 
ATOM     19  C   UNL     1       4.985   2.132  10.992  0.00  0.00    +0.000 A 
ATOM     20  C   UNL     1       4.296   3.143  11.665  0.00  0.00    +0.000 A 
ATOM     21  C   UNL     1       4.972   3.989  12.548  0.00  0.00    +0.000 A 
ENDBRANCH  14  16
ENDBRANCH  13  14
ENDBRANCH   2  13
TORSDOF 4
ENDMDL
