MODEL 1
REMARK VINA RESULT:      -8.2      0.000      0.000
REMARK  Name = 
REMARK  5 active torsions:
REMARK  status: ('A' for Active; 'I' for Inactive)
REMARK    1  A    between atoms: S_2  and  N_4
REMARK    2  A    between atoms: S_2  and  C_19
REMARK    3  A    between atoms: N_4  and  C_5
REMARK    4  A    between atoms: C_8  and  O_9
REMARK    5  A    between atoms: O_9  and  C_10
REMARK                            x       y       z     vdW  Elec       q    Type
REMARK                         _______ _______ _______ _____ _____    ______ ____
ROOT
ATOM      1  C   UNL     1       2.748   6.241  18.902  0.00  0.00    +0.000 A 
ATOM      2  C   UNL     1       2.113   6.619  20.084  0.00  0.00    +0.000 A 
ATOM      3  C   UNL     1       1.645   7.926  20.236  0.00  0.00    +0.000 A 
ATOM      4  C   UNL     1       1.787   8.846  19.195  0.00  0.00    +0.000 A 
ATOM      5  C   UNL     1       2.383   8.448  17.996  0.00  0.00    +0.000 A 
ATOM      6  C   UNL     1       2.905   7.160  17.867  0.00  0.00    +0.000 A 
ENDROOT
BRANCH   1   7
ATOM      7  N   UNL     1       3.131   4.881  18.733  0.00  0.00    +0.000 N 
ATOM      8  H   UNL     1       2.518   4.175  19.144  0.00  0.00    +0.000 HD
BRANCH   7  10
ATOM      9  O   UNL     1       5.360   5.599  19.732  0.00  0.00    +0.000 OA
ATOM     10  S   UNL     1       4.769   4.500  19.003  0.00  0.00    +0.000 S 
ATOM     11  O   UNL     1       4.847   3.145  19.504  0.00  0.00    +0.000 OA
BRANCH  10  12
ATOM     12  C   UNL     1       5.484   4.519  17.371  0.00  0.00    +0.000 A 
ATOM     13  C   UNL     1       4.645   4.307  16.266  0.00  0.00    +0.000 A 
ATOM     14  C   UNL     1       5.172   4.321  14.974  0.00  0.00    +0.000 A 
ATOM     15  C   UNL     1       6.534   4.545  14.784  0.00  0.00    +0.000 A 
ATOM     16 CL   UNL     1       7.183   4.580  13.192  0.00  0.00    +0.000 Cl
ATOM     17  C   UNL     1       7.375   4.753  15.876  0.00  0.00    +0.000 A 
ATOM     18  C   UNL     1       6.854   4.735  17.176  0.00  0.00    +0.000 A 
ATOM     19 CL   UNL     1       7.966   5.068  18.455  0.00  0.00    +0.000 Cl
ENDBRANCH  10  12
ENDBRANCH   7  10
ENDBRANCH   1   7
BRANCH   4  20
ATOM     20  O   UNL     1       1.250  10.094  19.416  0.00  0.00    +0.000 OA
BRANCH  20  21
ATOM     21  C   UNL     1      -0.021  10.375  18.982  0.00  0.00    +0.000 A 
ATOM     22  C   UNL     1      -0.777  11.250  19.753  0.00  0.00    +0.000 A 
ATOM     23  N   UNL     1      -2.044  11.624  19.452  0.00  0.00    +0.000 NA
ATOM     24  C   UNL     1      -2.573  11.099  18.320  0.00  0.00    +0.000 A 
ATOM     25  C   UNL     1      -1.887  10.240  17.475  0.00  0.00    +0.000 A 
ATOM     26 CL   UNL     1      -2.633   9.596  16.070  0.00  0.00    +0.000 Cl
ATOM     27  C   UNL     1      -0.579   9.893  17.797  0.00  0.00    +0.000 A 
ENDBRANCH  20  21
ENDBRANCH   4  20
TORSDOF 5
ENDMDL
MODEL 2
REMARK VINA RESULT:      -8.1      0.421      1.036
REMARK  Name = 
REMARK  5 active torsions:
REMARK  status: ('A' for Active; 'I' for Inactive)
REMARK    1  A    between atoms: S_2  and  N_4
REMARK    2  A    between atoms: S_2  and  C_19
REMARK    3  A    between atoms: N_4  and  C_5
REMARK    4  A    between atoms: C_8  and  O_9
REMARK    5  A    between atoms: O_9  and  C_10
REMARK                            x       y       z     vdW  Elec       q    Type
REMARK                         _______ _______ _______ _____ _____    ______ ____
ROOT
ATOM      1  C   UNL     1       2.662   5.932  18.872  0.00  0.00    +0.000 A 
ATOM      2  C   UNL     1       2.890   6.783  17.791  0.00  0.00    +0.000 A 
ATOM      3  C   UNL     1       2.508   8.124  17.868  0.00  0.00    +0.000 A 
ATOM      4  C   UNL     1       1.925   8.620  19.036  0.00  0.00    +0.000 A 
ATOM      5  C   UNL     1       1.742   7.774  20.132  0.00  0.00    +0.000 A 
ATOM      6  C   UNL     1       2.068   6.420  20.034  0.00  0.00    +0.000 A 
ENDROOT
BRANCH   1   7
ATOM      7  N   UNL     1       3.145   4.595  18.806  0.00  0.00    +0.000 N 
ATOM      8  H   UNL     1       2.595   3.882  19.289  0.00  0.00    +0.000 HD
BRANCH   7  10
ATOM      9  O   UNL     1       5.306   5.506  19.797  0.00  0.00    +0.000 OA
ATOM     10  S   UNL     1       4.812   4.361  19.066  0.00  0.00    +0.000 S 
ATOM     11  O   UNL     1       5.014   3.017  19.561  0.00  0.00    +0.000 OA
BRANCH  10  12
ATOM     12  C   UNL     1       5.513   4.450  17.430  0.00  0.00    +0.000 A 
ATOM     13  C   UNL     1       4.696   4.146  16.330  0.00  0.00    +0.000 A 
ATOM     14  C   UNL     1       5.212   4.211  15.035  0.00  0.00    +0.000 A 
ATOM     15  C   UNL     1       6.542   4.578  14.837  0.00  0.00    +0.000 A 
ATOM     16 CL   UNL     1       7.176   4.676  13.243  0.00  0.00    +0.000 Cl
ATOM     17  C   UNL     1       7.361   4.878  15.925  0.00  0.00    +0.000 A 
ATOM     18  C   UNL     1       6.851   4.810  17.227  0.00  0.00    +0.000 A 
ATOM     19 CL   UNL     1       7.928   5.263  18.500  0.00  0.00    +0.000 Cl
ENDBRANCH  10  12
ENDBRANCH   7  10
ENDBRANCH   1   7
BRANCH   4  20
ATOM     20  O   UNL     1       1.629   9.964  19.038  0.00  0.00    +0.000 OA
BRANCH  20  21
ATOM     21  C   UNL     1       0.322  10.374  18.965  0.00  0.00    +0.000 A 
ATOM     22  C   UNL     1      -0.098  11.329  19.884  0.00  0.00    +0.000 A 
ATOM     23  N   UNL     1      -1.355  11.831  19.935  0.00  0.00    +0.000 NA
ATOM     24  C   UNL     1      -2.229  11.357  19.014  0.00  0.00    +0.000 A 
ATOM     25  C   UNL     1      -1.896  10.425  18.044  0.00  0.00    +0.000 A 
ATOM     26 CL   UNL     1      -3.067   9.852  16.927  0.00  0.00    +0.000 Cl
ATOM     27  C   UNL     1      -0.592   9.945  18.002  0.00  0.00    +0.000 A 
ENDBRANCH  20  21
ENDBRANCH   4  20
TORSDOF 5
ENDMDL
MODEL 3
REMARK VINA RESULT:      -7.8      2.192      2.768
REMARK  Name = 
REMARK  5 active torsions:
REMARK  status: ('A' for Active; 'I' for Inactive)
REMARK    1  A    between atoms: S_2  and  N_4
REMARK    2  A    between atoms: S_2  and  C_19
REMARK    3  A    between atoms: N_4  and  C_5
REMARK    4  A    between atoms: C_8  and  O_9
REMARK    5  A    between atoms: O_9  and  C_10
REMARK                            x       y       z     vdW  Elec       q    Type
REMARK                         _______ _______ _______ _____ _____    ______ ____
ROOT
ATOM      1  C   UNL     1       2.212   7.628  19.636  0.00  0.00    +0.000 A 
ATOM      2  C   UNL     1       2.322   8.148  18.347  0.00  0.00    +0.000 A 
ATOM      3  C   UNL     1       1.554   9.253  17.973  0.00  0.00    +0.000 A 
ATOM      4  C   UNL     1       0.699   9.855  18.898  0.00  0.00    +0.000 A 
ATOM      5  C   UNL     1       0.628   9.358  20.202  0.00  0.00    +0.000 A 
ATOM      6  C   UNL     1       1.349   8.217  20.556  0.00  0.00    +0.000 A 
ENDROOT
BRANCH   1   7
ATOM      7  N   UNL     1       3.072   6.562  20.021  0.00  0.00    +0.000 N 
ATOM      8  H   UNL     1       4.074   6.763  20.046  0.00  0.00    +0.000 HD
BRANCH   7  10
ATOM      9  O   UNL     1       3.134   4.032  20.300  0.00  0.00    +0.000 OA
ATOM     10  S   UNL     1       2.773   5.037  19.325  0.00  0.00    +0.000 S 
ATOM     11  O   UNL     1       1.456   5.056  18.728  0.00  0.00    +0.000 OA
BRANCH  10  12
ATOM     12  C   UNL     1       3.968   4.930  18.006  0.00  0.00    +0.000 A 
ATOM     13  C   UNL     1       4.797   6.034  17.759  0.00  0.00    +0.000 A 
ATOM     14  C   UNL     1       5.748   5.981  16.738  0.00  0.00    +0.000 A 
ATOM     15  C   UNL     1       5.868   4.829  15.963  0.00  0.00    +0.000 A 
ATOM     16 CL   UNL     1       7.049   4.755  14.716  0.00  0.00    +0.000 Cl
ATOM     17  C   UNL     1       5.045   3.729  16.200  0.00  0.00    +0.000 A 
ATOM     18  C   UNL     1       4.087   3.777  17.220  0.00  0.00    +0.000 A 
ATOM     19 CL   UNL     1       3.162   2.340  17.475  0.00  0.00    +0.000 Cl
ENDBRANCH  10  12
ENDBRANCH   7  10
ENDBRANCH   1   7
BRANCH   4  20
ATOM     20  O   UNL     1       0.022  10.970  18.457  0.00  0.00    +0.000 OA
BRANCH  20  21
ATOM     21  C   UNL     1      -1.332  10.904  18.246  0.00  0.00    +0.000 A 
ATOM     22  C   UNL     1      -1.789   9.958  17.336  0.00  0.00    +0.000 A 
ATOM     23  N   UNL     1      -3.095   9.773  17.025  0.00  0.00    +0.000 NA
ATOM     24  C   UNL     1      -3.984  10.571  17.665  0.00  0.00    +0.000 A 
ATOM     25  C   UNL     1      -3.625  11.523  18.607  0.00  0.00    +0.000 A 
ATOM     26 CL   UNL     1      -4.807  12.515  19.358  0.00  0.00    +0.000 Cl
ATOM     27  C   UNL     1      -2.279  11.674  18.923  0.00  0.00    +0.000 A 
ENDBRANCH  20  21
ENDBRANCH   4  20
TORSDOF 5
ENDMDL
MODEL 4
REMARK VINA RESULT:      -7.7      2.022      2.511
REMARK  Name = 
REMARK  5 active torsions:
REMARK  status: ('A' for Active; 'I' for Inactive)
REMARK    1  A    between atoms: S_2  and  N_4
REMARK    2  A    between atoms: S_2  and  C_19
REMARK    3  A    between atoms: N_4  and  C_5
REMARK    4  A    between atoms: C_8  and  O_9
REMARK    5  A    between atoms: O_9  and  C_10
REMARK                            x       y       z     vdW  Elec       q    Type
REMARK                         _______ _______ _______ _____ _____    ______ ____
ROOT
ATOM      1  C   UNL     1       2.556   5.860  19.007  0.00  0.00    +0.000 A 
ATOM      2  C   UNL     1       2.672   6.853  18.034  0.00  0.00    +0.000 A 
ATOM      3  C   UNL     1       2.225   8.148  18.303  0.00  0.00    +0.000 A 
ATOM      4  C   UNL     1       1.691   8.457  19.556  0.00  0.00    +0.000 A 
ATOM      5  C   UNL     1       1.621   7.470  20.542  0.00  0.00    +0.000 A 
ATOM      6  C   UNL     1       2.010   6.162  20.252  0.00  0.00    +0.000 A 
ENDROOT
BRANCH   1   7
ATOM      7  N   UNL     1       3.104   4.574  18.743  0.00  0.00    +0.000 N 
ATOM      8  H   UNL     1       2.570   3.768  19.076  0.00  0.00    +0.000 HD
BRANCH   7  10
ATOM      9  O   UNL     1       5.231   5.521  19.772  0.00  0.00    +0.000 OA
ATOM     10  S   UNL     1       4.769   4.367  19.035  0.00  0.00    +0.000 S 
ATOM     11  O   UNL     1       4.982   3.028  19.538  0.00  0.00    +0.000 OA
BRANCH  10  12
ATOM     12  C   UNL     1       5.500   4.462  17.413  0.00  0.00    +0.000 A 
ATOM     13  C   UNL     1       4.689   4.219  16.294  0.00  0.00    +0.000 A 
ATOM     14  C   UNL     1       5.229   4.291  15.009  0.00  0.00    +0.000 A 
ATOM     15  C   UNL     1       6.577   4.604  14.840  0.00  0.00    +0.000 A 
ATOM     16 CL   UNL     1       7.240   4.711  13.259  0.00  0.00    +0.000 Cl
ATOM     17  C   UNL     1       7.389   4.844  15.947  0.00  0.00    +0.000 A 
ATOM     18  C   UNL     1       6.856   4.769  17.239  0.00  0.00    +0.000 A 
ATOM     19 CL   UNL     1       7.929   5.147  18.539  0.00  0.00    +0.000 Cl
ENDBRANCH  10  12
ENDBRANCH   7  10
ENDBRANCH   1   7
BRANCH   4  20
ATOM     20  O   UNL     1       1.325   9.771  19.748  0.00  0.00    +0.000 OA
BRANCH  20  21
ATOM     21  C   UNL     1       0.566  10.113  20.838  0.00  0.00    +0.000 A 
ATOM     22  C   UNL     1       0.935   9.575  22.065  0.00  0.00    +0.000 A 
ATOM     23  N   UNL     1       0.285   9.823  23.228  0.00  0.00    +0.000 NA
ATOM     24  C   UNL     1      -0.781  10.656  23.155  0.00  0.00    +0.000 A 
ATOM     25  C   UNL     1      -1.208  11.260  21.982  0.00  0.00    +0.000 A 
ATOM     26 CL   UNL     1      -2.585  12.285  21.964  0.00  0.00    +0.000 Cl
ATOM     27  C   UNL     1      -0.507  11.005  20.809  0.00  0.00    +0.000 A 
ENDBRANCH  20  21
ENDBRANCH   4  20
TORSDOF 5
ENDMDL
MODEL 5
REMARK VINA RESULT:      -7.7      4.310      9.755
REMARK  Name = 
REMARK  5 active torsions:
REMARK  status: ('A' for Active; 'I' for Inactive)
REMARK    1  A    between atoms: S_2  and  N_4
REMARK    2  A    between atoms: S_2  and  C_19
REMARK    3  A    between atoms: N_4  and  C_5
REMARK    4  A    between atoms: C_8  and  O_9
REMARK    5  A    between atoms: O_9  and  C_10
REMARK                            x       y       z     vdW  Elec       q    Type
REMARK                         _______ _______ _______ _____ _____    ______ ____
ROOT
ATOM      1  C   UNL     1       0.880   9.979  19.404  0.00  0.00    +0.000 A 
ATOM      2  C   UNL     1       1.025   9.082  20.462  0.00  0.00    +0.000 A 
ATOM      3  C   UNL     1       1.731   7.892  20.275  0.00  0.00    +0.000 A 
ATOM      4  C   UNL     1       2.318   7.614  19.039  0.00  0.00    +0.000 A 
ATOM      5  C   UNL     1       2.209   8.538  17.996  0.00  0.00    +0.000 A 
ATOM      6  C   UNL     1       1.452   9.698  18.165  0.00  0.00    +0.000 A 
ENDROOT
BRANCH   1   7
ATOM      7  N   UNL     1       0.239  11.226  19.645  0.00  0.00    +0.000 N 
ATOM      8  H   UNL     1       0.258  11.577  20.604  0.00  0.00    +0.000 HD
BRANCH   7  10
ATOM      9  O   UNL     1      -1.162  12.467  17.919  0.00  0.00    +0.000 OA
ATOM     10  S   UNL     1      -1.296  11.455  18.941  0.00  0.00    +0.000 S 
ATOM     11  O   UNL     1      -1.858  10.157  18.637  0.00  0.00    +0.000 OA
BRANCH  10  12
ATOM     12  C   UNL     1      -2.263  12.172  20.256  0.00  0.00    +0.000 A 
ATOM     13  C   UNL     1      -1.614  12.538  21.445  0.00  0.00    +0.000 A 
ATOM     14  C   UNL     1      -2.342  13.109  22.491  0.00  0.00    +0.000 A 
ATOM     15  C   UNL     1      -3.713  13.311  22.352  0.00  0.00    +0.000 A 
ATOM     16 CL   UNL     1      -4.608  14.029  23.632  0.00  0.00    +0.000 Cl
ATOM     17  C   UNL     1      -4.365  12.947  21.175  0.00  0.00    +0.000 A 
ATOM     18  C   UNL     1      -3.643  12.371  20.123  0.00  0.00    +0.000 A 
ATOM     19 CL   UNL     1      -4.530  12.015  18.684  0.00  0.00    +0.000 Cl
ENDBRANCH  10  12
ENDBRANCH   7  10
ENDBRANCH   1   7
BRANCH   4  20
ATOM     20  O   UNL     1       3.038   6.443  18.962  0.00  0.00    +0.000 OA
BRANCH  20  21
ATOM     21  C   UNL     1       2.393   5.238  19.088  0.00  0.00    +0.000 A 
ATOM     22  C   UNL     1       1.894   4.661  17.926  0.00  0.00    +0.000 A 
ATOM     23  N   UNL     1       1.238   3.475  17.890  0.00  0.00    +0.000 NA
ATOM     24  C   UNL     1       1.083   2.838  19.076  0.00  0.00    +0.000 A 
ATOM     25  C   UNL     1       1.569   3.323  20.281  0.00  0.00    +0.000 A 
ATOM     26 CL   UNL     1       1.311   2.470  21.747  0.00  0.00    +0.000 Cl
ATOM     27  C   UNL     1       2.259   4.530  20.283  0.00  0.00    +0.000 A 
ENDBRANCH  20  21
ENDBRANCH   4  20
TORSDOF 5
ENDMDL
MODEL 6
REMARK VINA RESULT:      -7.7      1.111      1.337
REMARK  Name = 
REMARK  5 active torsions:
REMARK  status: ('A' for Active; 'I' for Inactive)
REMARK    1  A    between atoms: S_2  and  N_4
REMARK    2  A    between atoms: S_2  and  C_19
REMARK    3  A    between atoms: N_4  and  C_5
REMARK    4  A    between atoms: C_8  and  O_9
REMARK    5  A    between atoms: O_9  and  C_10
REMARK                            x       y       z     vdW  Elec       q    Type
REMARK                         _______ _______ _______ _____ _____    ______ ____
ROOT
ATOM      1  C   UNL     1       2.769   6.226  18.916  0.00  0.00    +0.000 A 
ATOM      2  C   UNL     1       2.119   6.632  20.082  0.00  0.00    +0.000 A 
ATOM      3  C   UNL     1       1.660   7.945  20.202  0.00  0.00    +0.000 A 
ATOM      4  C   UNL     1       1.823   8.843  19.146  0.00  0.00    +0.000 A 
ATOM      5  C   UNL     1       2.433   8.418  17.963  0.00  0.00    +0.000 A 
ATOM      6  C   UNL     1       2.947   7.124  17.866  0.00  0.00    +0.000 A 
ENDROOT
BRANCH   1   7
ATOM      7  N   UNL     1       3.144   4.861  18.779  0.00  0.00    +0.000 N 
ATOM      8  H   UNL     1       2.533   4.169  19.217  0.00  0.00    +0.000 HD
BRANCH   7  10
ATOM      9  O   UNL     1       5.381   5.580  19.760  0.00  0.00    +0.000 OA
ATOM     10  S   UNL     1       4.783   4.479  19.039  0.00  0.00    +0.000 S 
ATOM     11  O   UNL     1       4.865   3.127  19.544  0.00  0.00    +0.000 OA
BRANCH  10  12
ATOM     12  C   UNL     1       5.487   4.492  17.401  0.00  0.00    +0.000 A 
ATOM     13  C   UNL     1       4.643   4.257  16.305  0.00  0.00    +0.000 A 
ATOM     14  C   UNL     1       5.160   4.266  15.008  0.00  0.00    +0.000 A 
ATOM     15  C   UNL     1       6.518   4.507  14.806  0.00  0.00    +0.000 A 
ATOM     16 CL   UNL     1       7.155   4.536  13.210  0.00  0.00    +0.000 Cl
ATOM     17  C   UNL     1       7.363   4.738  15.891  0.00  0.00    +0.000 A 
ATOM     18  C   UNL     1       6.852   4.726  17.194  0.00  0.00    +0.000 A 
ATOM     19 CL   UNL     1       7.968   5.088  18.462  0.00  0.00    +0.000 Cl
ENDBRANCH  10  12
ENDBRANCH   7  10
ENDBRANCH   1   7
BRANCH   4  20
ATOM     20  O   UNL     1       1.292  10.099  19.335  0.00  0.00    +0.000 OA
BRANCH  20  21
ATOM     21  C   UNL     1       0.013  10.368  18.917  0.00  0.00    +0.000 A 
ATOM     22  C   UNL     1      -0.425   9.732  17.762  0.00  0.00    +0.000 A 
ATOM     23  N   UNL     1      -1.660   9.894  17.229  0.00  0.00    +0.000 NA
ATOM     24  C   UNL     1      -2.496  10.729  17.893  0.00  0.00    +0.000 A 
ATOM     25  C   UNL     1      -2.157  11.387  19.065  0.00  0.00    +0.000 A 
ATOM     26 CL   UNL     1      -3.262  12.451  19.836  0.00  0.00    +0.000 Cl
ATOM     27  C   UNL     1      -0.890  11.182  19.601  0.00  0.00    +0.000 A 
ENDBRANCH  20  21
ENDBRANCH   4  20
TORSDOF 5
ENDMDL
MODEL 7
REMARK VINA RESULT:      -7.5      1.529      1.951
REMARK  Name = 
REMARK  5 active torsions:
REMARK  status: ('A' for Active; 'I' for Inactive)
REMARK    1  A    between atoms: S_2  and  N_4
REMARK    2  A    between atoms: S_2  and  C_19
REMARK    3  A    between atoms: N_4  and  C_5
REMARK    4  A    between atoms: C_8  and  O_9
REMARK    5  A    between atoms: O_9  and  C_10
REMARK                            x       y       z     vdW  Elec       q    Type
REMARK                         _______ _______ _______ _____ _____    ______ ____
ROOT
ATOM      1  C   UNL     1       2.502   5.835  19.124  0.00  0.00    +0.000 A 
ATOM      2  C   UNL     1       2.604   7.062  18.469  0.00  0.00    +0.000 A 
ATOM      3  C   UNL     1       2.105   8.218  19.073  0.00  0.00    +0.000 A 
ATOM      4  C   UNL     1       1.531   8.151  20.344  0.00  0.00    +0.000 A 
ATOM      5  C   UNL     1       1.474   6.926  21.015  0.00  0.00    +0.000 A 
ATOM      6  C   UNL     1       1.917   5.762  20.386  0.00  0.00    +0.000 A 
ENDROOT
BRANCH   1   7
ATOM      7  N   UNL     1       3.101   4.689  18.531  0.00  0.00    +0.000 N 
ATOM      8  H   UNL     1       2.568   3.819  18.566  0.00  0.00    +0.000 HD
BRANCH   7  10
ATOM      9  O   UNL     1       5.221   5.520  19.671  0.00  0.00    +0.000 OA
ATOM     10  S   UNL     1       4.746   4.411  18.875  0.00  0.00    +0.000 S 
ATOM     11  O   UNL     1       4.894   3.047  19.334  0.00  0.00    +0.000 OA
BRANCH  10  12
ATOM     12  C   UNL     1       5.541   4.539  17.284  0.00  0.00    +0.000 A 
ATOM     13  C   UNL     1       4.770   4.338  16.129  0.00  0.00    +0.000 A 
ATOM     14  C   UNL     1       5.360   4.437  14.868  0.00  0.00    +0.000 A 
ATOM     15  C   UNL     1       6.717   4.734  14.759  0.00  0.00    +0.000 A 
ATOM     16 CL   UNL     1       7.442   4.874  13.207  0.00  0.00    +0.000 Cl
ATOM     17  C   UNL     1       7.490   4.932  15.903  0.00  0.00    +0.000 A 
ATOM     18  C   UNL     1       6.906   4.830  17.171  0.00  0.00    +0.000 A 
ATOM     19 CL   UNL     1       7.934   5.156  18.520  0.00  0.00    +0.000 Cl
ENDBRANCH  10  12
ENDBRANCH   7  10
ENDBRANCH   1   7
BRANCH   4  20
ATOM     20  O   UNL     1       1.114   9.347  20.882  0.00  0.00    +0.000 OA
BRANCH  20  21
ATOM     21  C   UNL     1       0.520  10.285  20.076  0.00  0.00    +0.000 A 
ATOM     22  C   UNL     1      -0.744   9.989  19.579  0.00  0.00    +0.000 A 
ATOM     23  N   UNL     1      -1.456  10.815  18.775  0.00  0.00    +0.000 NA
ATOM     24  C   UNL     1      -0.873  11.998  18.462  0.00  0.00    +0.000 A 
ATOM     25  C   UNL     1       0.372  12.391  18.930  0.00  0.00    +0.000 A 
ATOM     26 CL   UNL     1       1.057  13.896  18.468  0.00  0.00    +0.000 Cl
ATOM     27  C   UNL     1       1.068  11.532  19.773  0.00  0.00    +0.000 A 
ENDBRANCH  20  21
ENDBRANCH   4  20
TORSDOF 5
ENDMDL
MODEL 8
REMARK VINA RESULT:      -7.5      4.526      9.516
REMARK  Name = 
REMARK  5 active torsions:
REMARK  status: ('A' for Active; 'I' for Inactive)
REMARK    1  A    between atoms: S_2  and  N_4
REMARK    2  A    between atoms: S_2  and  C_19
REMARK    3  A    between atoms: N_4  and  C_5
REMARK    4  A    between atoms: C_8  and  O_9
REMARK    5  A    between atoms: O_9  and  C_10
REMARK                            x       y       z     vdW  Elec       q    Type
REMARK                         _______ _______ _______ _____ _____    ______ ____
ROOT
ATOM      1  C   UNL     1       0.629   9.985  19.232  0.00  0.00    +0.000 A 
ATOM      2  C   UNL     1       1.155   9.544  18.019  0.00  0.00    +0.000 A 
ATOM      3  C   UNL     1       1.960   8.404  17.981  0.00  0.00    +0.000 A 
ATOM      4  C   UNL     1       2.215   7.688  19.153  0.00  0.00    +0.000 A 
ATOM      5  C   UNL     1       1.647   8.108  20.359  0.00  0.00    +0.000 A 
ATOM      6  C   UNL     1       0.893   9.281  20.406  0.00  0.00    +0.000 A 
ENDROOT
BRANCH   1   7
ATOM      7  N   UNL     1      -0.264  11.092  19.231  0.00  0.00    +0.000 N 
ATOM      8  H   UNL     1      -1.048  11.052  18.577  0.00  0.00    +0.000 HD
BRANCH   7  10
ATOM      9  O   UNL     1       1.866  12.483  19.327  0.00  0.00    +0.000 OA
ATOM     10  S   UNL     1       0.432  12.647  19.256  0.00  0.00    +0.000 S 
ATOM     11  O   UNL     1      -0.177  13.438  18.210  0.00  0.00    +0.000 OA
BRANCH  10  12
ATOM     12  C   UNL     1      -0.090  13.320  20.822  0.00  0.00    +0.000 A 
ATOM     13  C   UNL     1      -0.818  12.500  21.698  0.00  0.00    +0.000 A 
ATOM     14  C   UNL     1      -1.237  12.995  22.934  0.00  0.00    +0.000 A 
ATOM     15  C   UNL     1      -0.930  14.305  23.296  0.00  0.00    +0.000 A 
ATOM     16 CL   UNL     1      -1.429  14.911  24.825  0.00  0.00    +0.000 Cl
ATOM     17  C   UNL     1      -0.210  15.126  22.430  0.00  0.00    +0.000 A 
ATOM     18  C   UNL     1       0.210  14.639  21.186  0.00  0.00    +0.000 A 
ATOM     19 CL   UNL     1       1.151  15.714  20.215  0.00  0.00    +0.000 Cl
ENDBRANCH  10  12
ENDBRANCH   7  10
ENDBRANCH   1   7
BRANCH   4  20
ATOM     20  O   UNL     1       2.976   6.550  19.012  0.00  0.00    +0.000 OA
BRANCH  20  21
ATOM     21  C   UNL     1       2.381   5.317  19.111  0.00  0.00    +0.000 A 
ATOM     22  C   UNL     1       1.955   4.719  17.931  0.00  0.00    +0.000 A 
ATOM     23  N   UNL     1       1.355   3.506  17.869  0.00  0.00    +0.000 NA
ATOM     24  C   UNL     1       1.182   2.860  19.048  0.00  0.00    +0.000 A 
ATOM     25  C   UNL     1       1.596   3.365  20.271  0.00  0.00    +0.000 A 
ATOM     26 CL   UNL     1       1.318   2.500  21.727  0.00  0.00    +0.000 Cl
ATOM     27  C   UNL     1       2.231   4.602  20.300  0.00  0.00    +0.000 A 
ENDBRANCH  20  21
ENDBRANCH   4  20
TORSDOF 5
ENDMDL
MODEL 9
REMARK VINA RESULT:      -7.5      4.285      9.561
REMARK  Name = 
REMARK  5 active torsions:
REMARK  status: ('A' for Active; 'I' for Inactive)
REMARK    1  A    between atoms: S_2  and  N_4
REMARK    2  A    between atoms: S_2  and  C_19
REMARK    3  A    between atoms: N_4  and  C_5
REMARK    4  A    between atoms: C_8  and  O_9
REMARK    5  A    between atoms: O_9  and  C_10
REMARK                            x       y       z     vdW  Elec       q    Type
REMARK                         _______ _______ _______ _____ _____    ______ ____
ROOT
ATOM      1  C   UNL     1       0.612  10.004  18.878  0.00  0.00    +0.000 A 
ATOM      2  C   UNL     1       1.377   9.533  17.811  0.00  0.00    +0.000 A 
ATOM      3  C   UNL     1       2.187   8.408  17.978  0.00  0.00    +0.000 A 
ATOM      4  C   UNL     1       2.209   7.737  19.202  0.00  0.00    +0.000 A 
ATOM      5  C   UNL     1       1.405   8.186  20.253  0.00  0.00    +0.000 A 
ATOM      6  C   UNL     1       0.643   9.345  20.105  0.00  0.00    +0.000 A 
ENDROOT
BRANCH   1   7
ATOM      7  N   UNL     1      -0.276  11.093  18.657  0.00  0.00    +0.000 N 
ATOM      8  H   UNL     1      -0.582  11.252  17.696  0.00  0.00    +0.000 HD
BRANCH   7  10
ATOM      9  O   UNL     1       1.433  12.446  19.974  0.00  0.00    +0.000 OA
ATOM     10  S   UNL     1       0.099  12.565  19.428  0.00  0.00    +0.000 S 
ATOM     11  O   UNL     1      -0.247  13.651  18.537  0.00  0.00    +0.000 OA
BRANCH  10  12
ATOM     12  C   UNL     1      -1.023  12.618  20.813  0.00  0.00    +0.000 A 
ATOM     13  C   UNL     1      -0.500  12.854  22.093  0.00  0.00    +0.000 A 
ATOM     14  C   UNL     1      -1.352  12.907  23.198  0.00  0.00    +0.000 A 
ATOM     15  C   UNL     1      -2.722  12.724  23.025  0.00  0.00    +0.000 A 
ATOM     16 CL   UNL     1      -3.775  12.806  24.381  0.00  0.00    +0.000 Cl
ATOM     17  C   UNL     1      -3.248  12.486  21.756  0.00  0.00    +0.000 A 
ATOM     18  C   UNL     1      -2.400  12.427  20.644  0.00  0.00    +0.000 A 
ATOM     19 CL   UNL     1      -3.157  12.192  19.109  0.00  0.00    +0.000 Cl
ENDBRANCH  10  12
ENDBRANCH   7  10
ENDBRANCH   1   7
BRANCH   4  20
ATOM     20  O   UNL     1       2.996   6.609  19.257  0.00  0.00    +0.000 OA
BRANCH  20  21
ATOM     21  C   UNL     1       2.408   5.370  19.303  0.00  0.00    +0.000 A 
ATOM     22  C   UNL     1       1.990   4.819  18.097  0.00  0.00    +0.000 A 
ATOM     23  N   UNL     1       1.397   3.606  17.983  0.00  0.00    +0.000 NA
ATOM     24  C   UNL     1       1.223   2.911  19.134  0.00  0.00    +0.000 A 
ATOM     25  C   UNL     1       1.630   3.368  20.378  0.00  0.00    +0.000 A 
ATOM     26 CL   UNL     1       1.351   2.441  21.795  0.00  0.00    +0.000 Cl
ATOM     27  C   UNL     1       2.257   4.606  20.461  0.00  0.00    +0.000 A 
ENDBRANCH  20  21
ENDBRANCH   4  20
TORSDOF 5
ENDMDL
