MODEL 1
REMARK VINA RESULT:      -9.1      0.000      0.000
REMARK  Name = 
REMARK  4 active torsions:
REMARK  status: ('A' for Active; 'I' for Inactive)
REMARK    1  A    between atoms: C_1  and  O_2
REMARK    2  A    between atoms: O_2  and  C_3
REMARK    3  A    between atoms: C_7  and  C_8
REMARK    4  A    between atoms: C_10  and  C_11
REMARK                            x       y       z     vdW  Elec       q    Type
REMARK                         _______ _______ _______ _____ _____    ______ ____
ROOT
ATOM      1  C   UNL     1       3.691   4.983  18.592  0.00  0.00    +0.000 A 
ATOM      2  C   UNL     1       3.351   3.844  19.299  0.00  0.00    +0.000 A 
ATOM      3  C   UNL     1       2.454   3.984  20.344  0.00  0.00    +0.000 A 
ATOM      4  N   UNL     1       1.921   5.192  20.663  0.00  0.00    +0.000 NA
ATOM      5  C   UNL     1       2.265   6.246  19.892  0.00  0.00    +0.000 A 
ATOM      6  N   UNL     1       1.687   7.522  20.217  0.00  0.00    +0.000 N 
ATOM      7  C   UNL     1       0.911   7.799  21.330  0.00  0.00    +0.000 A 
ATOM      8  C   UNL     1       0.536   9.118  21.248  0.00  0.00    +0.000 A 
ATOM      9  C   UNL     1       1.118   9.573  20.047  0.00  0.00    +0.000 A 
ATOM     10  N   UNL     1       1.008  10.892  19.445  0.00  0.00    +0.000 N 
ATOM     11  O   UNL     1       0.328  11.719  20.072  0.00  0.00    +0.000 OA
ATOM     12  O   UNL     1       1.575  11.103  18.364  0.00  0.00    +0.000 OA
ATOM     13  N   UNL     1       1.841   8.625  19.431  0.00  0.00    +0.000 NA
ATOM     14  N   UNL     1       3.122   6.175  18.858  0.00  0.00    +0.000 NA
ENDROOT
BRANCH   1  19
ATOM     15  C   UNL     1       6.761   6.048  16.631  0.00  0.00    +0.000 A 
ATOM     16  C   UNL     1       6.729   5.145  15.570  0.00  0.00    +0.000 A 
ATOM     17  C   UNL     1       5.735   4.171  15.500  0.00  0.00    +0.000 A 
ATOM     18  C   UNL     1       4.755   4.102  16.495  0.00  0.00    +0.000 A 
ATOM     19  C   UNL     1       4.760   4.996  17.577  0.00  0.00    +0.000 A 
ATOM     20  C   UNL     1       5.785   5.964  17.626  0.00  0.00    +0.000 A 
BRANCH  15  22
ATOM     21  C   UNL     1       7.739   8.011  17.554  0.00  0.00    +0.000 C 
ATOM     22  O   UNL     1       7.768   6.973  16.581  0.00  0.00    +0.000 OA
ENDBRANCH  15  22
ENDBRANCH   1  19
BRANCH   3  23
ATOM     23  C   UNL     1       2.079   2.772  21.181  0.00  0.00    +0.000 C 
ATOM     24  F   UNL     1       1.138   3.044  22.133  0.00  0.00    +0.000 F 
ATOM     25  F   UNL     1       1.559   1.757  20.435  0.00  0.00    +0.000 F 
ATOM     26  F   UNL     1       3.140   2.244  21.855  0.00  0.00    +0.000 F 
ENDBRANCH   3  23
TORSDOF 3
ENDMDL
MODEL 2
REMARK VINA RESULT:      -8.6      0.988      1.881
REMARK  Name = 
REMARK  4 active torsions:
REMARK  status: ('A' for Active; 'I' for Inactive)
REMARK    1  A    between atoms: C_1  and  O_2
REMARK    2  A    between atoms: O_2  and  C_3
REMARK    3  A    between atoms: C_7  and  C_8
REMARK    4  A    between atoms: C_10  and  C_11
REMARK                            x       y       z     vdW  Elec       q    Type
REMARK                         _______ _______ _______ _____ _____    ______ ____
ROOT
ATOM      1  C   UNL     1       3.685   5.207  18.590  0.00  0.00    +0.000 A 
ATOM      2  C   UNL     1       3.334   4.035  19.235  0.00  0.00    +0.000 A 
ATOM      3  C   UNL     1       2.400   4.123  20.254  0.00  0.00    +0.000 A 
ATOM      4  N   UNL     1       1.843   5.311  20.605  0.00  0.00    +0.000 NA
ATOM      5  C   UNL     1       2.202   6.400  19.891  0.00  0.00    +0.000 A 
ATOM      6  N   UNL     1       1.599   7.655  20.249  0.00  0.00    +0.000 N 
ATOM      7  C   UNL     1       0.782   7.877  21.346  0.00  0.00    +0.000 A 
ATOM      8  C   UNL     1       0.396   9.195  21.306  0.00  0.00    +0.000 A 
ATOM      9  C   UNL     1       1.014   9.706  20.146  0.00  0.00    +0.000 A 
ATOM     10  N   UNL     1       0.910  11.048  19.597  0.00  0.00    +0.000 N 
ATOM     11  O   UNL     1       0.200  11.841  20.234  0.00  0.00    +0.000 OA
ATOM     12  O   UNL     1       1.511  11.310  18.546  0.00  0.00    +0.000 OA
ATOM     13  N   UNL     1       1.768   8.792  19.516  0.00  0.00    +0.000 NA
ATOM     14  N   UNL     1       3.095   6.381  18.885  0.00  0.00    +0.000 NA
ENDROOT
BRANCH   1  19
ATOM     15  C   UNL     1       5.944   4.334  15.667  0.00  0.00    +0.000 A 
ATOM     16  C   UNL     1       6.959   5.276  15.821  0.00  0.00    +0.000 A 
ATOM     17  C   UNL     1       6.903   6.214  16.850  0.00  0.00    +0.000 A 
ATOM     18  C   UNL     1       5.827   6.209  17.741  0.00  0.00    +0.000 A 
ATOM     19  C   UNL     1       4.788   5.273  17.613  0.00  0.00    +0.000 A 
ATOM     20  C   UNL     1       4.866   4.343  16.555  0.00  0.00    +0.000 A 
BRANCH  15  22
ATOM     21  C   UNL     1       6.388   4.000  13.353  0.00  0.00    +0.000 C 
ATOM     22  O   UNL     1       6.118   3.450  14.638  0.00  0.00    +0.000 OA
ENDBRANCH  15  22
ENDBRANCH   1  19
BRANCH   3  23
ATOM     23  C   UNL     1       2.010   2.872  21.025  0.00  0.00    +0.000 C 
ATOM     24  F   UNL     1       3.004   2.410  21.841  0.00  0.00    +0.000 F 
ATOM     25  F   UNL     1       0.934   3.069  21.839  0.00  0.00    +0.000 F 
ATOM     26  F   UNL     1       1.688   1.826  20.213  0.00  0.00    +0.000 F 
ENDBRANCH   3  23
TORSDOF 3
ENDMDL
MODEL 3
REMARK VINA RESULT:      -8.2      2.032      6.463
REMARK  Name = 
REMARK  4 active torsions:
REMARK  status: ('A' for Active; 'I' for Inactive)
REMARK    1  A    between atoms: C_1  and  O_2
REMARK    2  A    between atoms: O_2  and  C_3
REMARK    3  A    between atoms: C_7  and  C_8
REMARK    4  A    between atoms: C_10  and  C_11
REMARK                            x       y       z     vdW  Elec       q    Type
REMARK                         _______ _______ _______ _____ _____    ______ ____
ROOT
ATOM      1  C   UNL     1       2.057   6.466  20.092  0.00  0.00    +0.000 A 
ATOM      2  C   UNL     1       1.395   5.365  20.604  0.00  0.00    +0.000 A 
ATOM      3  C   UNL     1       1.773   4.118  20.136  0.00  0.00    +0.000 A 
ATOM      4  N   UNL     1       2.760   3.977  19.214  0.00  0.00    +0.000 NA
ATOM      5  C   UNL     1       3.392   5.098  18.803  0.00  0.00    +0.000 A 
ATOM      6  N   UNL     1       4.449   4.948  17.841  0.00  0.00    +0.000 N 
ATOM      7  C   UNL     1       4.795   3.773  17.194  0.00  0.00    +0.000 A 
ATOM      8  C   UNL     1       5.871   4.054  16.387  0.00  0.00    +0.000 A 
ATOM      9  C   UNL     1       6.125   5.423  16.605  0.00  0.00    +0.000 A 
ATOM     10  N   UNL     1       7.186   6.236  16.034  0.00  0.00    +0.000 N 
ATOM     11  O   UNL     1       7.951   5.656  15.249  0.00  0.00    +0.000 OA
ATOM     12  O   UNL     1       7.267   7.427  16.364  0.00  0.00    +0.000 OA
ATOM     13  N   UNL     1       5.254   5.981  17.460  0.00  0.00    +0.000 NA
ATOM     14  N   UNL     1       3.079   6.336  19.225  0.00  0.00    +0.000 NA
ENDROOT
BRANCH   1  19
ATOM     15  C   UNL     1       0.753   9.504  21.957  0.00  0.00    +0.000 A 
ATOM     16  C   UNL     1       0.671  10.438  20.927  0.00  0.00    +0.000 A 
ATOM     17  C   UNL     1       1.065  10.100  19.633  0.00  0.00    +0.000 A 
ATOM     18  C   UNL     1       1.537   8.813  19.362  0.00  0.00    +0.000 A 
ATOM     19  C   UNL     1       1.632   7.849  20.378  0.00  0.00    +0.000 A 
ATOM     20  C   UNL     1       1.237   8.224  21.679  0.00  0.00    +0.000 A 
BRANCH  15  22
ATOM     21  C   UNL     1      -0.978  10.529  23.228  0.00  0.00    +0.000 C 
ATOM     22  O   UNL     1       0.317   9.942  23.178  0.00  0.00    +0.000 OA
ENDBRANCH  15  22
ENDBRANCH   1  19
BRANCH   3  23
ATOM     23  C   UNL     1       1.049   2.877  20.633  0.00  0.00    +0.000 C 
ATOM     24  F   UNL     1       1.717   1.717  20.359  0.00  0.00    +0.000 F 
ATOM     25  F   UNL     1       0.865   2.880  21.984  0.00  0.00    +0.000 F 
ATOM     26  F   UNL     1      -0.187   2.727  20.081  0.00  0.00    +0.000 F 
ENDBRANCH   3  23
TORSDOF 3
ENDMDL
MODEL 4
REMARK VINA RESULT:      -7.9      2.021      3.061
REMARK  Name = 
REMARK  4 active torsions:
REMARK  status: ('A' for Active; 'I' for Inactive)
REMARK    1  A    between atoms: C_1  and  O_2
REMARK    2  A    between atoms: O_2  and  C_3
REMARK    3  A    between atoms: C_7  and  C_8
REMARK    4  A    between atoms: C_10  and  C_11
REMARK                            x       y       z     vdW  Elec       q    Type
REMARK                         _______ _______ _______ _____ _____    ______ ____
ROOT
ATOM      1  C   UNL     1       4.485   4.418  16.778  0.00  0.00    +0.000 A 
ATOM      2  C   UNL     1       4.286   3.207  17.417  0.00  0.00    +0.000 A 
ATOM      3  C   UNL     1       3.533   3.214  18.579  0.00  0.00    +0.000 A 
ATOM      4  N   UNL     1       3.003   4.363  19.072  0.00  0.00    +0.000 NA
ATOM      5  C   UNL     1       3.200   5.495  18.361  0.00  0.00    +0.000 A 
ATOM      6  N   UNL     1       2.623   6.708  18.872  0.00  0.00    +0.000 N 
ATOM      7  C   UNL     1       1.994   6.852  20.097  0.00  0.00    +0.000 A 
ATOM      8  C   UNL     1       1.562   8.153  20.183  0.00  0.00    +0.000 A 
ATOM      9  C   UNL     1       1.959   8.735  18.963  0.00  0.00    +0.000 A 
ATOM     10  N   UNL     1       1.719  10.093  18.501  0.00  0.00    +0.000 N 
ATOM     11  O   UNL     1       1.099  10.830  19.283  0.00  0.00    +0.000 OA
ATOM     12  O   UNL     1       2.128  10.422  17.379  0.00  0.00    +0.000 OA
ATOM     13  N   UNL     1       2.628   7.880  18.174  0.00  0.00    +0.000 NA
ATOM     14  N   UNL     1       3.913   5.553  17.221  0.00  0.00    +0.000 NA
ENDROOT
BRANCH   1  19
ATOM     15  C   UNL     1       6.065   3.950  13.359  0.00  0.00    +0.000 A 
ATOM     16  C   UNL     1       7.223   4.714  13.490  0.00  0.00    +0.000 A 
ATOM     17  C   UNL     1       7.482   5.407  14.671  0.00  0.00    +0.000 A 
ATOM     18  C   UNL     1       6.581   5.330  15.737  0.00  0.00    +0.000 A 
ATOM     19  C   UNL     1       5.406   4.569  15.637  0.00  0.00    +0.000 A 
ATOM     20  C   UNL     1       5.165   3.888  14.424  0.00  0.00    +0.000 A 
BRANCH  15  22
ATOM     21  C   UNL     1       4.612   3.193  11.632  0.00  0.00    +0.000 C 
ATOM     22  O   UNL     1       5.929   3.296  12.164  0.00  0.00    +0.000 OA
ENDBRANCH  15  22
ENDBRANCH   1  19
BRANCH   3  23
ATOM     23  C   UNL     1       3.320   1.919  19.345  0.00  0.00    +0.000 C 
ATOM     24  F   UNL     1       3.731   0.812  18.656  0.00  0.00    +0.000 F 
ATOM     25  F   UNL     1       4.002   1.886  20.525  0.00  0.00    +0.000 F 
ATOM     26  F   UNL     1       2.012   1.694  19.654  0.00  0.00    +0.000 F 
ENDBRANCH   3  23
TORSDOF 3
ENDMDL
MODEL 5
REMARK VINA RESULT:      -7.7      1.611      6.166
REMARK  Name = 
REMARK  4 active torsions:
REMARK  status: ('A' for Active; 'I' for Inactive)
REMARK    1  A    between atoms: C_1  and  O_2
REMARK    2  A    between atoms: O_2  and  C_3
REMARK    3  A    between atoms: C_7  and  C_8
REMARK    4  A    between atoms: C_10  and  C_11
REMARK                            x       y       z     vdW  Elec       q    Type
REMARK                         _______ _______ _______ _____ _____    ______ ____
ROOT
ATOM      1  C   UNL     1       1.965   6.481  20.194  0.00  0.00    +0.000 A 
ATOM      2  C   UNL     1       1.325   5.332  20.618  0.00  0.00    +0.000 A 
ATOM      3  C   UNL     1       1.777   4.125  20.114  0.00  0.00    +0.000 A 
ATOM      4  N   UNL     1       2.815   4.067  19.239  0.00  0.00    +0.000 NA
ATOM      5  C   UNL     1       3.419   5.230  18.914  0.00  0.00    +0.000 A 
ATOM      6  N   UNL     1       4.530   5.168  18.003  0.00  0.00    +0.000 N 
ATOM      7  C   UNL     1       4.956   4.040  17.322  0.00  0.00    +0.000 A 
ATOM      8  C   UNL     1       6.058   4.401  16.585  0.00  0.00    +0.000 A 
ATOM      9  C   UNL     1       6.245   5.767  16.881  0.00  0.00    +0.000 A 
ATOM     10  N   UNL     1       7.299   6.647  16.404  0.00  0.00    +0.000 N 
ATOM     11  O   UNL     1       8.126   6.136  15.635  0.00  0.00    +0.000 OA
ATOM     12  O   UNL     1       7.314   7.824  16.793  0.00  0.00    +0.000 OA
ATOM     13  N   UNL     1       5.309   6.249  17.713  0.00  0.00    +0.000 NA
ATOM     14  N   UNL     1       3.035   6.433  19.376  0.00  0.00    +0.000 NA
ENDROOT
BRANCH   1  19
ATOM     15  C   UNL     1       0.994  10.132  19.824  0.00  0.00    +0.000 A 
ATOM     16  C   UNL     1       0.673  10.460  21.139  0.00  0.00    +0.000 A 
ATOM     17  C   UNL     1       0.739   9.496  22.144  0.00  0.00    +0.000 A 
ATOM     18  C   UNL     1       1.140   8.193  21.836  0.00  0.00    +0.000 A 
ATOM     19  C   UNL     1       1.470   7.831  20.521  0.00  0.00    +0.000 A 
ATOM     20  C   UNL     1       1.382   8.825  19.523  0.00  0.00    +0.000 A 
BRANCH  15  22
ATOM     21  C   UNL     1       1.412  12.427  19.355  0.00  0.00    +0.000 C 
ATOM     22  O   UNL     1       0.915  11.164  18.928  0.00  0.00    +0.000 OA
ENDBRANCH  15  22
ENDBRANCH   1  19
BRANCH   3  23
ATOM     23  C   UNL     1       1.081   2.834  20.514  0.00  0.00    +0.000 C 
ATOM     24  F   UNL     1       1.813   1.716  20.230  0.00  0.00    +0.000 F 
ATOM     25  F   UNL     1       0.820   2.768  21.850  0.00  0.00    +0.000 F 
ATOM     26  F   UNL     1      -0.115   2.658  19.883  0.00  0.00    +0.000 F 
ENDBRANCH   3  23
TORSDOF 3
ENDMDL
MODEL 6
REMARK VINA RESULT:      -7.7      4.786      6.368
REMARK  Name = 
REMARK  4 active torsions:
REMARK  status: ('A' for Active; 'I' for Inactive)
REMARK    1  A    between atoms: C_1  and  O_2
REMARK    2  A    between atoms: O_2  and  C_3
REMARK    3  A    between atoms: C_7  and  C_8
REMARK    4  A    between atoms: C_10  and  C_11
REMARK                            x       y       z     vdW  Elec       q    Type
REMARK                         _______ _______ _______ _____ _____    ______ ____
ROOT
ATOM      1  C   UNL     1       6.231   5.289  15.535  0.00  0.00    +0.000 A 
ATOM      2  C   UNL     1       7.129   6.238  15.989  0.00  0.00    +0.000 A 
ATOM      3  C   UNL     1       6.882   6.812  17.224  0.00  0.00    +0.000 A 
ATOM      4  N   UNL     1       5.802   6.456  17.968  0.00  0.00    +0.000 NA
ATOM      5  C   UNL     1       5.002   5.485  17.477  0.00  0.00    +0.000 A 
ATOM      6  N   UNL     1       3.870   5.094  18.272  0.00  0.00    +0.000 N 
ATOM      7  C   UNL     1       3.446   5.712  19.437  0.00  0.00    +0.000 A 
ATOM      8  C   UNL     1       2.356   5.013  19.896  0.00  0.00    +0.000 A 
ATOM      9  C   UNL     1       2.185   3.976  18.957  0.00  0.00    +0.000 A 
ATOM     10  N   UNL     1       1.199   2.908  18.977  0.00  0.00    +0.000 N 
ATOM     11  O   UNL     1       0.405   2.920  19.930  0.00  0.00    +0.000 OA
ATOM     12  O   UNL     1       1.216   2.064  18.070  0.00  0.00    +0.000 OA
ATOM     13  N   UNL     1       3.076   4.032  17.955  0.00  0.00    +0.000 NA
ATOM     14  N   UNL     1       5.192   4.881  16.290  0.00  0.00    +0.000 NA
ENDROOT
BRANCH   1  19
ATOM     15  C   UNL     1       5.241   3.434  12.375  0.00  0.00    +0.000 A 
ATOM     16  C   UNL     1       6.413   3.531  11.628  0.00  0.00    +0.000 A 
ATOM     17  C   UNL     1       7.516   4.220  12.129  0.00  0.00    +0.000 A 
ATOM     18  C   UNL     1       7.453   4.813  13.393  0.00  0.00    +0.000 A 
ATOM     19  C   UNL     1       6.287   4.734  14.171  0.00  0.00    +0.000 A 
ATOM     20  C   UNL     1       5.183   4.039  13.632  0.00  0.00    +0.000 A 
BRANCH  15  22
ATOM     21  C   UNL     1       3.540   3.332  10.715  0.00  0.00    +0.000 C 
ATOM     22  O   UNL     1       4.234   2.714  11.792  0.00  0.00    +0.000 OA
ENDBRANCH  15  22
ENDBRANCH   1  19
BRANCH   3  23
ATOM     23  C   UNL     1       7.813   7.892  17.751  0.00  0.00    +0.000 C 
ATOM     24  F   UNL     1       7.158   9.029  18.134  0.00  0.00    +0.000 F 
ATOM     25  F   UNL     1       8.517   7.492  18.847  0.00  0.00    +0.000 F 
ATOM     26  F   UNL     1       8.735   8.293  16.831  0.00  0.00    +0.000 F 
ENDBRANCH   3  23
TORSDOF 3
ENDMDL
MODEL 7
REMARK VINA RESULT:      -7.4      2.153      6.371
REMARK  Name = 
REMARK  4 active torsions:
REMARK  status: ('A' for Active; 'I' for Inactive)
REMARK    1  A    between atoms: C_1  and  O_2
REMARK    2  A    between atoms: O_2  and  C_3
REMARK    3  A    between atoms: C_7  and  C_8
REMARK    4  A    between atoms: C_10  and  C_11
REMARK                            x       y       z     vdW  Elec       q    Type
REMARK                         _______ _______ _______ _____ _____    ______ ____
ROOT
ATOM      1  C   UNL     1       2.390   6.465  19.671  0.00  0.00    +0.000 A 
ATOM      2  C   UNL     1       2.029   5.557  20.650  0.00  0.00    +0.000 A 
ATOM      3  C   UNL     1       2.428   4.242  20.481  0.00  0.00    +0.000 A 
ATOM      4  N   UNL     1       3.152   3.855  19.399  0.00  0.00    +0.000 NA
ATOM      5  C   UNL     1       3.508   4.812  18.515  0.00  0.00    +0.000 A 
ATOM      6  N   UNL     1       4.291   4.407  17.379  0.00  0.00    +0.000 N 
ATOM      7  C   UNL     1       4.603   3.103  17.035  0.00  0.00    +0.000 A 
ATOM      8  C   UNL     1       5.388   3.155  15.909  0.00  0.00    +0.000 A 
ATOM      9  C   UNL     1       5.516   4.532  15.635  0.00  0.00    +0.000 A 
ATOM     10  N   UNL     1       6.280   5.163  14.572  0.00  0.00    +0.000 N 
ATOM     11  O   UNL     1       6.884   4.395  13.808  0.00  0.00    +0.000 OA
ATOM     12  O   UNL     1       6.293   6.400  14.501  0.00  0.00    +0.000 OA
ATOM     13  N   UNL     1       4.832   5.297  16.499  0.00  0.00    +0.000 NA
ATOM     14  N   UNL     1       3.161   6.107  18.626  0.00  0.00    +0.000 NA
ENDROOT
BRANCH   1  19
ATOM     15  C   UNL     1       0.741   9.698  20.780  0.00  0.00    +0.000 A 
ATOM     16  C   UNL     1       0.767  10.433  19.597  0.00  0.00    +0.000 A 
ATOM     17  C   UNL     1       1.343   9.899  18.446  0.00  0.00    +0.000 A 
ATOM     18  C   UNL     1       1.892   8.614  18.472  0.00  0.00    +0.000 A 
ATOM     19  C   UNL     1       1.882   7.849  19.648  0.00  0.00    +0.000 A 
ATOM     20  C   UNL     1       1.303   8.420  20.801  0.00  0.00    +0.000 A 
BRANCH  15  22
ATOM     21  C   UNL     1      -0.164   9.507  22.973  0.00  0.00    +0.000 C 
ATOM     22  O   UNL     1       0.129  10.314  21.838  0.00  0.00    +0.000 OA
ENDBRANCH  15  22
ENDBRANCH   1  19
BRANCH   3  23
ATOM     23  C   UNL     1       2.020   3.195  21.505  0.00  0.00    +0.000 C 
ATOM     24  F   UNL     1       0.698   2.855  21.432  0.00  0.00    +0.000 F 
ATOM     25  F   UNL     1       2.704   2.025  21.363  0.00  0.00    +0.000 F 
ATOM     26  F   UNL     1       2.223   3.602  22.790  0.00  0.00    +0.000 F 
ENDBRANCH   3  23
TORSDOF 3
ENDMDL
MODEL 8
REMARK VINA RESULT:      -7.3      6.709      8.443
REMARK  Name = 
REMARK  4 active torsions:
REMARK  status: ('A' for Active; 'I' for Inactive)
REMARK    1  A    between atoms: C_1  and  O_2
REMARK    2  A    between atoms: O_2  and  C_3
REMARK    3  A    between atoms: C_7  and  C_8
REMARK    4  A    between atoms: C_10  and  C_11
REMARK                            x       y       z     vdW  Elec       q    Type
REMARK                         _______ _______ _______ _____ _____    ______ ____
ROOT
ATOM      1  C   UNL     1      -0.905  11.152  19.333  0.00  0.00    +0.000 A 
ATOM      2  C   UNL     1      -0.765  10.219  20.344  0.00  0.00    +0.000 A 
ATOM      3  C   UNL     1       0.264  10.410  21.251  0.00  0.00    +0.000 A 
ATOM      4  N   UNL     1       1.102  11.475  21.158  0.00  0.00    +0.000 NA
ATOM      5  C   UNL     1       0.866  12.367  20.171  0.00  0.00    +0.000 A 
ATOM      6  N   UNL     1       1.741  13.504  20.083  0.00  0.00    +0.000 N 
ATOM      7  C   UNL     1       2.887  13.704  20.834  0.00  0.00    +0.000 A 
ATOM      8  C   UNL     1       3.409  14.920  20.465  0.00  0.00    +0.000 A 
ATOM      9  C   UNL     1       2.515  15.403  19.489  0.00  0.00    +0.000 A 
ATOM     10  N   UNL     1       2.563  16.675  18.786  0.00  0.00    +0.000 N 
ATOM     11  O   UNL     1       3.513  17.419  19.074  0.00  0.00    +0.000 OA
ATOM     12  O   UNL     1       1.668  16.939  17.971  0.00  0.00    +0.000 OA
ATOM     13  N   UNL     1       1.519  14.543  19.228  0.00  0.00    +0.000 NA
ATOM     14  N   UNL     1      -0.121  12.245  19.266  0.00  0.00    +0.000 NA
ENDROOT
BRANCH   1  19
ATOM     15  C   UNL     1      -3.990  11.493  17.149  0.00  0.00    +0.000 A 
ATOM     16  C   UNL     1      -3.733  10.537  16.168  0.00  0.00    +0.000 A 
ATOM     17  C   UNL     1      -2.550   9.801  16.192  0.00  0.00    +0.000 A 
ATOM     18  C   UNL     1      -1.616  10.014  17.210  0.00  0.00    +0.000 A 
ATOM     19  C   UNL     1      -1.845  10.969  18.212  0.00  0.00    +0.000 A 
ATOM     20  C   UNL     1      -3.047  11.707  18.155  0.00  0.00    +0.000 A 
BRANCH  15  22
ATOM     21  C   UNL     1      -5.963  12.274  18.226  0.00  0.00    +0.000 C 
ATOM     22  O   UNL     1      -5.193  12.136  17.037  0.00  0.00    +0.000 OA
ENDBRANCH  15  22
ENDBRANCH   1  19
BRANCH   3  23
ATOM     23  C   UNL     1       0.490   9.392  22.357  0.00  0.00    +0.000 C 
ATOM     24  F   UNL     1      -0.090   8.181  22.102  0.00  0.00    +0.000 F 
ATOM     25  F   UNL     1       1.810   9.125  22.566  0.00  0.00    +0.000 F 
ATOM     26  F   UNL     1      -0.012   9.793  23.559  0.00  0.00    +0.000 F 
ENDBRANCH   3  23
TORSDOF 3
ENDMDL
MODEL 9
REMARK VINA RESULT:      -7.2      6.498      8.262
REMARK  Name = 
REMARK  4 active torsions:
REMARK  status: ('A' for Active; 'I' for Inactive)
REMARK    1  A    between atoms: C_1  and  O_2
REMARK    2  A    between atoms: O_2  and  C_3
REMARK    3  A    between atoms: C_7  and  C_8
REMARK    4  A    between atoms: C_10  and  C_11
REMARK                            x       y       z     vdW  Elec       q    Type
REMARK                         _______ _______ _______ _____ _____    ______ ____
ROOT
ATOM      1  C   UNL     1      -1.061  11.197  19.392  0.00  0.00    +0.000 A 
ATOM      2  C   UNL     1      -0.805  10.188  20.303  0.00  0.00    +0.000 A 
ATOM      3  C   UNL     1       0.314  10.322  21.108  0.00  0.00    +0.000 A 
ATOM      4  N   UNL     1       1.129  11.404  21.013  0.00  0.00    +0.000 NA
ATOM      5  C   UNL     1       0.781  12.370  20.134  0.00  0.00    +0.000 A 
ATOM      6  N   UNL     1       1.632  13.525  20.047  0.00  0.00    +0.000 N 
ATOM      7  C   UNL     1       2.851  13.682  20.686  0.00  0.00    +0.000 A 
ATOM      8  C   UNL     1       3.321  14.932  20.364  0.00  0.00    +0.000 A 
ATOM      9  C   UNL     1       2.324  15.478  19.531  0.00  0.00    +0.000 A 
ATOM     10  N   UNL     1       2.285  16.803  18.935  0.00  0.00    +0.000 N 
ATOM     11  O   UNL     1       3.255  17.536  19.179  0.00  0.00    +0.000 OA
ATOM     12  O   UNL     1       1.306  17.117  18.243  0.00  0.00    +0.000 OA
ATOM     13  N   UNL     1       1.312  14.625  19.308  0.00  0.00    +0.000 NA
ATOM     14  N   UNL     1      -0.297  12.305  19.332  0.00  0.00    +0.000 NA
ENDROOT
BRANCH   1  19
ATOM     15  C   UNL     1      -2.803  10.441  16.106  0.00  0.00    +0.000 A 
ATOM     16  C   UNL     1      -4.058  11.004  16.331  0.00  0.00    +0.000 A 
ATOM     17  C   UNL     1      -4.355  11.602  17.554  0.00  0.00    +0.000 A 
ATOM     18  C   UNL     1      -3.388  11.648  18.562  0.00  0.00    +0.000 A 
ATOM     19  C   UNL     1      -2.115  11.090  18.367  0.00  0.00    +0.000 A 
ATOM     20  C   UNL     1      -1.847  10.481  17.123  0.00  0.00    +0.000 A 
BRANCH  15  22
ATOM     21  C   UNL     1      -3.699  10.018  13.943  0.00  0.00    +0.000 C 
ATOM     22  O   UNL     1      -2.618   9.903  14.862  0.00  0.00    +0.000 OA
ENDBRANCH  15  22
ENDBRANCH   1  19
BRANCH   3  23
ATOM     23  C   UNL     1       0.665   9.222  22.096  0.00  0.00    +0.000 C 
ATOM     24  F   UNL     1       0.496   7.965  21.586  0.00  0.00    +0.000 F 
ATOM     25  F   UNL     1       1.964   9.276  22.504  0.00  0.00    +0.000 F 
ATOM     26  F   UNL     1      -0.092   9.263  23.228  0.00  0.00    +0.000 F 
ENDBRANCH   3  23
TORSDOF 3
ENDMDL
