MODEL 1
REMARK VINA RESULT:      -7.9      0.000      0.000
REMARK  Name = 
REMARK  6 active torsions:
REMARK  status: ('A' for Active; 'I' for Inactive)
REMARK    1  A    between atoms: C_1  and  C_2
REMARK    2  A    between atoms: C_10  and  C_12
REMARK    3  A    between atoms: C_15  and  C_16
REMARK    4  A    between atoms: C_17  and  C_18
REMARK    5  A    between atoms: C_29  and  C_30
REMARK    6  A    between atoms: C_30  and  N_31
REMARK                            x       y       z     vdW  Elec       q    Type
REMARK                         _______ _______ _______ _____ _____    ______ ____
ROOT
ATOM      1  C   UNL     1       0.817  16.895  23.072  0.00  0.00    +0.000 C 
ATOM      2  C   UNL     1      -0.396  16.354  23.785  0.00  0.00    +0.000 C 
ATOM      3  O   UNL     1      -0.850  16.979  24.742  0.00  0.00    +0.000 OA
ATOM      4  N   UNL     1      -0.919  15.180  23.269  0.00  0.00    +0.000 N 
ATOM      5  C   UNL     1      -0.352  14.380  22.171  0.00  0.00    +0.000 C 
ATOM      6  C   UNL     1      -1.288  13.156  21.926  0.00  0.00    +0.000 C 
ATOM      7  C   UNL     1      -0.569  11.829  22.237  0.00  0.00    +0.000 C 
ATOM      8  C   UNL     1       0.521  11.502  21.218  0.00  0.00    +0.000 C 
ATOM      9  N   UNL     1      -0.013  11.502  19.857  0.00  0.00    +0.000 N 
ATOM     10  C   UNL     1       0.135  10.458  18.917  0.00  0.00    +0.000 C 
ATOM     11  O   UNL     1      -0.448  10.526  17.833  0.00  0.00    +0.000 OA
ATOM     12  C   UNL     1      -0.704  12.732  19.468  0.00  0.00    +0.000 C 
ATOM     13  C   UNL     1      -1.801  13.121  20.469  0.00  0.00    +0.000 C 
ATOM     14  C   UNL     1      -2.387  13.430  22.939  0.00  0.00    +0.000 A 
ATOM     15  C   UNL     1      -3.550  12.696  23.189  0.00  0.00    +0.000 A 
ATOM     16  C   UNL     1      -4.441  13.124  24.193  0.00  0.00    +0.000 A 
ATOM     17  C   UNL     1      -4.139  14.279  24.936  0.00  0.00    +0.000 A 
ATOM     18  C   UNL     1      -2.976  15.005  24.687  0.00  0.00    +0.000 A 
ATOM     19  C   UNL     1      -2.115  14.576  23.690  0.00  0.00    +0.000 A 
ENDROOT
BRANCH  10  20
ATOM     20  C   UNL     1       0.931   9.278  19.248  0.00  0.00    +0.000 A 
ATOM     21  C   UNL     1       0.920   8.513  20.405  0.00  0.00    +0.000 A 
ATOM     22  C   UNL     1       1.879   7.486  20.240  0.00  0.00    +0.000 A 
ATOM     23  C   UNL     1       2.387   7.648  18.974  0.00  0.00    +0.000 A 
ATOM     24  O   UNL     1       1.799   8.703  18.347  0.00  0.00    +0.000 OA
BRANCH  23  25
ATOM     25  C   UNL     1       3.390   6.928  18.284  0.00  0.00    +0.000 C 
ATOM     26  C   UNL     1       4.239   6.360  17.639  0.00  0.00    +0.000 C 
BRANCH  26  27
ATOM     27  C   UNL     1       5.242   5.712  16.846  0.00  0.00    +0.000 A 
ATOM     28  C   UNL     1       5.136   5.696  15.451  0.00  0.00    +0.000 A 
ATOM     29  C   UNL     1       6.102   5.044  14.681  0.00  0.00    +0.000 A 
ATOM     30  C   UNL     1       7.180   4.411  15.300  0.00  0.00    +0.000 A 
ATOM     31  C   UNL     1       7.299   4.442  16.688  0.00  0.00    +0.000 A 
ATOM     32  C   UNL     1       6.334   5.092  17.462  0.00  0.00    +0.000 A 
ENDBRANCH  26  27
ENDBRANCH  23  25
ENDBRANCH  10  20
BRANCH  16  33
ATOM     33  C   UNL     1      -5.702  12.357  24.512  0.00  0.00    +0.000 C 
BRANCH  33  34
ATOM     34  N   UNL     1      -6.879  13.216  24.509  0.00  0.00    +0.000 NA
ATOM     35  H   UNL     1      -6.966  13.642  23.586  0.00  0.00    +0.000 HD
ATOM     36  H   UNL     1      -6.727  13.984  25.160  0.00  0.00    +0.000 HD
ENDBRANCH  33  34
ENDBRANCH  16  33
TORSDOF 5
ENDMDL
MODEL 2
REMARK VINA RESULT:      -7.6      3.959      6.391
REMARK  Name = 
REMARK  6 active torsions:
REMARK  status: ('A' for Active; 'I' for Inactive)
REMARK    1  A    between atoms: C_1  and  C_2
REMARK    2  A    between atoms: C_10  and  C_12
REMARK    3  A    between atoms: C_15  and  C_16
REMARK    4  A    between atoms: C_17  and  C_18
REMARK    5  A    between atoms: C_29  and  C_30
REMARK    6  A    between atoms: C_30  and  N_31
REMARK                            x       y       z     vdW  Elec       q    Type
REMARK                         _______ _______ _______ _____ _____    ______ ____
ROOT
ATOM      1  C   UNL     1      -3.038   9.588  16.950  0.00  0.00    +0.000 C 
ATOM      2  C   UNL     1      -2.407  10.844  17.493  0.00  0.00    +0.000 C 
ATOM      3  O   UNL     1      -3.041  11.898  17.439  0.00  0.00    +0.000 OA
ATOM      4  N   UNL     1      -1.145  10.692  18.041  0.00  0.00    +0.000 N 
ATOM      5  C   UNL     1      -0.343   9.457  18.054  0.00  0.00    +0.000 C 
ATOM      6  C   UNL     1       1.000   9.756  18.790  0.00  0.00    +0.000 C 
ATOM      7  C   UNL     1       2.204   9.615  17.840  0.00  0.00    +0.000 C 
ATOM      8  C   UNL     1       2.470   8.164  17.443  0.00  0.00    +0.000 C 
ATOM      9  N   UNL     1       2.632   7.317  18.623  0.00  0.00    +0.000 N 
ATOM     10  C   UNL     1       3.715   6.443  18.863  0.00  0.00    +0.000 C 
ATOM     11  O   UNL     1       3.796   5.854  19.944  0.00  0.00    +0.000 OA
ATOM     12  C   UNL     1       1.525   7.376  19.580  0.00  0.00    +0.000 C 
ATOM     13  C   UNL     1       1.201   8.817  20.000  0.00  0.00    +0.000 C 
ATOM     14  C   UNL     1       0.789  11.207  19.191  0.00  0.00    +0.000 A 
ATOM     15  C   UNL     1       1.638  12.047  19.916  0.00  0.00    +0.000 A 
ATOM     16  C   UNL     1       1.250  13.378  20.170  0.00  0.00    +0.000 A 
ATOM     17  C   UNL     1       0.016  13.842  19.679  0.00  0.00    +0.000 A 
ATOM     18  C   UNL     1      -0.825  13.002  18.952  0.00  0.00    +0.000 A 
ATOM     19  C   UNL     1      -0.433  11.694  18.718  0.00  0.00    +0.000 A 
ENDROOT
BRANCH  10  20
ATOM     20  C   UNL     1       4.764   6.277  17.859  0.00  0.00    +0.000 A 
ATOM     21  C   UNL     1       6.019   6.866  17.802  0.00  0.00    +0.000 A 
ATOM     22  C   UNL     1       6.653   6.391  16.630  0.00  0.00    +0.000 A 
ATOM     23  C   UNL     1       5.773   5.501  16.062  0.00  0.00    +0.000 A 
ATOM     24  O   UNL     1       4.643   5.392  16.812  0.00  0.00    +0.000 OA
BRANCH  23  25
ATOM     25  C   UNL     1       5.867   4.745  14.870  0.00  0.00    +0.000 C 
ATOM     26  C   UNL     1       6.008   4.069  13.878  0.00  0.00    +0.000 C 
BRANCH  26  27
ATOM     27  C   UNL     1       6.207   3.253  12.717  0.00  0.00    +0.000 A 
ATOM     28  C   UNL     1       5.131   2.567  12.145  0.00  0.00    +0.000 A 
ATOM     29  C   UNL     1       5.332   1.753  11.028  0.00  0.00    +0.000 A 
ATOM     30  C   UNL     1       6.605   1.626  10.475  0.00  0.00    +0.000 A 
ATOM     31  C   UNL     1       7.677   2.323  11.031  0.00  0.00    +0.000 A 
ATOM     32  C   UNL     1       7.480   3.136  12.149  0.00  0.00    +0.000 A 
ENDBRANCH  26  27
ENDBRANCH  23  25
ENDBRANCH  10  20
BRANCH  16  33
ATOM     33  C   UNL     1       2.139  14.330  20.933  0.00  0.00    +0.000 C 
BRANCH  33  34
ATOM     34  N   UNL     1       3.253  13.642  21.573  0.00  0.00    +0.000 NA
ATOM     35  H   UNL     1       4.123  14.001  21.181  0.00  0.00    +0.000 HD
ATOM     36  H   UNL     1       3.218  12.656  21.322  0.00  0.00    +0.000 HD
ENDBRANCH  33  34
ENDBRANCH  16  33
TORSDOF 5
ENDMDL
MODEL 3
REMARK VINA RESULT:      -7.5      2.519      3.380
REMARK  Name = 
REMARK  6 active torsions:
REMARK  status: ('A' for Active; 'I' for Inactive)
REMARK    1  A    between atoms: C_1  and  C_2
REMARK    2  A    between atoms: C_10  and  C_12
REMARK    3  A    between atoms: C_15  and  C_16
REMARK    4  A    between atoms: C_17  and  C_18
REMARK    5  A    between atoms: C_29  and  C_30
REMARK    6  A    between atoms: C_30  and  N_31
REMARK                            x       y       z     vdW  Elec       q    Type
REMARK                         _______ _______ _______ _____ _____    ______ ____
ROOT
ATOM      1  C   UNL     1       2.506  17.310  17.750  0.00  0.00    +0.000 C 
ATOM      2  C   UNL     1       2.141  17.538  19.194  0.00  0.00    +0.000 C 
ATOM      3  O   UNL     1       2.397  18.627  19.706  0.00  0.00    +0.000 OA
ATOM      4  N   UNL     1       1.509  16.481  19.826  0.00  0.00    +0.000 N 
ATOM      5  C   UNL     1       1.255  15.148  19.254  0.00  0.00    +0.000 C 
ATOM      6  C   UNL     1       0.507  14.293  20.324  0.00  0.00    +0.000 C 
ATOM      7  C   UNL     1       1.358  13.090  20.775  0.00  0.00    +0.000 C 
ATOM      8  C   UNL     1       1.501  12.032  19.683  0.00  0.00    +0.000 C 
ATOM      9  N   UNL     1       0.192  11.595  19.198  0.00  0.00    +0.000 N 
ATOM     10  C   UNL     1      -0.243  10.255  19.104  0.00  0.00    +0.000 C 
ATOM     11  O   UNL     1      -1.407  10.013  18.777  0.00  0.00    +0.000 OA
ATOM     12  C   UNL     1      -0.683  12.674  18.735  0.00  0.00    +0.000 C 
ATOM     13  C   UNL     1      -0.848  13.779  19.788  0.00  0.00    +0.000 C 
ATOM     14  C   UNL     1       0.358  15.307  21.446  0.00  0.00    +0.000 A 
ATOM     15  C   UNL     1      -0.265  15.153  22.687  0.00  0.00    +0.000 A 
ATOM     16  C   UNL     1      -0.280  16.229  23.597  0.00  0.00    +0.000 A 
ATOM     17  C   UNL     1       0.343  17.439  23.243  0.00  0.00    +0.000 A 
ATOM     18  C   UNL     1       0.968  17.587  22.007  0.00  0.00    +0.000 A 
ATOM     19  C   UNL     1       0.966  16.522  21.120  0.00  0.00    +0.000 A 
ENDROOT
BRANCH  10  20
ATOM     20  C   UNL     1       0.665   9.161  19.443  0.00  0.00    +0.000 A 
ATOM     21  C   UNL     1       0.833   8.510  20.656  0.00  0.00    +0.000 A 
ATOM     22  C   UNL     1       1.839   7.532  20.473  0.00  0.00    +0.000 A 
ATOM     23  C   UNL     1       2.194   7.603  19.148  0.00  0.00    +0.000 A 
ATOM     24  O   UNL     1       1.468   8.557  18.502  0.00  0.00    +0.000 OA
BRANCH  23  25
ATOM     25  C   UNL     1       3.164   6.883  18.413  0.00  0.00    +0.000 C 
ATOM     26  C   UNL     1       4.032   6.260  17.848  0.00  0.00    +0.000 C 
BRANCH  26  27
ATOM     27  C   UNL     1       5.081   5.520  17.210  0.00  0.00    +0.000 A 
ATOM     28  C   UNL     1       6.391   5.593  17.696  0.00  0.00    +0.000 A 
ATOM     29  C   UNL     1       7.415   4.889  17.059  0.00  0.00    +0.000 A 
ATOM     30  C   UNL     1       7.136   4.107  15.939  0.00  0.00    +0.000 A 
ATOM     31  C   UNL     1       5.828   4.016  15.464  0.00  0.00    +0.000 A 
ATOM     32  C   UNL     1       4.801   4.720  16.097  0.00  0.00    +0.000 A 
ENDBRANCH  26  27
ENDBRANCH  23  25
ENDBRANCH  10  20
BRANCH  16  33
ATOM     33  C   UNL     1      -0.926  16.108  24.956  0.00  0.00    +0.000 C 
BRANCH  33  34
ATOM     34  N   UNL     1      -2.221  16.774  25.007  0.00  0.00    +0.000 NA
ATOM     35  H   UNL     1      -2.639  16.740  24.077  0.00  0.00    +0.000 HD
ATOM     36  H   UNL     1      -2.075  17.761  25.214  0.00  0.00    +0.000 HD
ENDBRANCH  33  34
ENDBRANCH  16  33
TORSDOF 5
ENDMDL
MODEL 4
REMARK VINA RESULT:      -7.4      6.098      7.822
REMARK  Name = 
REMARK  6 active torsions:
REMARK  status: ('A' for Active; 'I' for Inactive)
REMARK    1  A    between atoms: C_1  and  C_2
REMARK    2  A    between atoms: C_10  and  C_12
REMARK    3  A    between atoms: C_15  and  C_16
REMARK    4  A    between atoms: C_17  and  C_18
REMARK    5  A    between atoms: C_29  and  C_30
REMARK    6  A    between atoms: C_30  and  N_31
REMARK                            x       y       z     vdW  Elec       q    Type
REMARK                         _______ _______ _______ _____ _____    ______ ____
ROOT
ATOM      1  C   UNL     1       6.695  18.560  24.369  0.00  0.00    +0.000 C 
ATOM      2  C   UNL     1       5.359  18.165  23.794  0.00  0.00    +0.000 C 
ATOM      3  O   UNL     1       4.336  18.465  24.409  0.00  0.00    +0.000 OA
ATOM      4  N   UNL     1       5.402  17.503  22.579  0.00  0.00    +0.000 N 
ATOM      5  C   UNL     1       6.615  17.075  21.862  0.00  0.00    +0.000 C 
ATOM      6  C   UNL     1       6.176  16.382  20.534  0.00  0.00    +0.000 C 
ATOM      7  C   UNL     1       6.572  14.894  20.520  0.00  0.00    +0.000 C 
ATOM      8  C   UNL     1       8.082  14.691  20.405  0.00  0.00    +0.000 C 
ATOM      9  N   UNL     1       8.620  15.387  19.238  0.00  0.00    +0.000 N 
ATOM     10  C   UNL     1       9.433  14.808  18.239  0.00  0.00    +0.000 C 
ATOM     11  O   UNL     1       9.742  15.468  17.245  0.00  0.00    +0.000 OA
ATOM     12  C   UNL     1       8.303  16.815  19.173  0.00  0.00    +0.000 C 
ATOM     13  C   UNL     1       6.796  17.080  19.302  0.00  0.00    +0.000 C 
ATOM     14  C   UNL     1       4.666  16.544  20.613  0.00  0.00    +0.000 A 
ATOM     15  C   UNL     1       3.695  16.149  19.689  0.00  0.00    +0.000 A 
ATOM     16  C   UNL     1       2.334  16.386  19.967  0.00  0.00    +0.000 A 
ATOM     17  C   UNL     1       1.975  17.008  21.176  0.00  0.00    +0.000 A 
ATOM     18  C   UNL     1       2.947  17.395  22.097  0.00  0.00    +0.000 A 
ATOM     19  C   UNL     1       4.282  17.163  21.805  0.00  0.00    +0.000 A 
ENDROOT
BRANCH  10  20
ATOM     20  C   UNL     1       9.863  13.415  18.357  0.00  0.00    +0.000 A 
ATOM     21  C   UNL     1      11.135  12.910  18.582  0.00  0.00    +0.000 A 
ATOM     22  C   UNL     1      11.030  11.500  18.602  0.00  0.00    +0.000 A 
ATOM     23  C   UNL     1       9.694  11.221  18.439  0.00  0.00    +0.000 A 
ATOM     24  O   UNL     1       8.970  12.368  18.327  0.00  0.00    +0.000 OA
BRANCH  23  25
ATOM     25  C   UNL     1       9.014   9.984  18.356  0.00  0.00    +0.000 C 
ATOM     26  C   UNL     1       8.430   8.936  18.212  0.00  0.00    +0.000 C 
BRANCH  26  27
ATOM     27  C   UNL     1       7.735   7.700  18.003  0.00  0.00    +0.000 A 
ATOM     28  C   UNL     1       8.061   6.571  18.761  0.00  0.00    +0.000 A 
ATOM     29  C   UNL     1       7.399   5.361  18.540  0.00  0.00    +0.000 A 
ATOM     30  C   UNL     1       6.405   5.276  17.566  0.00  0.00    +0.000 A 
ATOM     31  C   UNL     1       6.063   6.404  16.822  0.00  0.00    +0.000 A 
ATOM     32  C   UNL     1       6.725   7.615  17.039  0.00  0.00    +0.000 A 
ENDBRANCH  26  27
ENDBRANCH  23  25
ENDBRANCH  10  20
BRANCH  16  33
ATOM     33  C   UNL     1       1.245  15.964  19.010  0.00  0.00    +0.000 C 
BRANCH  33  34
ATOM     34  N   UNL     1       1.385  14.571  18.605  0.00  0.00    +0.000 NA
ATOM     35  H   UNL     1       2.107  14.513  17.887  0.00  0.00    +0.000 HD
ATOM     36  H   UNL     1       0.520  14.270  18.160  0.00  0.00    +0.000 HD
ENDBRANCH  33  34
ENDBRANCH  16  33
TORSDOF 5
ENDMDL
MODEL 5
REMARK VINA RESULT:      -7.3      2.534      2.984
REMARK  Name = 
REMARK  6 active torsions:
REMARK  status: ('A' for Active; 'I' for Inactive)
REMARK    1  A    between atoms: C_1  and  C_2
REMARK    2  A    between atoms: C_10  and  C_12
REMARK    3  A    between atoms: C_15  and  C_16
REMARK    4  A    between atoms: C_17  and  C_18
REMARK    5  A    between atoms: C_29  and  C_30
REMARK    6  A    between atoms: C_30  and  N_31
REMARK                            x       y       z     vdW  Elec       q    Type
REMARK                         _______ _______ _______ _____ _____    ______ ____
ROOT
ATOM      1  C   UNL     1      -1.531  18.155  22.050  0.00  0.00    +0.000 C 
ATOM      2  C   UNL     1      -2.750  17.646  22.775  0.00  0.00    +0.000 C 
ATOM      3  O   UNL     1      -3.393  18.426  23.476  0.00  0.00    +0.000 OA
ATOM      4  N   UNL     1      -3.061  16.314  22.561  0.00  0.00    +0.000 N 
ATOM      5  C   UNL     1      -2.269  15.347  21.783  0.00  0.00    +0.000 C 
ATOM      6  C   UNL     1      -3.014  13.976  21.806  0.00  0.00    +0.000 C 
ATOM      7  C   UNL     1      -2.187  12.900  22.535  0.00  0.00    +0.000 C 
ATOM      8  C   UNL     1      -0.946  12.482  21.748  0.00  0.00    +0.000 C 
ATOM      9  N   UNL     1      -1.301  12.045  20.399  0.00  0.00    +0.000 N 
ATOM     10  C   UNL     1      -0.913  10.825  19.803  0.00  0.00    +0.000 C 
ATOM     11  O   UNL     1      -1.359  10.518  18.695  0.00  0.00    +0.000 OA
ATOM     12  C   UNL     1      -2.080  13.012  19.624  0.00  0.00    +0.000 C 
ATOM     13  C   UNL     1      -3.332  13.483  20.376  0.00  0.00    +0.000 C 
ATOM     14  C   UNL     1      -4.257  14.340  22.601  0.00  0.00    +0.000 A 
ATOM     15  C   UNL     1      -5.346  13.533  22.940  0.00  0.00    +0.000 A 
ATOM     16  C   UNL     1      -6.401  14.072  23.703  0.00  0.00    +0.000 A 
ATOM     17  C   UNL     1      -6.335  15.414  24.120  0.00  0.00    +0.000 A 
ATOM     18  C   UNL     1      -5.244  16.214  23.784  0.00  0.00    +0.000 A 
ATOM     19  C   UNL     1      -4.219  15.671  23.026  0.00  0.00    +0.000 A 
ENDROOT
BRANCH  10  20
ATOM     20  C   UNL     1      -0.030   9.905  20.518  0.00  0.00    +0.000 A 
ATOM     21  C   UNL     1       0.530  10.036  21.780  0.00  0.00    +0.000 A 
ATOM     22  C   UNL     1       1.316   8.883  22.013  0.00  0.00    +0.000 A 
ATOM     23  C   UNL     1       1.154   8.089  20.904  0.00  0.00    +0.000 A 
ATOM     24  O   UNL     1       0.314   8.674  20.007  0.00  0.00    +0.000 OA
BRANCH  23  25
ATOM     25  C   UNL     1       1.721   6.835  20.577  0.00  0.00    +0.000 C 
ATOM     26  C   UNL     1       2.144   5.748  20.259  0.00  0.00    +0.000 C 
BRANCH  26  27
ATOM     27  C   UNL     1       2.615   4.454  19.862  0.00  0.00    +0.000 A 
ATOM     28  C   UNL     1       1.712   3.402  19.678  0.00  0.00    +0.000 A 
ATOM     29  C   UNL     1       2.174   2.136  19.314  0.00  0.00    +0.000 A 
ATOM     30  C   UNL     1       3.538   1.916  19.127  0.00  0.00    +0.000 A 
ATOM     31  C   UNL     1       4.440   2.967  19.290  0.00  0.00    +0.000 A 
ATOM     32  C   UNL     1       3.981   4.234  19.656  0.00  0.00    +0.000 A 
ENDBRANCH  26  27
ENDBRANCH  23  25
ENDBRANCH  10  20
BRANCH  16  33
ATOM     33  C   UNL     1      -7.592  13.237  24.110  0.00  0.00    +0.000 C 
BRANCH  33  34
ATOM     34  N   UNL     1      -7.434  11.840  23.726  0.00  0.00    +0.000 NA
ATOM     35  H   UNL     1      -6.470  11.561  23.908  0.00  0.00    +0.000 HD
ATOM     36  H   UNL     1      -7.566  11.759  22.720  0.00  0.00    +0.000 HD
ENDBRANCH  33  34
ENDBRANCH  16  33
TORSDOF 5
ENDMDL
MODEL 6
REMARK VINA RESULT:      -7.3      3.275      4.242
REMARK  Name = 
REMARK  6 active torsions:
REMARK  status: ('A' for Active; 'I' for Inactive)
REMARK    1  A    between atoms: C_1  and  C_2
REMARK    2  A    between atoms: C_10  and  C_12
REMARK    3  A    between atoms: C_15  and  C_16
REMARK    4  A    between atoms: C_17  and  C_18
REMARK    5  A    between atoms: C_29  and  C_30
REMARK    6  A    between atoms: C_30  and  N_31
REMARK                            x       y       z     vdW  Elec       q    Type
REMARK                         _______ _______ _______ _____ _____    ______ ____
ROOT
ATOM      1  C   UNL     1      -5.044  16.520  24.763  0.00  0.00    +0.000 C 
ATOM      2  C   UNL     1      -5.993  16.067  23.684  0.00  0.00    +0.000 C 
ATOM      3  O   UNL     1      -7.176  16.395  23.758  0.00  0.00    +0.000 OA
ATOM      4  N   UNL     1      -5.427  15.320  22.664  0.00  0.00    +0.000 N 
ATOM      5  C   UNL     1      -4.030  14.859  22.592  0.00  0.00    +0.000 C 
ATOM      6  C   UNL     1      -3.847  14.068  21.259  0.00  0.00    +0.000 C 
ATOM      7  C   UNL     1      -3.514  12.588  21.527  0.00  0.00    +0.000 C 
ATOM      8  C   UNL     1      -2.115  12.399  22.109  0.00  0.00    +0.000 C 
ATOM      9  N   UNL     1      -1.101  13.018  21.257  0.00  0.00    +0.000 N 
ATOM     10  C   UNL     1       0.060  12.380  20.767  0.00  0.00    +0.000 C 
ATOM     11  O   UNL     1       0.791  12.972  19.970  0.00  0.00    +0.000 OA
ATOM     12  C   UNL     1      -1.329  14.433  20.959  0.00  0.00    +0.000 C 
ATOM     13  C   UNL     1      -2.731  14.685  20.387  0.00  0.00    +0.000 C 
ATOM     14  C   UNL     1      -5.231  14.214  20.648  0.00  0.00    +0.000 A 
ATOM     15  C   UNL     1      -5.698  13.742  19.419  0.00  0.00    +0.000 A 
ATOM     16  C   UNL     1      -7.036  13.979  19.045  0.00  0.00    +0.000 A 
ATOM     17  C   UNL     1      -7.883  14.680  19.923  0.00  0.00    +0.000 A 
ATOM     18  C   UNL     1      -7.414  15.145  21.150  0.00  0.00    +0.000 A 
ATOM     19  C   UNL     1      -6.093  14.911  21.498  0.00  0.00    +0.000 A 
ENDROOT
BRANCH  10  20
ATOM     20  C   UNL     1       0.366  11.006  21.160  0.00  0.00    +0.000 A 
ATOM     21  C   UNL     1       0.196  10.392  22.392  0.00  0.00    +0.000 A 
ATOM     22  C   UNL     1       0.652   9.058  22.264  0.00  0.00    +0.000 A 
ATOM     23  C   UNL     1       1.027   8.916  20.950  0.00  0.00    +0.000 A 
ATOM     24  O   UNL     1       0.826  10.072  20.260  0.00  0.00    +0.000 OA
BRANCH  23  25
ATOM     25  C   UNL     1       1.580   7.809  20.264  0.00  0.00    +0.000 C 
ATOM     26  C   UNL     1       2.083   6.911  19.631  0.00  0.00    +0.000 C 
BRANCH  26  27
ATOM     27  C   UNL     1       2.696   5.872  18.857  0.00  0.00    +0.000 A 
ATOM     28  C   UNL     1       3.930   6.090  18.236  0.00  0.00    +0.000 A 
ATOM     29  C   UNL     1       4.514   5.084  17.464  0.00  0.00    +0.000 A 
ATOM     30  C   UNL     1       3.873   3.855  17.313  0.00  0.00    +0.000 A 
ATOM     31  C   UNL     1       2.652   3.627  17.947  0.00  0.00    +0.000 A 
ATOM     32  C   UNL     1       2.064   4.632  18.719  0.00  0.00    +0.000 A 
ENDBRANCH  26  27
ENDBRANCH  23  25
ENDBRANCH  10  20
BRANCH  16  33
ATOM     33  C   UNL     1      -7.594  13.475  17.736  0.00  0.00    +0.000 C 
BRANCH  33  34
ATOM     34  N   UNL     1      -6.864  12.314  17.243  0.00  0.00    +0.000 NA
ATOM     35  H   UNL     1      -5.882  12.417  17.499  0.00  0.00    +0.000 HD
ATOM     36  H   UNL     1      -6.892  12.318  16.225  0.00  0.00    +0.000 HD
ENDBRANCH  33  34
ENDBRANCH  16  33
TORSDOF 5
ENDMDL
MODEL 7
REMARK VINA RESULT:      -7.2      6.182      7.976
REMARK  Name = 
REMARK  6 active torsions:
REMARK  status: ('A' for Active; 'I' for Inactive)
REMARK    1  A    between atoms: C_1  and  C_2
REMARK    2  A    between atoms: C_10  and  C_12
REMARK    3  A    between atoms: C_15  and  C_16
REMARK    4  A    between atoms: C_17  and  C_18
REMARK    5  A    between atoms: C_29  and  C_30
REMARK    6  A    between atoms: C_30  and  N_31
REMARK                            x       y       z     vdW  Elec       q    Type
REMARK                         _______ _______ _______ _____ _____    ______ ____
ROOT
ATOM      1  C   UNL     1       5.173  17.306  25.179  0.00  0.00    +0.000 C 
ATOM      2  C   UNL     1       4.115  17.195  24.111  0.00  0.00    +0.000 C 
ATOM      3  O   UNL     1       2.945  17.433  24.408  0.00  0.00    +0.000 OA
ATOM      4  N   UNL     1       4.571  16.848  22.851  0.00  0.00    +0.000 N 
ATOM      5  C   UNL     1       5.954  16.493  22.491  0.00  0.00    +0.000 C 
ATOM      6  C   UNL     1       5.997  16.192  20.960  0.00  0.00    +0.000 C 
ATOM      7  C   UNL     1       6.363  14.721  20.687  0.00  0.00    +0.000 C 
ATOM      8  C   UNL     1       7.818  14.407  21.031  0.00  0.00    +0.000 C 
ATOM      9  N   UNL     1       8.731  15.312  20.335  0.00  0.00    +0.000 N 
ATOM     10  C   UNL     1       9.835  14.918  19.548  0.00  0.00    +0.000 C 
ATOM     11  O   UNL     1      10.474  15.768  18.922  0.00  0.00    +0.000 OA
ATOM     12  C   UNL     1       8.466  16.736  20.546  0.00  0.00    +0.000 C 
ATOM     13  C   UNL     1       7.009  17.106  20.233  0.00  0.00    +0.000 C 
ATOM     14  C   UNL     1       4.554  16.475  20.573  0.00  0.00    +0.000 A 
ATOM     15  C   UNL     1       3.959  16.414  19.310  0.00  0.00    +0.000 A 
ATOM     16  C   UNL     1       2.587  16.707  19.172  0.00  0.00    +0.000 A 
ATOM     17  C   UNL     1       1.837  17.047  20.313  0.00  0.00    +0.000 A 
ATOM     18  C   UNL     1       2.434  17.101  21.571  0.00  0.00    +0.000 A 
ATOM     19  C   UNL     1       3.785  16.819  21.688  0.00  0.00    +0.000 A 
ENDROOT
BRANCH  10  20
ATOM     20  C   UNL     1      10.189  13.505  19.431  0.00  0.00    +0.000 A 
ATOM     21  C   UNL     1      11.408  12.887  19.666  0.00  0.00    +0.000 A 
ATOM     22  C   UNL     1      11.239  11.508  19.403  0.00  0.00    +0.000 A 
ATOM     23  C   UNL     1       9.915  11.349  19.071  0.00  0.00    +0.000 A 
ATOM     24  O   UNL     1       9.258  12.540  19.119  0.00  0.00    +0.000 OA
BRANCH  23  25
ATOM     25  C   UNL     1       9.192  10.195  18.690  0.00  0.00    +0.000 C 
ATOM     26  C   UNL     1       8.601   9.175  18.423  0.00  0.00    +0.000 C 
BRANCH  26  27
ATOM     27  C   UNL     1       7.915   7.950  18.139  0.00  0.00    +0.000 A 
ATOM     28  C   UNL     1       8.253   6.777  18.823  0.00  0.00    +0.000 A 
ATOM     29  C   UNL     1       7.599   5.579  18.528  0.00  0.00    +0.000 A 
ATOM     30  C   UNL     1       6.601   5.548  17.554  0.00  0.00    +0.000 A 
ATOM     31  C   UNL     1       6.247   6.718  16.884  0.00  0.00    +0.000 A 
ATOM     32  C   UNL     1       6.901   7.918  17.176  0.00  0.00    +0.000 A 
ENDBRANCH  26  27
ENDBRANCH  23  25
ENDBRANCH  10  20
BRANCH  16  33
ATOM     33  C   UNL     1       1.894  16.640  17.833  0.00  0.00    +0.000 C 
BRANCH  33  34
ATOM     34  N   UNL     1       2.183  17.807  17.010  0.00  0.00    +0.000 NA
ATOM     35  H   UNL     1       3.017  18.263  17.377  0.00  0.00    +0.000 HD
ATOM     36  H   UNL     1       1.425  18.478  17.114  0.00  0.00    +0.000 HD
ENDBRANCH  33  34
ENDBRANCH  16  33
TORSDOF 5
ENDMDL
MODEL 8
REMARK VINA RESULT:      -7.2      5.357      7.527
REMARK  Name = 
REMARK  6 active torsions:
REMARK  status: ('A' for Active; 'I' for Inactive)
REMARK    1  A    between atoms: C_1  and  C_2
REMARK    2  A    between atoms: C_10  and  C_12
REMARK    3  A    between atoms: C_15  and  C_16
REMARK    4  A    between atoms: C_17  and  C_18
REMARK    5  A    between atoms: C_29  and  C_30
REMARK    6  A    between atoms: C_30  and  N_31
REMARK                            x       y       z     vdW  Elec       q    Type
REMARK                         _______ _______ _______ _____ _____    ______ ____
ROOT
ATOM      1  C   UNL     1       0.458   9.236  23.037  0.00  0.00    +0.000 C 
ATOM      2  C   UNL     1      -0.274   9.137  21.723  0.00  0.00    +0.000 C 
ATOM      3  O   UNL     1      -0.916   8.117  21.476  0.00  0.00    +0.000 OA
ATOM      4  N   UNL     1      -0.176  10.245  20.899  0.00  0.00    +0.000 N 
ATOM      5  C   UNL     1       0.640  11.446  21.144  0.00  0.00    +0.000 C 
ATOM      6  C   UNL     1       0.424  12.433  19.954  0.00  0.00    +0.000 C 
ATOM      7  C   UNL     1       1.727  12.648  19.161  0.00  0.00    +0.000 C 
ATOM      8  C   UNL     1       2.765  13.447  19.946  0.00  0.00    +0.000 C 
ATOM      9  N   UNL     1       2.214  14.721  20.404  0.00  0.00    +0.000 N 
ATOM     10  C   UNL     1       2.799  15.990  20.198  0.00  0.00    +0.000 C 
ATOM     11  O   UNL     1       2.189  17.006  20.539  0.00  0.00    +0.000 OA
ATOM     12  C   UNL     1       0.977  14.613  21.180  0.00  0.00    +0.000 C 
ATOM     13  C   UNL     1      -0.099  13.801  20.445  0.00  0.00    +0.000 C 
ATOM     14  C   UNL     1      -0.596  11.666  19.129  0.00  0.00    +0.000 A 
ATOM     15  C   UNL     1      -1.219  12.044  17.937  0.00  0.00    +0.000 A 
ATOM     16  C   UNL     1      -2.137  11.169  17.322  0.00  0.00    +0.000 A 
ATOM     17  C   UNL     1      -2.402   9.921  17.916  0.00  0.00    +0.000 A 
ATOM     18  C   UNL     1      -1.774   9.546  19.102  0.00  0.00    +0.000 A 
ATOM     19  C   UNL     1      -0.881  10.422  19.698  0.00  0.00    +0.000 A 
ENDROOT
BRANCH  10  20
ATOM     20  C   UNL     1       4.097  16.103  19.536  0.00  0.00    +0.000 A 
ATOM     21  C   UNL     1       4.562  17.099  18.690  0.00  0.00    +0.000 A 
ATOM     22  C   UNL     1       5.876  16.745  18.305  0.00  0.00    +0.000 A 
ATOM     23  C   UNL     1       6.161  15.579  18.974  0.00  0.00    +0.000 A 
ATOM     24  O   UNL     1       5.111  15.198  19.751  0.00  0.00    +0.000 OA
BRANCH  23  25
ATOM     25  C   UNL     1       7.315  14.762  18.952  0.00  0.00    +0.000 C 
ATOM     26  C   UNL     1       8.283  14.040  19.000  0.00  0.00    +0.000 C 
BRANCH  26  27
ATOM     27  C   UNL     1       9.420  13.172  19.092  0.00  0.00    +0.000 A 
ATOM     28  C   UNL     1       9.916  12.790  20.342  0.00  0.00    +0.000 A 
ATOM     29  C   UNL     1      11.038  11.963  20.430  0.00  0.00    +0.000 A 
ATOM     30  C   UNL     1      11.666  11.510  19.270  0.00  0.00    +0.000 A 
ATOM     31  C   UNL     1      11.162  11.873  18.021  0.00  0.00    +0.000 A 
ATOM     32  C   UNL     1      10.041  12.701  17.930  0.00  0.00    +0.000 A 
ENDBRANCH  26  27
ENDBRANCH  23  25
ENDBRANCH  10  20
BRANCH  16  33
ATOM     33  C   UNL     1      -2.824  11.524  16.026  0.00  0.00    +0.000 C 
BRANCH  33  34
ATOM     34  N   UNL     1      -2.751  10.439  15.055  0.00  0.00    +0.000 NA
ATOM     35  H   UNL     1      -3.289   9.649  15.412  0.00  0.00    +0.000 HD
ATOM     36  H   UNL     1      -1.787  10.118  14.994  0.00  0.00    +0.000 HD
ENDBRANCH  33  34
ENDBRANCH  16  33
TORSDOF 5
ENDMDL
MODEL 9
REMARK VINA RESULT:      -7.2      6.263      7.959
REMARK  Name = 
REMARK  6 active torsions:
REMARK  status: ('A' for Active; 'I' for Inactive)
REMARK    1  A    between atoms: C_1  and  C_2
REMARK    2  A    between atoms: C_10  and  C_12
REMARK    3  A    between atoms: C_15  and  C_16
REMARK    4  A    between atoms: C_17  and  C_18
REMARK    5  A    between atoms: C_29  and  C_30
REMARK    6  A    between atoms: C_30  and  N_31
REMARK                            x       y       z     vdW  Elec       q    Type
REMARK                         _______ _______ _______ _____ _____    ______ ____
ROOT
ATOM      1  C   UNL     1       8.012  17.446  25.540  0.00  0.00    +0.000 C 
ATOM      2  C   UNL     1       6.579  17.175  25.161  0.00  0.00    +0.000 C 
ATOM      3  O   UNL     1       5.696  17.372  25.996  0.00  0.00    +0.000 OA
ATOM      4  N   UNL     1       6.375  16.740  23.862  0.00  0.00    +0.000 N 
ATOM      5  C   UNL     1       7.420  16.433  22.872  0.00  0.00    +0.000 C 
ATOM      6  C   UNL     1       6.721  15.994  21.547  0.00  0.00    +0.000 C 
ATOM      7  C   UNL     1       7.042  14.528  21.202  0.00  0.00    +0.000 C 
ATOM      8  C   UNL     1       8.497  14.331  20.779  0.00  0.00    +0.000 C 
ATOM      9  N   UNL     1       8.848  15.219  19.671  0.00  0.00    +0.000 N 
ATOM     10  C   UNL     1       9.443  14.818  18.455  0.00  0.00    +0.000 C 
ATOM     11  O   UNL     1       9.598  15.641  17.551  0.00  0.00    +0.000 OA
ATOM     12  C   UNL     1       8.587  16.639  19.915  0.00  0.00    +0.000 C 
ATOM     13  C   UNL     1       7.141  16.894  20.363  0.00  0.00    +0.000 C 
ATOM     14  C   UNL     1       5.258  16.156  21.928  0.00  0.00    +0.000 A 
ATOM     15  C   UNL     1       4.121  15.945  21.145  0.00  0.00    +0.000 A 
ATOM     16  C   UNL     1       2.843  16.144  21.704  0.00  0.00    +0.000 A 
ATOM     17  C   UNL     1       2.734  16.544  23.048  0.00  0.00    +0.000 A 
ATOM     18  C   UNL     1       3.871  16.749  23.828  0.00  0.00    +0.000 A 
ATOM     19  C   UNL     1       5.120  16.557  23.260  0.00  0.00    +0.000 A 
ENDROOT
BRANCH  10  20
ATOM     20  C   UNL     1       9.825  13.422  18.248  0.00  0.00    +0.000 A 
ATOM     21  C   UNL     1      11.076  12.892  17.965  0.00  0.00    +0.000 A 
ATOM     22  C   UNL     1      10.921  11.491  17.846  0.00  0.00    +0.000 A 
ATOM     23  C   UNL     1       9.598  11.236  18.113  0.00  0.00    +0.000 A 
ATOM     24  O   UNL     1       8.930  12.387  18.394  0.00  0.00    +0.000 OA
BRANCH  23  25
ATOM     25  C   UNL     1       8.875  10.020  18.114  0.00  0.00    +0.000 C 
ATOM     26  C   UNL     1       8.301   8.958  18.060  0.00  0.00    +0.000 C 
BRANCH  26  27
ATOM     27  C   UNL     1       7.643   7.688  17.966  0.00  0.00    +0.000 A 
ATOM     28  C   UNL     1       8.098   6.601  18.720  0.00  0.00    +0.000 A 
ATOM     29  C   UNL     1       7.470   5.359  18.610  0.00  0.00    +0.000 A 
ATOM     30  C   UNL     1       6.382   5.198  17.752  0.00  0.00    +0.000 A 
ATOM     31  C   UNL     1       5.913   6.284  17.015  0.00  0.00    +0.000 A 
ATOM     32  C   UNL     1       6.540   7.528  17.121  0.00  0.00    +0.000 A 
ENDBRANCH  26  27
ENDBRANCH  23  25
ENDBRANCH  10  20
BRANCH  16  33
ATOM     33  C   UNL     1       1.584  15.912  20.905  0.00  0.00    +0.000 C 
BRANCH  33  34
ATOM     34  N   UNL     1       1.568  16.692  19.673  0.00  0.00    +0.000 NA
ATOM     35  H   UNL     1       2.008  17.594  19.856  0.00  0.00    +0.000 HD
ATOM     36  H   UNL     1       0.602  16.894  19.425  0.00  0.00    +0.000 HD
ENDBRANCH  33  34
ENDBRANCH  16  33
TORSDOF 5
ENDMDL
