MODEL 1
REMARK VINA RESULT:      -6.9      0.000      0.000
REMARK  Name = 
REMARK  11 active torsions:
REMARK  status: ('A' for Active; 'I' for Inactive)
REMARK    1  A    between atoms: C_1  and  C_2
REMARK    2  A    between atoms: C_2  and  C_3
REMARK    3  A    between atoms: C_2  and  C_4
REMARK    4  A    between atoms: C_2  and  C_6
REMARK    5  A    between atoms: C_4  and  O_5
REMARK    6  A    between atoms: C_6  and  O_7
REMARK    7  A    between atoms: C_6  and  C_8
REMARK    8  A    between atoms: N_10  and  C_11
REMARK    9  A    between atoms: C_11  and  C_12
REMARK   10  A    between atoms: N_14  and  C_15
REMARK   11  A    between atoms: C_15  and  C_16
REMARK                            x       y       z     vdW  Elec       q    Type
REMARK                         _______ _______ _______ _____ _____    ______ ____
ROOT
ATOM      1  C   UNL     1       5.432   4.943  19.289  0.00  0.00    +0.000 C 
ATOM      2  O   UNL     1       5.067   6.055  19.664  0.00  0.00    +0.000 OA
ATOM      3  N   UNL     1       6.743   4.688  18.955  0.00  0.00    +0.000 N 
ATOM      4  H   UNL     1       7.011   3.714  18.862  0.00  0.00    +0.000 HD
ENDROOT
BRANCH   1   5
ATOM      5  C   UNL     1       4.474   3.738  19.195  0.00  0.00    +0.000 C 
BRANCH   5   7
ATOM      6  C   UNL     1       3.111   2.288  17.633  0.00  0.00    +0.000 C 
ATOM      7  C   UNL     1       3.586   3.733  17.907  0.00  0.00    +0.000 C 
ATOM      8  C   UNL     1       4.386   4.189  16.666  0.00  0.00    +0.000 C 
BRANCH   7   9
ATOM      9  C   UNL     1       2.320   4.612  18.109  0.00  0.00    +0.000 C 
BRANCH   9  10
ATOM     10  O   UNL     1       2.589   5.992  17.892  0.00  0.00    +0.000 OA
ATOM     11  H   UNL     1       3.468   6.046  17.475  0.00  0.00    +0.000 HD
ENDBRANCH   9  10
ENDBRANCH   7   9
ENDBRANCH   5   7
BRANCH   5  12
ATOM     12  O   UNL     1       5.203   2.519  19.355  0.00  0.00    +0.000 OA
ATOM     13  H   UNL     1       5.226   2.073  18.490  0.00  0.00    +0.000 HD
ENDBRANCH   5  12
ENDBRANCH   1   5
BRANCH   3  14
ATOM     14  C   UNL     1       7.781   5.678  19.213  0.00  0.00    +0.000 C 
BRANCH  14  15
ATOM     15  C   UNL     1       7.807   6.816  18.177  0.00  0.00    +0.000 C 
ATOM     16  O   UNL     1       7.276   6.722  17.074  0.00  0.00    +0.000 OA
ATOM     17  N   UNL     1       8.388   7.975  18.666  0.00  0.00    +0.000 N 
ATOM     18  H   UNL     1       8.386   8.048  19.671  0.00  0.00    +0.000 HD
BRANCH  17  19
ATOM     19  C   UNL     1       8.251   9.242  17.989  0.00  0.00    +0.000 C 
BRANCH  19  20
ATOM     20  C   UNL     1       9.173  10.252  18.617  0.00  0.00    +0.000 A 
ATOM     21  C   UNL     1      10.083  10.944  17.807  0.00  0.00    +0.000 A 
ATOM     22  C   UNL     1      10.988  11.838  18.373  0.00  0.00    +0.000 A 
ATOM     23  C   UNL     1      10.997  12.046  19.750  0.00  0.00    +0.000 A 
ATOM     24  C   UNL     1      10.100  11.358  20.565  0.00  0.00    +0.000 A 
ATOM     25  C   UNL     1       9.192  10.461  20.000  0.00  0.00    +0.000 A 
ENDBRANCH  19  20
ENDBRANCH  17  19
ENDBRANCH  14  15
ENDBRANCH   3  14
TORSDOF 9
ENDMDL
MODEL 2
REMARK VINA RESULT:      -6.9      4.461      6.112
REMARK  Name = 
REMARK  11 active torsions:
REMARK  status: ('A' for Active; 'I' for Inactive)
REMARK    1  A    between atoms: C_1  and  C_2
REMARK    2  A    between atoms: C_2  and  C_3
REMARK    3  A    between atoms: C_2  and  C_4
REMARK    4  A    between atoms: C_2  and  C_6
REMARK    5  A    between atoms: C_4  and  O_5
REMARK    6  A    between atoms: C_6  and  O_7
REMARK    7  A    between atoms: C_6  and  C_8
REMARK    8  A    between atoms: N_10  and  C_11
REMARK    9  A    between atoms: C_11  and  C_12
REMARK   10  A    between atoms: N_14  and  C_15
REMARK   11  A    between atoms: C_15  and  C_16
REMARK                            x       y       z     vdW  Elec       q    Type
REMARK                         _______ _______ _______ _____ _____    ______ ____
ROOT
ATOM      1  C   UNL     1       5.937   4.391  18.756  0.00  0.00    +0.000 C 
ATOM      2  O   UNL     1       5.950   5.311  19.571  0.00  0.00    +0.000 OA
ATOM      3  N   UNL     1       5.245   3.225  18.995  0.00  0.00    +0.000 N 
ATOM      4  H   UNL     1       5.103   2.607  18.204  0.00  0.00    +0.000 HD
ENDROOT
BRANCH   1   5
ATOM      5  C   UNL     1       6.652   4.474  17.392  0.00  0.00    +0.000 C 
BRANCH   5   7
ATOM      6  C   UNL     1       5.591   6.514  16.336  0.00  0.00    +0.000 C 
ATOM      7  C   UNL     1       5.738   4.979  16.226  0.00  0.00    +0.000 C 
ATOM      8  C   UNL     1       4.317   4.380  16.321  0.00  0.00    +0.000 C 
BRANCH   7   9
ATOM      9  C   UNL     1       6.385   4.668  14.848  0.00  0.00    +0.000 C 
BRANCH   9  10
ATOM     10  O   UNL     1       7.566   5.431  14.629  0.00  0.00    +0.000 OA
ATOM     11  H   UNL     1       8.088   4.955  13.957  0.00  0.00    +0.000 HD
ENDBRANCH   9  10
ENDBRANCH   7   9
ENDBRANCH   5   7
BRANCH   5  12
ATOM     12  O   UNL     1       7.850   5.243  17.512  0.00  0.00    +0.000 OA
ATOM     13  H   UNL     1       7.795   5.979  16.877  0.00  0.00    +0.000 HD
ENDBRANCH   5  12
ENDBRANCH   1   5
BRANCH   3  14
ATOM     14  C   UNL     1       4.352   3.114  20.141  0.00  0.00    +0.000 C 
BRANCH  14  15
ATOM     15  C   UNL     1       3.025   3.870  19.954  0.00  0.00    +0.000 C 
ATOM     16  O   UNL     1       2.010   3.334  19.517  0.00  0.00    +0.000 OA
ATOM     17  N   UNL     1       3.075   5.170  20.431  0.00  0.00    +0.000 N 
ATOM     18  H   UNL     1       3.792   5.331  21.122  0.00  0.00    +0.000 HD
BRANCH  17  19
ATOM     19  C   UNL     1       1.881   5.955  20.636  0.00  0.00    +0.000 C 
BRANCH  19  20
ATOM     20  C   UNL     1       1.896   7.145  19.714  0.00  0.00    +0.000 A 
ATOM     21  C   UNL     1       2.563   7.049  18.486  0.00  0.00    +0.000 A 
ATOM     22  C   UNL     1       2.643   8.154  17.643  0.00  0.00    +0.000 A 
ATOM     23  C   UNL     1       2.063   9.364  18.019  0.00  0.00    +0.000 A 
ATOM     24  C   UNL     1       1.403   9.471  19.241  0.00  0.00    +0.000 A 
ATOM     25  C   UNL     1       1.322   8.364  20.088  0.00  0.00    +0.000 A 
ENDBRANCH  19  20
ENDBRANCH  17  19
ENDBRANCH  14  15
ENDBRANCH   3  14
TORSDOF 9
ENDMDL
MODEL 3
REMARK VINA RESULT:      -6.9      1.266      1.327
REMARK  Name = 
REMARK  11 active torsions:
REMARK  status: ('A' for Active; 'I' for Inactive)
REMARK    1  A    between atoms: C_1  and  C_2
REMARK    2  A    between atoms: C_2  and  C_3
REMARK    3  A    between atoms: C_2  and  C_4
REMARK    4  A    between atoms: C_2  and  C_6
REMARK    5  A    between atoms: C_4  and  O_5
REMARK    6  A    between atoms: C_6  and  O_7
REMARK    7  A    between atoms: C_6  and  C_8
REMARK    8  A    between atoms: N_10  and  C_11
REMARK    9  A    between atoms: C_11  and  C_12
REMARK   10  A    between atoms: N_14  and  C_15
REMARK   11  A    between atoms: C_15  and  C_16
REMARK                            x       y       z     vdW  Elec       q    Type
REMARK                         _______ _______ _______ _____ _____    ______ ____
ROOT
ATOM      1  C   UNL     1       6.170   4.601  18.505  0.00  0.00    +0.000 C 
ATOM      2  O   UNL     1       6.546   4.173  17.415  0.00  0.00    +0.000 OA
ATOM      3  N   UNL     1       6.928   5.494  19.229  0.00  0.00    +0.000 N 
ATOM      4  H   UNL     1       6.468   5.961  20.003  0.00  0.00    +0.000 HD
ENDROOT
BRANCH   1   5
ATOM      5  C   UNL     1       4.818   4.211  19.134  0.00  0.00    +0.000 C 
BRANCH   5   7
ATOM      6  C   UNL     1       3.219   3.642  17.256  0.00  0.00    +0.000 C 
ATOM      7  C   UNL     1       3.575   4.704  18.321  0.00  0.00    +0.000 C 
ATOM      8  C   UNL     1       3.878   6.018  17.566  0.00  0.00    +0.000 C 
BRANCH   7   9
ATOM      9  C   UNL     1       2.340   4.867  19.250  0.00  0.00    +0.000 C 
BRANCH   9  10
ATOM     10  O   UNL     1       2.102   3.700  20.029  0.00  0.00    +0.000 OA
ATOM     11  H   UNL     1       2.970   3.292  20.198  0.00  0.00    +0.000 HD
ENDBRANCH   9  10
ENDBRANCH   7   9
ENDBRANCH   5   7
BRANCH   5  12
ATOM     12  O   UNL     1       4.779   2.804  19.380  0.00  0.00    +0.000 OA
ATOM     13  H   UNL     1       4.859   2.668  20.341  0.00  0.00    +0.000 HD
ENDBRANCH   5  12
ENDBRANCH   1   5
BRANCH   3  14
ATOM     14  C   UNL     1       8.113   6.107  18.645  0.00  0.00    +0.000 C 
BRANCH  14  15
ATOM     15  C   UNL     1       7.827   7.460  17.968  0.00  0.00    +0.000 C 
ATOM     16  O   UNL     1       6.935   7.612  17.139  0.00  0.00    +0.000 OA
ATOM     17  N   UNL     1       8.603   8.489  18.476  0.00  0.00    +0.000 N 
ATOM     18  H   UNL     1       8.963   8.320  19.402  0.00  0.00    +0.000 HD
BRANCH  17  19
ATOM     19  C   UNL     1       8.300   9.876  18.212  0.00  0.00    +0.000 C 
BRANCH  19  20
ATOM     20  C   UNL     1       9.396  10.746  18.766  0.00  0.00    +0.000 A 
ATOM     21  C   UNL     1      10.382  11.236  17.900  0.00  0.00    +0.000 A 
ATOM     22  C   UNL     1      11.441  11.992  18.399  0.00  0.00    +0.000 A 
ATOM     23  C   UNL     1      11.526  12.261  19.763  0.00  0.00    +0.000 A 
ATOM     24  C   UNL     1      10.553  11.773  20.632  0.00  0.00    +0.000 A 
ATOM     25  C   UNL     1       9.491  11.015  20.135  0.00  0.00    +0.000 A 
ENDBRANCH  19  20
ENDBRANCH  17  19
ENDBRANCH  14  15
ENDBRANCH   3  14
TORSDOF 9
ENDMDL
MODEL 4
REMARK VINA RESULT:      -6.8      4.457      6.173
REMARK  Name = 
REMARK  11 active torsions:
REMARK  status: ('A' for Active; 'I' for Inactive)
REMARK    1  A    between atoms: C_1  and  C_2
REMARK    2  A    between atoms: C_2  and  C_3
REMARK    3  A    between atoms: C_2  and  C_4
REMARK    4  A    between atoms: C_2  and  C_6
REMARK    5  A    between atoms: C_4  and  O_5
REMARK    6  A    between atoms: C_6  and  O_7
REMARK    7  A    between atoms: C_6  and  C_8
REMARK    8  A    between atoms: N_10  and  C_11
REMARK    9  A    between atoms: C_11  and  C_12
REMARK   10  A    between atoms: N_14  and  C_15
REMARK   11  A    between atoms: C_15  and  C_16
REMARK                            x       y       z     vdW  Elec       q    Type
REMARK                         _______ _______ _______ _____ _____    ______ ____
ROOT
ATOM      1  C   UNL     1       2.741   5.119  18.553  0.00  0.00    +0.000 C 
ATOM      2  O   UNL     1       2.368   4.742  17.443  0.00  0.00    +0.000 OA
ATOM      3  N   UNL     1       3.629   6.160  18.700  0.00  0.00    +0.000 N 
ATOM      4  H   UNL     1       3.727   6.551  19.631  0.00  0.00    +0.000 HD
ENDROOT
BRANCH   1   5
ATOM      5  C   UNL     1       2.226   4.493  19.864  0.00  0.00    +0.000 C 
BRANCH   5   7
ATOM      6  C   UNL     1       4.134   2.857  19.574  0.00  0.00    +0.000 C 
ATOM      7  C   UNL     1       2.683   3.012  20.082  0.00  0.00    +0.000 C 
ATOM      8  C   UNL     1       1.812   2.026  19.273  0.00  0.00    +0.000 C 
BRANCH   7   9
ATOM      9  C   UNL     1       2.676   2.653  21.594  0.00  0.00    +0.000 C 
BRANCH   9  10
ATOM     10  O   UNL     1       1.362   2.672  22.141  0.00  0.00    +0.000 OA
ATOM     11  H   UNL     1       1.004   1.771  22.046  0.00  0.00    +0.000 HD
ENDBRANCH   9  10
ENDBRANCH   7   9
ENDBRANCH   5   7
BRANCH   5  12
ATOM     12  O   UNL     1       2.559   5.331  20.972  0.00  0.00    +0.000 OA
ATOM     13  H   UNL     1       1.728   5.601  21.400  0.00  0.00    +0.000 HD
ENDBRANCH   5  12
ENDBRANCH   1   5
BRANCH   3  14
ATOM     14  C   UNL     1       4.015   6.974  17.555  0.00  0.00    +0.000 C 
BRANCH  14  15
ATOM     15  C   UNL     1       5.364   6.559  16.940  0.00  0.00    +0.000 C 
ATOM     16  O   UNL     1       6.367   7.264  17.000  0.00  0.00    +0.000 OA
ATOM     17  N   UNL     1       5.345   5.274  16.421  0.00  0.00    +0.000 N 
ATOM     18  H   UNL     1       4.627   4.681  16.808  0.00  0.00    +0.000 HD
BRANCH  17  19
ATOM     19  C   UNL     1       6.557   4.572  16.074  0.00  0.00    +0.000 C 
BRANCH  19  20
ATOM     20  C   UNL     1       6.684   4.492  14.577  0.00  0.00    +0.000 A 
ATOM     21  C   UNL     1       5.871   3.596  13.870  0.00  0.00    +0.000 A 
ATOM     22  C   UNL     1       6.012   3.459  12.492  0.00  0.00    +0.000 A 
ATOM     23  C   UNL     1       6.966   4.210  11.808  0.00  0.00    +0.000 A 
ATOM     24  C   UNL     1       7.782   5.099  12.503  0.00  0.00    +0.000 A 
ATOM     25  C   UNL     1       7.643   5.238  13.885  0.00  0.00    +0.000 A 
ENDBRANCH  19  20
ENDBRANCH  17  19
ENDBRANCH  14  15
ENDBRANCH   3  14
TORSDOF 9
ENDMDL
MODEL 5
REMARK VINA RESULT:      -6.7      1.148      1.796
REMARK  Name = 
REMARK  11 active torsions:
REMARK  status: ('A' for Active; 'I' for Inactive)
REMARK    1  A    between atoms: C_1  and  C_2
REMARK    2  A    between atoms: C_2  and  C_3
REMARK    3  A    between atoms: C_2  and  C_4
REMARK    4  A    between atoms: C_2  and  C_6
REMARK    5  A    between atoms: C_4  and  O_5
REMARK    6  A    between atoms: C_6  and  O_7
REMARK    7  A    between atoms: C_6  and  C_8
REMARK    8  A    between atoms: N_10  and  C_11
REMARK    9  A    between atoms: C_11  and  C_12
REMARK   10  A    between atoms: N_14  and  C_15
REMARK   11  A    between atoms: C_15  and  C_16
REMARK                            x       y       z     vdW  Elec       q    Type
REMARK                         _______ _______ _______ _____ _____    ______ ____
ROOT
ATOM      1  C   UNL     1       5.524   5.015  17.579  0.00  0.00    +0.000 C 
ATOM      2  O   UNL     1       6.299   4.312  16.934  0.00  0.00    +0.000 OA
ATOM      3  N   UNL     1       5.976   5.902  18.530  0.00  0.00    +0.000 N 
ATOM      4  H   UNL     1       5.311   6.591  18.866  0.00  0.00    +0.000 HD
ENDROOT
BRANCH   1   5
ATOM      5  C   UNL     1       3.998   4.994  17.359  0.00  0.00    +0.000 C 
BRANCH   5   7
ATOM      6  C   UNL     1       3.659   2.527  17.808  0.00  0.00    +0.000 C 
ATOM      7  C   UNL     1       3.243   3.949  18.247  0.00  0.00    +0.000 C 
ATOM      8  C   UNL     1       1.713   4.051  18.063  0.00  0.00    +0.000 C 
BRANCH   7   9
ATOM      9  C   UNL     1       3.638   4.112  19.741  0.00  0.00    +0.000 C 
BRANCH   9  10
ATOM     10  O   UNL     1       3.338   5.413  20.234  0.00  0.00    +0.000 OA
ATOM     11  H   UNL     1       2.708   5.297  20.968  0.00  0.00    +0.000 HD
ENDBRANCH   9  10
ENDBRANCH   7   9
ENDBRANCH   5   7
BRANCH   5  12
ATOM     12  O   UNL     1       3.464   6.312  17.503  0.00  0.00    +0.000 OA
ATOM     13  H   UNL     1       2.527   6.283  17.239  0.00  0.00    +0.000 HD
ENDBRANCH   5  12
ENDBRANCH   1   5
BRANCH   3  14
ATOM     14  C   UNL     1       7.400   6.175  18.674  0.00  0.00    +0.000 C 
BRANCH  14  15
ATOM     15  C   UNL     1       7.894   7.320  17.771  0.00  0.00    +0.000 C 
ATOM     16  O   UNL     1       7.897   7.246  16.546  0.00  0.00    +0.000 OA
ATOM     17  N   UNL     1       8.222   8.462  18.484  0.00  0.00    +0.000 N 
ATOM     18  H   UNL     1       7.782   8.528  19.389  0.00  0.00    +0.000 HD
BRANCH  17  19
ATOM     19  C   UNL     1       8.415   9.738  17.836  0.00  0.00    +0.000 C 
BRANCH  19  20
ATOM     20  C   UNL     1       9.398  10.560  18.623  0.00  0.00    +0.000 A 
ATOM     21  C   UNL     1      10.519  11.093  17.972  0.00  0.00    +0.000 A 
ATOM     22  C   UNL     1      11.475  11.806  18.692  0.00  0.00    +0.000 A 
ATOM     23  C   UNL     1      11.325  11.988  20.065  0.00  0.00    +0.000 A 
ATOM     24  C   UNL     1      10.217  11.457  20.721  0.00  0.00    +0.000 A 
ATOM     25  C   UNL     1       9.257  10.742  20.003  0.00  0.00    +0.000 A 
ENDBRANCH  19  20
ENDBRANCH  17  19
ENDBRANCH  14  15
ENDBRANCH   3  14
TORSDOF 9
ENDMDL
MODEL 6
REMARK VINA RESULT:      -6.6      1.156      2.038
REMARK  Name = 
REMARK  11 active torsions:
REMARK  status: ('A' for Active; 'I' for Inactive)
REMARK    1  A    between atoms: C_1  and  C_2
REMARK    2  A    between atoms: C_2  and  C_3
REMARK    3  A    between atoms: C_2  and  C_4
REMARK    4  A    between atoms: C_2  and  C_6
REMARK    5  A    between atoms: C_4  and  O_5
REMARK    6  A    between atoms: C_6  and  O_7
REMARK    7  A    between atoms: C_6  and  C_8
REMARK    8  A    between atoms: N_10  and  C_11
REMARK    9  A    between atoms: C_11  and  C_12
REMARK   10  A    between atoms: N_14  and  C_15
REMARK   11  A    between atoms: C_15  and  C_16
REMARK                            x       y       z     vdW  Elec       q    Type
REMARK                         _______ _______ _______ _____ _____    ______ ____
ROOT
ATOM      1  C   UNL     1       5.263   5.032  17.899  0.00  0.00    +0.000 C 
ATOM      2  O   UNL     1       5.877   4.319  17.108  0.00  0.00    +0.000 OA
ATOM      3  N   UNL     1       5.918   5.843  18.798  0.00  0.00    +0.000 N 
ATOM      4  H   UNL     1       5.362   6.551  19.265  0.00  0.00    +0.000 HD
ENDROOT
BRANCH   1   5
ATOM      5  C   UNL     1       3.723   5.110  17.929  0.00  0.00    +0.000 C 
BRANCH   5   7
ATOM      6  C   UNL     1       1.805   3.481  18.192  0.00  0.00    +0.000 C 
ATOM      7  C   UNL     1       3.054   4.068  18.887  0.00  0.00    +0.000 C 
ATOM      8  C   UNL     1       2.575   4.731  20.197  0.00  0.00    +0.000 C 
BRANCH   7   9
ATOM      9  C   UNL     1       4.024   2.890  19.179  0.00  0.00    +0.000 C 
BRANCH   9  10
ATOM     10  O   UNL     1       4.017   1.922  18.136  0.00  0.00    +0.000 OA
ATOM     11  H   UNL     1       4.039   1.047  18.564  0.00  0.00    +0.000 HD
ENDBRANCH   9  10
ENDBRANCH   7   9
ENDBRANCH   5   7
BRANCH   5  12
ATOM     12  O   UNL     1       3.306   6.448  18.209  0.00  0.00    +0.000 OA
ATOM     13  H   UNL     1       2.408   6.406  18.582  0.00  0.00    +0.000 HD
ENDBRANCH   5  12
ENDBRANCH   1   5
BRANCH   3  14
ATOM     14  C   UNL     1       7.361   6.025  18.719  0.00  0.00    +0.000 C 
BRANCH  14  15
ATOM     15  C   UNL     1       7.779   7.162  17.768  0.00  0.00    +0.000 C 
ATOM     16  O   UNL     1       7.667   7.082  16.548  0.00  0.00    +0.000 OA
ATOM     17  N   UNL     1       8.182   8.304  18.441  0.00  0.00    +0.000 N 
ATOM     18  H   UNL     1       7.829   8.377  19.383  0.00  0.00    +0.000 HD
BRANCH  17  19
ATOM     19  C   UNL     1       8.325   9.575  17.771  0.00  0.00    +0.000 C 
BRANCH  19  20
ATOM     20  C   UNL     1       9.284  10.444  18.538  0.00  0.00    +0.000 A 
ATOM     21  C   UNL     1      10.283  11.137  17.842  0.00  0.00    +0.000 A 
ATOM     22  C   UNL     1      11.221  11.899  18.535  0.00  0.00    +0.000 A 
ATOM     23  C   UNL     1      11.173  11.973  19.926  0.00  0.00    +0.000 A 
ATOM     24  C   UNL     1      10.187  11.282  20.626  0.00  0.00    +0.000 A 
ATOM     25  C   UNL     1       9.246  10.517  19.934  0.00  0.00    +0.000 A 
ENDBRANCH  19  20
ENDBRANCH  17  19
ENDBRANCH  14  15
ENDBRANCH   3  14
TORSDOF 9
ENDMDL
MODEL 7
REMARK VINA RESULT:      -6.6      4.552      6.988
REMARK  Name = 
REMARK  11 active torsions:
REMARK  status: ('A' for Active; 'I' for Inactive)
REMARK    1  A    between atoms: C_1  and  C_2
REMARK    2  A    between atoms: C_2  and  C_3
REMARK    3  A    between atoms: C_2  and  C_4
REMARK    4  A    between atoms: C_2  and  C_6
REMARK    5  A    between atoms: C_4  and  O_5
REMARK    6  A    between atoms: C_6  and  O_7
REMARK    7  A    between atoms: C_6  and  C_8
REMARK    8  A    between atoms: N_10  and  C_11
REMARK    9  A    between atoms: C_11  and  C_12
REMARK   10  A    between atoms: N_14  and  C_15
REMARK   11  A    between atoms: C_15  and  C_16
REMARK                            x       y       z     vdW  Elec       q    Type
REMARK                         _______ _______ _______ _____ _____    ______ ____
ROOT
ATOM      1  C   UNL     1       4.351   4.901  18.569  0.00  0.00    +0.000 C 
ATOM      2  O   UNL     1       4.115   6.061  18.902  0.00  0.00    +0.000 OA
ATOM      3  N   UNL     1       5.042   4.609  17.415  0.00  0.00    +0.000 N 
ATOM      4  H   UNL     1       5.382   3.659  17.314  0.00  0.00    +0.000 HD
ENDROOT
BRANCH   1   5
ATOM      5  C   UNL     1       3.933   3.687  19.422  0.00  0.00    +0.000 C 
BRANCH   5   7
ATOM      6  C   UNL     1       2.861   1.921  17.961  0.00  0.00    +0.000 C 
ATOM      7  C   UNL     1       2.576   3.042  18.985  0.00  0.00    +0.000 C 
ATOM      8  C   UNL     1       1.660   4.072  18.287  0.00  0.00    +0.000 C 
BRANCH   7   9
ATOM      9  C   UNL     1       1.860   2.393  20.203  0.00  0.00    +0.000 C 
BRANCH   9  10
ATOM     10  O   UNL     1       2.500   2.716  21.432  0.00  0.00    +0.000 OA
ATOM     11  H   UNL     1       2.009   3.464  21.817  0.00  0.00    +0.000 HD
ENDBRANCH   9  10
ENDBRANCH   7   9
ENDBRANCH   5   7
BRANCH   5  12
ATOM     12  O   UNL     1       4.995   2.732  19.468  0.00  0.00    +0.000 OA
ATOM     13  H   UNL     1       5.570   2.890  18.698  0.00  0.00    +0.000 HD
ENDBRANCH   5  12
ENDBRANCH   1   5
BRANCH   3  14
ATOM     14  C   UNL     1       5.680   5.667  16.643  0.00  0.00    +0.000 C 
BRANCH  14  15
ATOM     15  C   UNL     1       6.862   5.170  15.790  0.00  0.00    +0.000 C 
ATOM     16  O   UNL     1       7.823   4.575  16.269  0.00  0.00    +0.000 OA
ATOM     17  N   UNL     1       6.665   5.368  14.433  0.00  0.00    +0.000 N 
ATOM     18  H   UNL     1       5.698   5.463  14.163  0.00  0.00    +0.000 HD
BRANCH  17  19
ATOM     19  C   UNL     1       7.486   4.718  13.439  0.00  0.00    +0.000 C 
BRANCH  19  20
ATOM     20  C   UNL     1       6.630   3.826  12.583  0.00  0.00    +0.000 A 
ATOM     21  C   UNL     1       5.244   4.027  12.559  0.00  0.00    +0.000 A 
ATOM     22  C   UNL     1       4.424   3.176  11.822  0.00  0.00    +0.000 A 
ATOM     23  C   UNL     1       4.978   2.115  11.109  0.00  0.00    +0.000 A 
ATOM     24  C   UNL     1       6.355   1.904  11.131  0.00  0.00    +0.000 A 
ATOM     25  C   UNL     1       7.179   2.756  11.869  0.00  0.00    +0.000 A 
ENDBRANCH  19  20
ENDBRANCH  17  19
ENDBRANCH  14  15
ENDBRANCH   3  14
TORSDOF 9
ENDMDL
MODEL 8
REMARK VINA RESULT:      -6.6      4.365      6.928
REMARK  Name = 
REMARK  11 active torsions:
REMARK  status: ('A' for Active; 'I' for Inactive)
REMARK    1  A    between atoms: C_1  and  C_2
REMARK    2  A    between atoms: C_2  and  C_3
REMARK    3  A    between atoms: C_2  and  C_4
REMARK    4  A    between atoms: C_2  and  C_6
REMARK    5  A    between atoms: C_4  and  O_5
REMARK    6  A    between atoms: C_6  and  O_7
REMARK    7  A    between atoms: C_6  and  C_8
REMARK    8  A    between atoms: N_10  and  C_11
REMARK    9  A    between atoms: C_11  and  C_12
REMARK   10  A    between atoms: N_14  and  C_15
REMARK   11  A    between atoms: C_15  and  C_16
REMARK                            x       y       z     vdW  Elec       q    Type
REMARK                         _______ _______ _______ _____ _____    ______ ____
ROOT
ATOM      1  C   UNL     1       4.418   4.303  17.927  0.00  0.00    +0.000 C 
ATOM      2  O   UNL     1       4.367   3.477  17.018  0.00  0.00    +0.000 OA
ATOM      3  N   UNL     1       5.619   4.785  18.397  0.00  0.00    +0.000 N 
ATOM      4  H   UNL     1       5.582   5.607  18.990  0.00  0.00    +0.000 HD
ENDROOT
BRANCH   1   5
ATOM      5  C   UNL     1       3.157   4.895  18.589  0.00  0.00    +0.000 C 
BRANCH   5   7
ATOM      6  C   UNL     1       1.514   4.574  20.486  0.00  0.00    +0.000 C 
ATOM      7  C   UNL     1       2.300   3.846  19.372  0.00  0.00    +0.000 C 
ATOM      8  C   UNL     1       3.191   2.790  20.063  0.00  0.00    +0.000 C 
BRANCH   7   9
ATOM      9  C   UNL     1       1.263   3.173  18.431  0.00  0.00    +0.000 C 
BRANCH   9  10
ATOM     10  O   UNL     1       1.796   2.022  17.786  0.00  0.00    +0.000 OA
ATOM     11  H   UNL     1       2.610   2.305  17.332  0.00  0.00    +0.000 HD
ENDBRANCH   9  10
ENDBRANCH   7   9
ENDBRANCH   5   7
BRANCH   5  12
ATOM     12  O   UNL     1       3.510   6.018  19.398  0.00  0.00    +0.000 OA
ATOM     13  H   UNL     1       4.452   6.213  19.242  0.00  0.00    +0.000 HD
ENDBRANCH   5  12
ENDBRANCH   1   5
BRANCH   3  14
ATOM     14  C   UNL     1       6.865   4.473  17.709  0.00  0.00    +0.000 C 
BRANCH  14  15
ATOM     15  C   UNL     1       7.044   5.251  16.393  0.00  0.00    +0.000 C 
ATOM     16  O   UNL     1       7.496   6.392  16.353  0.00  0.00    +0.000 OA
ATOM     17  N   UNL     1       6.749   4.490  15.274  0.00  0.00    +0.000 N 
ATOM     18  H   UNL     1       6.808   3.494  15.422  0.00  0.00    +0.000 HD
BRANCH  17  19
ATOM     19  C   UNL     1       7.130   4.906  13.945  0.00  0.00    +0.000 C 
BRANCH  19  20
ATOM     20  C   UNL     1       6.504   3.988  12.931  0.00  0.00    +0.000 A 
ATOM     21  C   UNL     1       5.110   3.966  12.798  0.00  0.00    +0.000 A 
ATOM     22  C   UNL     1       4.504   3.080  11.910  0.00  0.00    +0.000 A 
ATOM     23  C   UNL     1       5.281   2.208  11.151  0.00  0.00    +0.000 A 
ATOM     24  C   UNL     1       6.668   2.219  11.281  0.00  0.00    +0.000 A 
ATOM     25  C   UNL     1       7.278   3.105  12.170  0.00  0.00    +0.000 A 
ENDBRANCH  19  20
ENDBRANCH  17  19
ENDBRANCH  14  15
ENDBRANCH   3  14
TORSDOF 9
ENDMDL
MODEL 9
REMARK VINA RESULT:      -6.6      4.581      7.019
REMARK  Name = 
REMARK  11 active torsions:
REMARK  status: ('A' for Active; 'I' for Inactive)
REMARK    1  A    between atoms: C_1  and  C_2
REMARK    2  A    between atoms: C_2  and  C_3
REMARK    3  A    between atoms: C_2  and  C_4
REMARK    4  A    between atoms: C_2  and  C_6
REMARK    5  A    between atoms: C_4  and  O_5
REMARK    6  A    between atoms: C_6  and  O_7
REMARK    7  A    between atoms: C_6  and  C_8
REMARK    8  A    between atoms: N_10  and  C_11
REMARK    9  A    between atoms: C_11  and  C_12
REMARK   10  A    between atoms: N_14  and  C_15
REMARK   11  A    between atoms: C_15  and  C_16
REMARK                            x       y       z     vdW  Elec       q    Type
REMARK                         _______ _______ _______ _____ _____    ______ ____
ROOT
ATOM      1  C   UNL     1       4.877   4.524  18.318  0.00  0.00    +0.000 C 
ATOM      2  O   UNL     1       5.636   5.080  19.109  0.00  0.00    +0.000 OA
ATOM      3  N   UNL     1       4.789   4.921  17.003  0.00  0.00    +0.000 N 
ATOM      4  H   UNL     1       4.311   4.293  16.366  0.00  0.00    +0.000 HD
ENDROOT
BRANCH   1   5
ATOM      5  C   UNL     1       3.994   3.323  18.712  0.00  0.00    +0.000 C 
BRANCH   5   7
ATOM      6  C   UNL     1       1.782   4.071  17.738  0.00  0.00    +0.000 C 
ATOM      7  C   UNL     1       2.514   3.707  19.048  0.00  0.00    +0.000 C 
ATOM      8  C   UNL     1       2.447   4.949  19.965  0.00  0.00    +0.000 C 
BRANCH   7   9
ATOM      9  C   UNL     1       1.766   2.502  19.684  0.00  0.00    +0.000 C 
BRANCH   9  10
ATOM     10  O   UNL     1       1.592   1.434  18.759  0.00  0.00    +0.000 OA
ATOM     11  H   UNL     1       0.640   1.228  18.742  0.00  0.00    +0.000 HD
ENDBRANCH   9  10
ENDBRANCH   7   9
ENDBRANCH   5   7
BRANCH   5  12
ATOM     12  O   UNL     1       4.074   2.307  17.711  0.00  0.00    +0.000 OA
ATOM     13  H   UNL     1       4.958   1.902  17.769  0.00  0.00    +0.000 HD
ENDBRANCH   5  12
ENDBRANCH   1   5
BRANCH   3  14
ATOM     14  C   UNL     1       5.728   5.892  16.456  0.00  0.00    +0.000 C 
BRANCH  14  15
ATOM     15  C   UNL     1       6.881   5.245  15.667  0.00  0.00    +0.000 C 
ATOM     16  O   UNL     1       7.708   4.502  16.188  0.00  0.00    +0.000 OA
ATOM     17  N   UNL     1       6.812   5.503  14.307  0.00  0.00    +0.000 N 
ATOM     18  H   UNL     1       5.891   5.747  13.977  0.00  0.00    +0.000 HD
BRANCH  17  19
ATOM     19  C   UNL     1       7.598   4.762  13.349  0.00  0.00    +0.000 C 
BRANCH  19  20
ATOM     20  C   UNL     1       6.699   3.853  12.555  0.00  0.00    +0.000 A 
ATOM     21  C   UNL     1       5.314   4.057  12.596  0.00  0.00    +0.000 A 
ATOM     22  C   UNL     1       4.457   3.192  11.920  0.00  0.00    +0.000 A 
ATOM     23  C   UNL     1       4.974   2.115  11.203  0.00  0.00    +0.000 A 
ATOM     24  C   UNL     1       6.350   1.901  11.162  0.00  0.00    +0.000 A 
ATOM     25  C   UNL     1       7.210   2.767  11.838  0.00  0.00    +0.000 A 
ENDBRANCH  19  20
ENDBRANCH  17  19
ENDBRANCH  14  15
ENDBRANCH   3  14
TORSDOF 9
ENDMDL
