MODEL 1
REMARK VINA RESULT:      -6.9      0.000      0.000
REMARK  Name = 
REMARK  13 active torsions:
REMARK  status: ('A' for Active; 'I' for Inactive)
REMARK    1  A    between atoms: C_1  and  O_2
REMARK    2  A    between atoms: O_2  and  C_3
REMARK    3  A    between atoms: C_5  and  C_6
REMARK    4  A    between atoms: C_6  and  N_7
REMARK    5  A    between atoms: N_7  and  C_8
REMARK    6  A    between atoms: C_8  and  C_9
REMARK    7  A    between atoms: C_9  and  C_10
REMARK    8  A    between atoms: C_10  and  N_11
REMARK    9  A    between atoms: N_11  and  C_12
REMARK   10  A    between atoms: N_11  and  C_13
REMARK   11  A    between atoms: C_16  and  O_17
REMARK   12  A    between atoms: O_17  and  C_18
REMARK   13  A    between atoms: C_18  and  C_19
REMARK                            x       y       z     vdW  Elec       q    Type
REMARK                         _______ _______ _______ _____ _____    ______ ____
ROOT
ATOM      1  C   UNL     1       2.500   5.182  20.081  0.00  0.00    +0.000 A 
ATOM      2  C   UNL     1       2.920   4.204  19.166  0.00  0.00    +0.000 A 
ATOM      3  C   UNL     1       3.338   4.548  17.873  0.00  0.00    +0.000 A 
ATOM      4  C   UNL     1       3.348   5.891  17.496  0.00  0.00    +0.000 A 
ATOM      5  C   UNL     1       2.903   6.873  18.375  0.00  0.00    +0.000 A 
ATOM      6  C   UNL     1       2.447   6.541  19.672  0.00  0.00    +0.000 A 
ENDROOT
BRANCH   1   8
ATOM      7  C   UNL     1       2.006   3.437  21.766  0.00  0.00    +0.000 C 
ATOM      8  O   UNL     1       2.154   4.737  21.320  0.00  0.00    +0.000 OA
ENDBRANCH   1   8
BRANCH   3   9
ATOM      9  C   UNL     1       3.775   3.485  16.898  0.00  0.00    +0.000 C 
BRANCH   9  10
ATOM     10  N   UNL     1       5.239   3.424  16.845  0.00  0.00    +0.000 NA
ATOM     11  H   UNL     1       5.528   2.419  16.931  0.00  0.00    +0.000 HD
BRANCH  10  12
ATOM     12  C   UNL     1       5.735   3.943  15.563  0.00  0.00    +0.000 C 
BRANCH  12  13
ATOM     13  C   UNL     1       7.114   4.579  15.757  0.00  0.00    +0.000 C 
BRANCH  13  14
ATOM     14  C   UNL     1       7.503   4.652  17.245  0.00  0.00    +0.000 C 
BRANCH  14  15
ATOM     15  N   UNL     1       6.806   5.746  17.961  0.00  0.00    +0.000 NA
ATOM     16  C   UNL     1       6.855   5.578  19.425  0.00  0.00    +0.000 C 
ATOM     17  C   UNL     1       7.416   7.038  17.602  0.00  0.00    +0.000 C 
ENDBRANCH  14  15
ENDBRANCH  13  14
ENDBRANCH  12  13
ENDBRANCH  10  12
ENDBRANCH   9  10
ENDBRANCH   3   9
BRANCH   6  18
ATOM     18  O   UNL     1       1.909   7.499  20.483  0.00  0.00    +0.000 OA
BRANCH  18  19
ATOM     19  C   UNL     1       1.560   8.772  20.050  0.00  0.00    +0.000 C 
BRANCH  19  20
ATOM     20  C   UNL     1       0.673   9.509  21.023  0.00  0.00    +0.000 A 
ATOM     21  C   UNL     1       0.543   9.105  22.366  0.00  0.00    +0.000 A 
ATOM     22  C   UNL     1      -0.326   9.781  23.226  0.00  0.00    +0.000 A 
ATOM     23  C   UNL     1      -1.080  10.860  22.759  0.00  0.00    +0.000 A 
ATOM     24  F   UNL     1      -1.937  11.500  23.591  0.00  0.00    +0.000 F 
ATOM     25  C   UNL     1      -0.957  11.275  21.433  0.00  0.00    +0.000 A 
ATOM     26  C   UNL     1      -0.083  10.614  20.565  0.00  0.00    +0.000 A 
ATOM     27 CL   UNL     1       0.014  11.174  18.897  0.00  0.00    +0.000 Cl
ENDBRANCH  19  20
ENDBRANCH  18  19
ENDBRANCH   6  18
TORSDOF 10
ENDMDL
MODEL 2
REMARK VINA RESULT:      -6.6      4.721      7.232
REMARK  Name = 
REMARK  13 active torsions:
REMARK  status: ('A' for Active; 'I' for Inactive)
REMARK    1  A    between atoms: C_1  and  O_2
REMARK    2  A    between atoms: O_2  and  C_3
REMARK    3  A    between atoms: C_5  and  C_6
REMARK    4  A    between atoms: C_6  and  N_7
REMARK    5  A    between atoms: N_7  and  C_8
REMARK    6  A    between atoms: C_8  and  C_9
REMARK    7  A    between atoms: C_9  and  C_10
REMARK    8  A    between atoms: C_10  and  N_11
REMARK    9  A    between atoms: N_11  and  C_12
REMARK   10  A    between atoms: N_11  and  C_13
REMARK   11  A    between atoms: C_16  and  O_17
REMARK   12  A    between atoms: O_17  and  C_18
REMARK   13  A    between atoms: C_18  and  C_19
REMARK                            x       y       z     vdW  Elec       q    Type
REMARK                         _______ _______ _______ _____ _____    ______ ____
ROOT
ATOM      1  C   UNL     1       6.206   5.843  16.691  0.00  0.00    +0.000 A 
ATOM      2  C   UNL     1       7.148   6.813  17.071  0.00  0.00    +0.000 A 
ATOM      3  C   UNL     1       7.667   6.852  18.372  0.00  0.00    +0.000 A 
ATOM      4  C   UNL     1       7.249   5.899  19.301  0.00  0.00    +0.000 A 
ATOM      5  C   UNL     1       6.291   4.952  18.956  0.00  0.00    +0.000 A 
ATOM      6  C   UNL     1       5.731   4.917  17.658  0.00  0.00    +0.000 A 
ENDROOT
BRANCH   1   8
ATOM      7  C   UNL     1       5.929   4.905  14.417  0.00  0.00    +0.000 C 
ATOM      8  O   UNL     1       5.801   5.876  15.392  0.00  0.00    +0.000 OA
ENDBRANCH   1   8
BRANCH   3   9
ATOM      9  C   UNL     1       8.669   7.906  18.768  0.00  0.00    +0.000 C 
BRANCH   9  10
ATOM     10  N   UNL     1       8.331   9.184  18.132  0.00  0.00    +0.000 NA
ATOM     11  H   UNL     1       7.289   9.298  18.160  0.00  0.00    +0.000 HD
BRANCH  10  12
ATOM     12  C   UNL     1       8.942  10.305  18.861  0.00  0.00    +0.000 C 
BRANCH  12  13
ATOM     13  C   UNL     1       9.842  11.110  17.920  0.00  0.00    +0.000 C 
BRANCH  13  14
ATOM     14  C   UNL     1       9.396  12.581  17.827  0.00  0.00    +0.000 C 
BRANCH  14  15
ATOM     15  N   UNL     1      10.538  13.524  17.871  0.00  0.00    +0.000 NA
ATOM     16  C   UNL     1      11.359  13.468  16.647  0.00  0.00    +0.000 C 
ATOM     17  C   UNL     1      10.037  14.898  18.056  0.00  0.00    +0.000 C 
ENDBRANCH  14  15
ENDBRANCH  13  14
ENDBRANCH  12  13
ENDBRANCH  10  12
ENDBRANCH   9  10
ENDBRANCH   3   9
BRANCH   6  18
ATOM     18  O   UNL     1       4.713   4.055  17.365  0.00  0.00    +0.000 OA
BRANCH  18  19
ATOM     19  C   UNL     1       3.371   4.411  17.385  0.00  0.00    +0.000 C 
BRANCH  19  20
ATOM     20  C   UNL     1       2.656   3.965  18.638  0.00  0.00    +0.000 A 
ATOM     21  C   UNL     1       1.968   4.873  19.465  0.00  0.00    +0.000 A 
ATOM     22  C   UNL     1       1.359   4.435  20.644  0.00  0.00    +0.000 A 
ATOM     23  C   UNL     1       1.437   3.091  21.017  0.00  0.00    +0.000 A 
ATOM     24  F   UNL     1       0.862   2.673  22.171  0.00  0.00    +0.000 F 
ATOM     25  C   UNL     1       2.110   2.179  20.204  0.00  0.00    +0.000 A 
ATOM     26  C   UNL     1       2.713   2.603  19.016  0.00  0.00    +0.000 A 
ATOM     27 CL   UNL     1       3.565   1.407  18.043  0.00  0.00    +0.000 Cl
ENDBRANCH  19  20
ENDBRANCH  18  19
ENDBRANCH   6  18
TORSDOF 10
ENDMDL
MODEL 3
REMARK VINA RESULT:      -6.6      3.758      5.981
REMARK  Name = 
REMARK  13 active torsions:
REMARK  status: ('A' for Active; 'I' for Inactive)
REMARK    1  A    between atoms: C_1  and  O_2
REMARK    2  A    between atoms: O_2  and  C_3
REMARK    3  A    between atoms: C_5  and  C_6
REMARK    4  A    between atoms: C_6  and  N_7
REMARK    5  A    between atoms: N_7  and  C_8
REMARK    6  A    between atoms: C_8  and  C_9
REMARK    7  A    between atoms: C_9  and  C_10
REMARK    8  A    between atoms: C_10  and  N_11
REMARK    9  A    between atoms: N_11  and  C_12
REMARK   10  A    between atoms: N_11  and  C_13
REMARK   11  A    between atoms: C_16  and  O_17
REMARK   12  A    between atoms: O_17  and  C_18
REMARK   13  A    between atoms: C_18  and  C_19
REMARK                            x       y       z     vdW  Elec       q    Type
REMARK                         _______ _______ _______ _____ _____    ______ ____
ROOT
ATOM      1  C   UNL     1       5.707   4.845  16.629  0.00  0.00    +0.000 A 
ATOM      2  C   UNL     1       6.699   5.813  16.856  0.00  0.00    +0.000 A 
ATOM      3  C   UNL     1       7.099   6.153  18.156  0.00  0.00    +0.000 A 
ATOM      4  C   UNL     1       6.508   5.506  19.241  0.00  0.00    +0.000 A 
ATOM      5  C   UNL     1       5.499   4.571  19.040  0.00  0.00    +0.000 A 
ATOM      6  C   UNL     1       5.060   4.237  17.737  0.00  0.00    +0.000 A 
ENDROOT
BRANCH   1   8
ATOM      7  C   UNL     1       6.299   4.420  14.263  0.00  0.00    +0.000 C 
ATOM      8  O   UNL     1       5.429   4.566  15.326  0.00  0.00    +0.000 OA
ENDBRANCH   1   8
BRANCH   3   9
ATOM      9  C   UNL     1       8.156   7.202  18.384  0.00  0.00    +0.000 C 
BRANCH   9  10
ATOM     10  N   UNL     1       8.091   8.219  17.329  0.00  0.00    +0.000 NA
ATOM     11  H   UNL     1       7.318   7.959  16.670  0.00  0.00    +0.000 HD
BRANCH  10  12
ATOM     12  C   UNL     1       7.793   9.541  17.898  0.00  0.00    +0.000 C 
BRANCH  12  13
ATOM     13  C   UNL     1       9.096  10.309  18.141  0.00  0.00    +0.000 C 
BRANCH  13  14
ATOM     14  C   UNL     1       9.467  10.342  19.634  0.00  0.00    +0.000 C 
BRANCH  14  15
ATOM     15  N   UNL     1       9.835  11.700  20.099  0.00  0.00    +0.000 NA
ATOM     16  C   UNL     1       9.503  12.740  19.108  0.00  0.00    +0.000 C 
ATOM     17  C   UNL     1       9.138  11.996  21.363  0.00  0.00    +0.000 C 
ENDBRANCH  14  15
ENDBRANCH  13  14
ENDBRANCH  12  13
ENDBRANCH  10  12
ENDBRANCH   9  10
ENDBRANCH   3   9
BRANCH   6  18
ATOM     18  O   UNL     1       3.995   3.402  17.558  0.00  0.00    +0.000 OA
BRANCH  18  19
ATOM     19  C   UNL     1       2.680   3.837  17.459  0.00  0.00    +0.000 C 
BRANCH  19  20
ATOM     20  C   UNL     1       2.358   4.976  18.395  0.00  0.00    +0.000 A 
ATOM     21  C   UNL     1       2.526   6.322  18.016  0.00  0.00    +0.000 A 
ATOM     22  C   UNL     1       2.265   7.350  18.925  0.00  0.00    +0.000 A 
ATOM     23  C   UNL     1       1.844   7.051  20.223  0.00  0.00    +0.000 A 
ATOM     24  F   UNL     1       1.612   8.051  21.109  0.00  0.00    +0.000 F 
ATOM     25  C   UNL     1       1.668   5.723  20.611  0.00  0.00    +0.000 A 
ATOM     26  C   UNL     1       1.914   4.685  19.707  0.00  0.00    +0.000 A 
ATOM     27 CL   UNL     1       1.692   3.028  20.263  0.00  0.00    +0.000 Cl
ENDBRANCH  19  20
ENDBRANCH  18  19
ENDBRANCH   6  18
TORSDOF 10
ENDMDL
MODEL 4
REMARK VINA RESULT:      -6.6      4.623      7.204
REMARK  Name = 
REMARK  13 active torsions:
REMARK  status: ('A' for Active; 'I' for Inactive)
REMARK    1  A    between atoms: C_1  and  O_2
REMARK    2  A    between atoms: O_2  and  C_3
REMARK    3  A    between atoms: C_5  and  C_6
REMARK    4  A    between atoms: C_6  and  N_7
REMARK    5  A    between atoms: N_7  and  C_8
REMARK    6  A    between atoms: C_8  and  C_9
REMARK    7  A    between atoms: C_9  and  C_10
REMARK    8  A    between atoms: C_10  and  N_11
REMARK    9  A    between atoms: N_11  and  C_12
REMARK   10  A    between atoms: N_11  and  C_13
REMARK   11  A    between atoms: C_16  and  O_17
REMARK   12  A    between atoms: O_17  and  C_18
REMARK   13  A    between atoms: C_18  and  C_19
REMARK                            x       y       z     vdW  Elec       q    Type
REMARK                         _______ _______ _______ _____ _____    ______ ____
ROOT
ATOM      1  C   UNL     1       6.579   5.740  16.438  0.00  0.00    +0.000 A 
ATOM      2  C   UNL     1       7.371   6.803  16.901  0.00  0.00    +0.000 A 
ATOM      3  C   UNL     1       7.718   6.915  18.255  0.00  0.00    +0.000 A 
ATOM      4  C   UNL     1       7.277   5.944  19.153  0.00  0.00    +0.000 A 
ATOM      5  C   UNL     1       6.462   4.903  18.722  0.00  0.00    +0.000 A 
ATOM      6  C   UNL     1       6.075   4.791  17.366  0.00  0.00    +0.000 A 
ENDROOT
BRANCH   1   8
ATOM      7  C   UNL     1       6.753   4.782  14.162  0.00  0.00    +0.000 C 
ATOM      8  O   UNL     1       6.339   5.711  15.098  0.00  0.00    +0.000 OA
ENDBRANCH   1   8
BRANCH   3   9
ATOM      9  C   UNL     1       8.559   8.068  18.739  0.00  0.00    +0.000 C 
BRANCH   9  10
ATOM     10  N   UNL     1       8.230   9.282  17.984  0.00  0.00    +0.000 NA
ATOM     11  H   UNL     1       7.250   9.563  18.227  0.00  0.00    +0.000 HD
BRANCH  10  12
ATOM     12  C   UNL     1       9.134  10.382  18.350  0.00  0.00    +0.000 C 
BRANCH  12  13
ATOM     13  C   UNL     1       8.588  11.707  17.809  0.00  0.00    +0.000 C 
BRANCH  13  14
ATOM     14  C   UNL     1       9.244  12.916  18.500  0.00  0.00    +0.000 C 
BRANCH  14  15
ATOM     15  N   UNL     1       8.248  13.869  19.043  0.00  0.00    +0.000 NA
ATOM     16  C   UNL     1       8.870  14.920  19.870  0.00  0.00    +0.000 C 
ATOM     17  C   UNL     1       7.512  14.500  17.933  0.00  0.00    +0.000 C 
ENDBRANCH  14  15
ENDBRANCH  13  14
ENDBRANCH  12  13
ENDBRANCH  10  12
ENDBRANCH   9  10
ENDBRANCH   3   9
BRANCH   6  18
ATOM     18  O   UNL     1       5.186   3.830  16.976  0.00  0.00    +0.000 OA
BRANCH  18  19
ATOM     19  C   UNL     1       3.821   4.047  16.847  0.00  0.00    +0.000 C 
BRANCH  19  20
ATOM     20  C   UNL     1       3.038   3.663  18.080  0.00  0.00    +0.000 A 
ATOM     21  C   UNL     1       2.604   2.342  18.304  0.00  0.00    +0.000 A 
ATOM     22  C   UNL     1       1.839   2.032  19.431  0.00  0.00    +0.000 A 
ATOM     23  C   UNL     1       1.491   3.032  20.342  0.00  0.00    +0.000 A 
ATOM     24  F   UNL     1       0.731   2.731  21.423  0.00  0.00    +0.000 F 
ATOM     25  C   UNL     1       1.919   4.343  20.136  0.00  0.00    +0.000 A 
ATOM     26  C   UNL     1       2.695   4.665  19.018  0.00  0.00    +0.000 A 
ATOM     27 CL   UNL     1       3.189   6.343  18.803  0.00  0.00    +0.000 Cl
ENDBRANCH  19  20
ENDBRANCH  18  19
ENDBRANCH   6  18
TORSDOF 10
ENDMDL
MODEL 5
REMARK VINA RESULT:      -6.5      4.141      7.806
REMARK  Name = 
REMARK  13 active torsions:
REMARK  status: ('A' for Active; 'I' for Inactive)
REMARK    1  A    between atoms: C_1  and  O_2
REMARK    2  A    between atoms: O_2  and  C_3
REMARK    3  A    between atoms: C_5  and  C_6
REMARK    4  A    between atoms: C_6  and  N_7
REMARK    5  A    between atoms: N_7  and  C_8
REMARK    6  A    between atoms: C_8  and  C_9
REMARK    7  A    between atoms: C_9  and  C_10
REMARK    8  A    between atoms: C_10  and  N_11
REMARK    9  A    between atoms: N_11  and  C_12
REMARK   10  A    between atoms: N_11  and  C_13
REMARK   11  A    between atoms: C_16  and  O_17
REMARK   12  A    between atoms: O_17  and  C_18
REMARK   13  A    between atoms: C_18  and  C_19
REMARK                            x       y       z     vdW  Elec       q    Type
REMARK                         _______ _______ _______ _____ _____    ______ ____
ROOT
ATOM      1  C   UNL     1       2.199   4.955  19.344  0.00  0.00    +0.000 A 
ATOM      2  C   UNL     1       1.845   5.935  20.285  0.00  0.00    +0.000 A 
ATOM      3  C   UNL     1       1.968   7.301  19.996  0.00  0.00    +0.000 A 
ATOM      4  C   UNL     1       2.440   7.690  18.742  0.00  0.00    +0.000 A 
ATOM      5  C   UNL     1       2.830   6.736  17.808  0.00  0.00    +0.000 A 
ATOM      6  C   UNL     1       2.743   5.354  18.094  0.00  0.00    +0.000 A 
ENDROOT
BRANCH   1   8
ATOM      7  C   UNL     1       0.948   2.820  19.411  0.00  0.00    +0.000 C 
ATOM      8  O   UNL     1       2.000   3.662  19.720  0.00  0.00    +0.000 OA
ENDBRANCH   1   8
BRANCH   3   9
ATOM      9  C   UNL     1       1.594   8.340  21.020  0.00  0.00    +0.000 C 
BRANCH   9  10
ATOM     10  N   UNL     1       0.268   8.047  21.573  0.00  0.00    +0.000 NA
ATOM     11  H   UNL     1       0.388   7.389  22.381  0.00  0.00    +0.000 HD
BRANCH  10  12
ATOM     12  C   UNL     1      -0.374   9.274  22.064  0.00  0.00    +0.000 C 
BRANCH  12  13
ATOM     13  C   UNL     1      -0.198  10.399  21.040  0.00  0.00    +0.000 C 
BRANCH  13  14
ATOM     14  C   UNL     1      -0.205  11.785  21.711  0.00  0.00    +0.000 C 
BRANCH  14  15
ATOM     15  N   UNL     1       0.991  12.589  21.364  0.00  0.00    +0.000 NA
ATOM     16  C   UNL     1       1.424  12.378  19.971  0.00  0.00    +0.000 C 
ATOM     17  C   UNL     1       0.700  14.019  21.570  0.00  0.00    +0.000 C 
ENDBRANCH  14  15
ENDBRANCH  13  14
ENDBRANCH  12  13
ENDBRANCH  10  12
ENDBRANCH   9  10
ENDBRANCH   3   9
BRANCH   6  18
ATOM     18  O   UNL     1       3.232   4.432  17.214  0.00  0.00    +0.000 OA
BRANCH  18  19
ATOM     19  C   UNL     1       4.438   3.766  17.383  0.00  0.00    +0.000 C 
BRANCH  19  20
ATOM     20  C   UNL     1       5.578   4.685  17.754  0.00  0.00    +0.000 A 
ATOM     21  C   UNL     1       6.067   4.770  19.071  0.00  0.00    +0.000 A 
ATOM     22  C   UNL     1       7.090   5.668  19.388  0.00  0.00    +0.000 A 
ATOM     23  C   UNL     1       7.630   6.495  18.401  0.00  0.00    +0.000 A 
ATOM     24  F   UNL     1       8.608   7.379  18.717  0.00  0.00    +0.000 F 
ATOM     25  C   UNL     1       7.159   6.417  17.091  0.00  0.00    +0.000 A 
ATOM     26  C   UNL     1       6.145   5.515  16.758  0.00  0.00    +0.000 A 
ATOM     27 CL   UNL     1       5.579   5.478  15.089  0.00  0.00    +0.000 Cl
ENDBRANCH  19  20
ENDBRANCH  18  19
ENDBRANCH   6  18
TORSDOF 10
ENDMDL
MODEL 6
REMARK VINA RESULT:      -6.5      4.238      7.884
REMARK  Name = 
REMARK  13 active torsions:
REMARK  status: ('A' for Active; 'I' for Inactive)
REMARK    1  A    between atoms: C_1  and  O_2
REMARK    2  A    between atoms: O_2  and  C_3
REMARK    3  A    between atoms: C_5  and  C_6
REMARK    4  A    between atoms: C_6  and  N_7
REMARK    5  A    between atoms: N_7  and  C_8
REMARK    6  A    between atoms: C_8  and  C_9
REMARK    7  A    between atoms: C_9  and  C_10
REMARK    8  A    between atoms: C_10  and  N_11
REMARK    9  A    between atoms: N_11  and  C_12
REMARK   10  A    between atoms: N_11  and  C_13
REMARK   11  A    between atoms: C_16  and  O_17
REMARK   12  A    between atoms: O_17  and  C_18
REMARK   13  A    between atoms: C_18  and  C_19
REMARK                            x       y       z     vdW  Elec       q    Type
REMARK                         _______ _______ _______ _____ _____    ______ ____
ROOT
ATOM      1  C   UNL     1       2.173   5.178  19.546  0.00  0.00    +0.000 A 
ATOM      2  C   UNL     1       1.765   6.090  20.532  0.00  0.00    +0.000 A 
ATOM      3  C   UNL     1       1.766   7.471  20.291  0.00  0.00    +0.000 A 
ATOM      4  C   UNL     1       2.167   7.943  19.041  0.00  0.00    +0.000 A 
ATOM      5  C   UNL     1       2.609   7.060  18.062  0.00  0.00    +0.000 A 
ATOM      6  C   UNL     1       2.645   5.666  18.298  0.00  0.00    +0.000 A 
ENDROOT
BRANCH   1   8
ATOM      7  C   UNL     1       1.039   2.983  19.703  0.00  0.00    +0.000 C 
ATOM      8  O   UNL     1       2.092   3.860  19.877  0.00  0.00    +0.000 OA
ENDBRANCH   1   8
BRANCH   3   9
ATOM      9  C   UNL     1       1.337   8.438  21.364  0.00  0.00    +0.000 C 
BRANCH   9  10
ATOM     10  N   UNL     1       0.497   9.492  20.783  0.00  0.00    +0.000 NA
ATOM     11  H   UNL     1      -0.487   9.347  21.117  0.00  0.00    +0.000 HD
BRANCH  10  12
ATOM     12  C   UNL     1       0.948  10.819  21.225  0.00  0.00    +0.000 C 
BRANCH  12  13
ATOM     13  C   UNL     1       0.162  11.908  20.489  0.00  0.00    +0.000 C 
BRANCH  13  14
ATOM     14  C   UNL     1      -1.246  11.425  20.095  0.00  0.00    +0.000 C 
BRANCH  14  15
ATOM     15  N   UNL     1      -1.634  11.858  18.732  0.00  0.00    +0.000 NA
ATOM     16  C   UNL     1      -0.767  12.934  18.218  0.00  0.00    +0.000 C 
ATOM     17  C   UNL     1      -1.575  10.709  17.813  0.00  0.00    +0.000 C 
ENDBRANCH  14  15
ENDBRANCH  13  14
ENDBRANCH  12  13
ENDBRANCH  10  12
ENDBRANCH   9  10
ENDBRANCH   3   9
BRANCH   6  18
ATOM     18  O   UNL     1       3.184   4.820  17.371  0.00  0.00    +0.000 OA
BRANCH  18  19
ATOM     19  C   UNL     1       4.337   4.076  17.582  0.00  0.00    +0.000 C 
BRANCH  19  20
ATOM     20  C   UNL     1       5.543   4.926  17.903  0.00  0.00    +0.000 A 
ATOM     21  C   UNL     1       6.135   4.925  19.180  0.00  0.00    +0.000 A 
ATOM     22  C   UNL     1       7.220   5.761  19.457  0.00  0.00    +0.000 A 
ATOM     23  C   UNL     1       7.720   6.613  18.470  0.00  0.00    +0.000 A 
ATOM     24  F   UNL     1       8.760   7.437  18.748  0.00  0.00    +0.000 F 
ATOM     25  C   UNL     1       7.147   6.620  17.198  0.00  0.00    +0.000 A 
ATOM     26  C   UNL     1       6.069   5.779  16.905  0.00  0.00    +0.000 A 
ATOM     27 CL   UNL     1       5.376   5.849  15.286  0.00  0.00    +0.000 Cl
ENDBRANCH  19  20
ENDBRANCH  18  19
ENDBRANCH   6  18
TORSDOF 10
ENDMDL
MODEL 7
REMARK VINA RESULT:      -6.5      4.364      8.000
REMARK  Name = 
REMARK  13 active torsions:
REMARK  status: ('A' for Active; 'I' for Inactive)
REMARK    1  A    between atoms: C_1  and  O_2
REMARK    2  A    between atoms: O_2  and  C_3
REMARK    3  A    between atoms: C_5  and  C_6
REMARK    4  A    between atoms: C_6  and  N_7
REMARK    5  A    between atoms: N_7  and  C_8
REMARK    6  A    between atoms: C_8  and  C_9
REMARK    7  A    between atoms: C_9  and  C_10
REMARK    8  A    between atoms: C_10  and  N_11
REMARK    9  A    between atoms: N_11  and  C_12
REMARK   10  A    between atoms: N_11  and  C_13
REMARK   11  A    between atoms: C_16  and  O_17
REMARK   12  A    between atoms: O_17  and  C_18
REMARK   13  A    between atoms: C_18  and  C_19
REMARK                            x       y       z     vdW  Elec       q    Type
REMARK                         _______ _______ _______ _____ _____    ______ ____
ROOT
ATOM      1  C   UNL     1       2.162   5.339  20.205  0.00  0.00    +0.000 A 
ATOM      2  C   UNL     1       1.659   6.493  20.827  0.00  0.00    +0.000 A 
ATOM      3  C   UNL     1       1.630   7.725  20.159  0.00  0.00    +0.000 A 
ATOM      4  C   UNL     1       2.098   7.799  18.847  0.00  0.00    +0.000 A 
ATOM      5  C   UNL     1       2.633   6.676  18.225  0.00  0.00    +0.000 A 
ATOM      6  C   UNL     1       2.700   5.432  18.894  0.00  0.00    +0.000 A 
ENDROOT
BRANCH   1   8
ATOM      7  C   UNL     1       1.201   3.148  20.842  0.00  0.00    +0.000 C 
ATOM      8  O   UNL     1       2.103   4.191  20.934  0.00  0.00    +0.000 OA
ENDBRANCH   1   8
BRANCH   3   9
ATOM      9  C   UNL     1       1.098   8.957  20.844  0.00  0.00    +0.000 C 
BRANCH   9  10
ATOM     10  N   UNL     1       0.880  10.024  19.860  0.00  0.00    +0.000 NA
ATOM     11  H   UNL     1       1.286   9.713  18.945  0.00  0.00    +0.000 HD
BRANCH  10  12
ATOM     12  C   UNL     1      -0.556  10.272  19.673  0.00  0.00    +0.000 C 
BRANCH  12  13
ATOM     13  C   UNL     1      -0.815  10.784  18.253  0.00  0.00    +0.000 C 
BRANCH  13  14
ATOM     14  C   UNL     1      -2.201  11.443  18.131  0.00  0.00    +0.000 C 
BRANCH  14  15
ATOM     15  N   UNL     1      -3.067  10.764  17.137  0.00  0.00    +0.000 NA
ATOM     16  C   UNL     1      -3.495   9.427  17.588  0.00  0.00    +0.000 C 
ATOM     17  C   UNL     1      -4.258  11.590  16.874  0.00  0.00    +0.000 C 
ENDBRANCH  14  15
ENDBRANCH  13  14
ENDBRANCH  12  13
ENDBRANCH  10  12
ENDBRANCH   9  10
ENDBRANCH   3   9
BRANCH   6  18
ATOM     18  O   UNL     1       3.327   4.367  18.314  0.00  0.00    +0.000 OA
BRANCH  18  19
ATOM     19  C   UNL     1       4.252   4.482  17.285  0.00  0.00    +0.000 C 
BRANCH  19  20
ATOM     20  C   UNL     1       5.497   5.236  17.685  0.00  0.00    +0.000 A 
ATOM     21  C   UNL     1       6.210   4.926  18.858  0.00  0.00    +0.000 A 
ATOM     22  C   UNL     1       7.330   5.678  19.224  0.00  0.00    +0.000 A 
ATOM     23  C   UNL     1       7.746   6.751  18.433  0.00  0.00    +0.000 A 
ATOM     24  F   UNL     1       8.820   7.490  18.801  0.00  0.00    +0.000 F 
ATOM     25  C   UNL     1       7.052   7.065  17.264  0.00  0.00    +0.000 A 
ATOM     26  C   UNL     1       5.938   6.314  16.880  0.00  0.00    +0.000 A 
ATOM     27 CL   UNL     1       5.092   6.773  15.404  0.00  0.00    +0.000 Cl
ENDBRANCH  19  20
ENDBRANCH  18  19
ENDBRANCH   6  18
TORSDOF 10
ENDMDL
MODEL 8
REMARK VINA RESULT:      -6.4      3.978      7.718
REMARK  Name = 
REMARK  13 active torsions:
REMARK  status: ('A' for Active; 'I' for Inactive)
REMARK    1  A    between atoms: C_1  and  O_2
REMARK    2  A    between atoms: O_2  and  C_3
REMARK    3  A    between atoms: C_5  and  C_6
REMARK    4  A    between atoms: C_6  and  N_7
REMARK    5  A    between atoms: N_7  and  C_8
REMARK    6  A    between atoms: C_8  and  C_9
REMARK    7  A    between atoms: C_9  and  C_10
REMARK    8  A    between atoms: C_10  and  N_11
REMARK    9  A    between atoms: N_11  and  C_12
REMARK   10  A    between atoms: N_11  and  C_13
REMARK   11  A    between atoms: C_16  and  O_17
REMARK   12  A    between atoms: O_17  and  C_18
REMARK   13  A    between atoms: C_18  and  C_19
REMARK                            x       y       z     vdW  Elec       q    Type
REMARK                         _______ _______ _______ _____ _____    ______ ____
ROOT
ATOM      1  C   UNL     1       2.503   4.898  20.104  0.00  0.00    +0.000 A 
ATOM      2  C   UNL     1       1.987   6.038  20.741  0.00  0.00    +0.000 A 
ATOM      3  C   UNL     1       1.901   7.268  20.074  0.00  0.00    +0.000 A 
ATOM      4  C   UNL     1       2.323   7.353  18.747  0.00  0.00    +0.000 A 
ATOM      5  C   UNL     1       2.869   6.245  18.108  0.00  0.00    +0.000 A 
ATOM      6  C   UNL     1       2.994   5.005  18.775  0.00  0.00    +0.000 A 
ENDROOT
BRANCH   1   8
ATOM      7  C   UNL     1       1.442   2.920  21.148  0.00  0.00    +0.000 C 
ATOM      8  O   UNL     1       2.502   3.750  20.835  0.00  0.00    +0.000 OA
ENDBRANCH   1   8
BRANCH   3   9
ATOM      9  C   UNL     1       1.356   8.485  20.775  0.00  0.00    +0.000 C 
BRANCH   9  10
ATOM     10  N   UNL     1       0.880   9.462  19.788  0.00  0.00    +0.000 NA
ATOM     11  H   UNL     1       0.797   8.978  18.862  0.00  0.00    +0.000 HD
BRANCH  10  12
ATOM     12  C   UNL     1      -0.443   9.979  20.165  0.00  0.00    +0.000 C 
BRANCH  12  13
ATOM     13  C   UNL     1      -0.893  11.040  19.157  0.00  0.00    +0.000 C 
BRANCH  13  14
ATOM     14  C   UNL     1      -0.333  12.431  19.507  0.00  0.00    +0.000 C 
BRANCH  14  15
ATOM     15  N   UNL     1       0.465  12.423  20.756  0.00  0.00    +0.000 NA
ATOM     16  C   UNL     1       1.841  12.911  20.545  0.00  0.00    +0.000 C 
ATOM     17  C   UNL     1      -0.196  13.263  21.770  0.00  0.00    +0.000 C 
ENDBRANCH  14  15
ENDBRANCH  13  14
ENDBRANCH  12  13
ENDBRANCH  10  12
ENDBRANCH   9  10
ENDBRANCH   3   9
BRANCH   6  18
ATOM     18  O   UNL     1       3.633   3.957  18.176  0.00  0.00    +0.000 OA
BRANCH  18  19
ATOM     19  C   UNL     1       4.606   4.104  17.196  0.00  0.00    +0.000 C 
BRANCH  19  20
ATOM     20  C   UNL     1       5.745   5.001  17.619  0.00  0.00    +0.000 A 
ATOM     21  C   UNL     1       6.463   4.782  18.810  0.00  0.00    +0.000 A 
ATOM     22  C   UNL     1       7.478   5.662  19.195  0.00  0.00    +0.000 A 
ATOM     23  C   UNL     1       7.783   6.772  18.405  0.00  0.00    +0.000 A 
ATOM     24  F   UNL     1       8.755   7.634  18.792  0.00  0.00    +0.000 F 
ATOM     25  C   UNL     1       7.084   6.998  17.220  0.00  0.00    +0.000 A 
ATOM     26  C   UNL     1       6.074   6.119  16.817  0.00  0.00    +0.000 A 
ATOM     27 CL   UNL     1       5.215   6.470  15.319  0.00  0.00    +0.000 Cl
ENDBRANCH  19  20
ENDBRANCH  18  19
ENDBRANCH   6  18
TORSDOF 10
ENDMDL
MODEL 9
REMARK VINA RESULT:      -6.4      4.265      8.166
REMARK  Name = 
REMARK  13 active torsions:
REMARK  status: ('A' for Active; 'I' for Inactive)
REMARK    1  A    between atoms: C_1  and  O_2
REMARK    2  A    between atoms: O_2  and  C_3
REMARK    3  A    between atoms: C_5  and  C_6
REMARK    4  A    between atoms: C_6  and  N_7
REMARK    5  A    between atoms: N_7  and  C_8
REMARK    6  A    between atoms: C_8  and  C_9
REMARK    7  A    between atoms: C_9  and  C_10
REMARK    8  A    between atoms: C_10  and  N_11
REMARK    9  A    between atoms: N_11  and  C_12
REMARK   10  A    between atoms: N_11  and  C_13
REMARK   11  A    between atoms: C_16  and  O_17
REMARK   12  A    between atoms: O_17  and  C_18
REMARK   13  A    between atoms: C_18  and  C_19
REMARK                            x       y       z     vdW  Elec       q    Type
REMARK                         _______ _______ _______ _____ _____    ______ ____
ROOT
ATOM      1  C   UNL     1       2.324   5.058  19.381  0.00  0.00    +0.000 A 
ATOM      2  C   UNL     1       1.966   6.083  20.271  0.00  0.00    +0.000 A 
ATOM      3  C   UNL     1       2.011   7.430  19.886  0.00  0.00    +0.000 A 
ATOM      4  C   UNL     1       2.408   7.754  18.588  0.00  0.00    +0.000 A 
ATOM      5  C   UNL     1       2.801   6.756  17.702  0.00  0.00    +0.000 A 
ATOM      6  C   UNL     1       2.792   5.395  18.083  0.00  0.00    +0.000 A 
ENDROOT
BRANCH   1   8
ATOM      7  C   UNL     1       1.196   3.237  20.622  0.00  0.00    +0.000 C 
ATOM      8  O   UNL     1       2.203   3.786  19.850  0.00  0.00    +0.000 OA
ENDBRANCH   1   8
BRANCH   3   9
ATOM      9  C   UNL     1       1.635   8.520  20.856  0.00  0.00    +0.000 C 
BRANCH   9  10
ATOM     10  N   UNL     1       0.648   8.017  21.818  0.00  0.00    +0.000 NA
ATOM     11  H   UNL     1       1.084   8.032  22.772  0.00  0.00    +0.000 HD
BRANCH  10  12
ATOM     12  C   UNL     1      -0.544   8.876  21.837  0.00  0.00    +0.000 C 
BRANCH  12  13
ATOM     13  C   UNL     1      -0.369   9.988  22.877  0.00  0.00    +0.000 C 
BRANCH  13  14
ATOM     14  C   UNL     1      -0.406  11.383  22.228  0.00  0.00    +0.000 C 
BRANCH  14  15
ATOM     15  N   UNL     1      -1.667  12.108  22.512  0.00  0.00    +0.000 NA
ATOM     16  C   UNL     1      -1.447  13.319  23.324  0.00  0.00    +0.000 C 
ATOM     17  C   UNL     1      -2.316  12.486  21.245  0.00  0.00    +0.000 C 
ENDBRANCH  14  15
ENDBRANCH  13  14
ENDBRANCH  12  13
ENDBRANCH  10  12
ENDBRANCH   9  10
ENDBRANCH   3   9
BRANCH   6  18
ATOM     18  O   UNL     1       3.284   4.437  17.243  0.00  0.00    +0.000 OA
BRANCH  18  19
ATOM     19  C   UNL     1       4.491   3.781  17.443  0.00  0.00    +0.000 C 
BRANCH  19  20
ATOM     20  C   UNL     1       5.626   4.714  17.791  0.00  0.00    +0.000 A 
ATOM     21  C   UNL     1       6.122   4.826  19.103  0.00  0.00    +0.000 A 
ATOM     22  C   UNL     1       7.140   5.736  19.399  0.00  0.00    +0.000 A 
ATOM     23  C   UNL     1       7.668   6.551  18.395  0.00  0.00    +0.000 A 
ATOM     24  F   UNL     1       8.641   7.448  18.690  0.00  0.00    +0.000 F 
ATOM     25  C   UNL     1       7.189   6.447  17.089  0.00  0.00    +0.000 A 
ATOM     26  C   UNL     1       6.180   5.532  16.777  0.00  0.00    +0.000 A 
ATOM     27 CL   UNL     1       5.605   5.461  15.114  0.00  0.00    +0.000 Cl
ENDBRANCH  19  20
ENDBRANCH  18  19
ENDBRANCH   6  18
TORSDOF 10
ENDMDL
