MODEL 1
REMARK VINA RESULT:      -8.4      0.000      0.000
REMARK  Name = 
REMARK  9 active torsions:
REMARK  status: ('A' for Active; 'I' for Inactive)
REMARK    1  A    between atoms: C_1  and  N_2
REMARK    2  A    between atoms: C_3  and  C_5
REMARK    3  A    between atoms: C_5  and  N_6
REMARK    4  A    between atoms: C_5  and  C_26
REMARK    5  A    between atoms: C_7  and  C_9
REMARK    6  A    between atoms: C_11  and  C_12
REMARK    7  A    between atoms: C_14  and  C_15
REMARK    8  A    between atoms: C_17  and  C_18
REMARK    9  A    between atoms: C_23  and  C_24
REMARK                            x       y       z     vdW  Elec       q    Type
REMARK                         _______ _______ _______ _____ _____    ______ ____
ROOT
ATOM      1  C   UNL     1      -0.222  10.348  19.938  0.00  0.00    +0.000 A 
ATOM      2  C   UNL     1       0.547   9.497  19.133  0.00  0.00    +0.000 A 
ATOM      3  C   UNL     1       1.410   8.587  19.736  0.00  0.00    +0.000 A 
ATOM      4  N   UNL     1       1.541   8.437  21.070  0.00  0.00    +0.000 NA
ATOM      5  C   UNL     1       0.764   9.258  21.797  0.00  0.00    +0.000 A 
ATOM      6  O   UNL     1       0.758   9.263  23.156  0.00  0.00    +0.000 OA
ATOM      7  N   UNL     1      -0.124  10.224  23.617  0.00  0.00    +0.000 NA
ATOM      8  C   UNL     1      -0.651  10.791  22.523  0.00  0.00    +0.000 A 
ATOM      9  C   UNL     1      -1.643  11.877  22.692  0.00  0.00    +0.000 C 
ATOM     10  C   UNL     1      -0.125  10.215  21.332  0.00  0.00    +0.000 A 
ENDROOT
BRANCH   3  11
ATOM     11  C   UNL     1       2.283   7.766  18.908  0.00  0.00    +0.000 A 
ATOM     12  C   UNL     1       3.095   8.122  17.792  0.00  0.00    +0.000 A 
ATOM     13  C   UNL     1       3.808   6.995  17.445  0.00  0.00    +0.000 A 
ATOM     14  C   UNL     1       4.842   6.711  16.431  0.00  0.00    +0.000 C 
ATOM     15  O   UNL     1       3.463   5.958  18.253  0.00  0.00    +0.000 OA
ATOM     16  C   UNL     1       2.536   6.423  19.138  0.00  0.00    +0.000 A 
ATOM     17  C   UNL     1       2.053   5.438  20.134  0.00  0.00    +0.000 C 
ENDBRANCH   3  11
BRANCH   1  19
ATOM     18  N   UNL     1      -2.369  10.888  18.953  0.00  0.00    +0.000 N 
ATOM     19  C   UNL     1      -1.122  11.339  19.319  0.00  0.00    +0.000 C 
ATOM     20  O   UNL     1      -0.743  12.486  19.137  0.00  0.00    +0.000 OA
ATOM     21  H   UNL     1      -2.599   9.899  18.946  0.00  0.00    +0.000 HD
BRANCH  18  22
ATOM     22  C   UNL     1      -3.308  11.766  18.271  0.00  0.00    +0.000 C 
BRANCH  22  23
ATOM     23  C   UNL     1      -4.586  11.934  19.075  0.00  0.00    +0.000 A 
ATOM     24  C   UNL     1      -4.655  12.936  20.055  0.00  0.00    +0.000 A 
ATOM     25  C   UNL     1      -5.814  13.115  20.812  0.00  0.00    +0.000 A 
ATOM     26  C   UNL     1      -6.915  12.290  20.606  0.00  0.00    +0.000 A 
ATOM     27  C   UNL     1      -6.861  11.285  19.642  0.00  0.00    +0.000 A 
ATOM     28  C   UNL     1      -5.704  11.108  18.875  0.00  0.00    +0.000 A 
ENDBRANCH  22  23
BRANCH  22  31
ATOM     29  C   UNL     1      -2.743   9.713  15.091  0.00  0.00    +0.000 C 
ATOM     30  N   UNL     1      -2.615  10.355  16.374  0.00  0.00    +0.000 N 
ATOM     31  C   UNL     1      -3.571  11.236  16.843  0.00  0.00    +0.000 C 
ATOM     32  O   UNL     1      -4.567  11.559  16.193  0.00  0.00    +0.000 OA
ATOM     33  H   UNL     1      -1.844  10.093  16.974  0.00  0.00    +0.000 HD
ENDBRANCH  22  31
ENDBRANCH  18  22
ENDBRANCH   1  19
TORSDOF 5
ENDMDL
MODEL 2
REMARK VINA RESULT:      -8.2      2.836      4.482
REMARK  Name = 
REMARK  9 active torsions:
REMARK  status: ('A' for Active; 'I' for Inactive)
REMARK    1  A    between atoms: C_1  and  N_2
REMARK    2  A    between atoms: C_3  and  C_5
REMARK    3  A    between atoms: C_5  and  N_6
REMARK    4  A    between atoms: C_5  and  C_26
REMARK    5  A    between atoms: C_7  and  C_9
REMARK    6  A    between atoms: C_11  and  C_12
REMARK    7  A    between atoms: C_14  and  C_15
REMARK    8  A    between atoms: C_17  and  C_18
REMARK    9  A    between atoms: C_23  and  C_24
REMARK                            x       y       z     vdW  Elec       q    Type
REMARK                         _______ _______ _______ _____ _____    ______ ____
ROOT
ATOM      1  C   UNL     1       2.603   8.106  18.277  0.00  0.00    +0.000 A 
ATOM      2  C   UNL     1       3.521   7.627  17.332  0.00  0.00    +0.000 A 
ATOM      3  C   UNL     1       4.121   6.388  17.534  0.00  0.00    +0.000 A 
ATOM      4  N   UNL     1       3.855   5.579  18.579  0.00  0.00    +0.000 NA
ATOM      5  C   UNL     1       2.949   6.071  19.442  0.00  0.00    +0.000 A 
ATOM      6  O   UNL     1       2.553   5.408  20.560  0.00  0.00    +0.000 OA
ATOM      7  N   UNL     1       1.634   6.171  21.257  0.00  0.00    +0.000 NA
ATOM      8  C   UNL     1       1.475   7.294  20.543  0.00  0.00    +0.000 A 
ATOM      9  C   UNL     1       0.541   8.329  21.041  0.00  0.00    +0.000 C 
ATOM     10  C   UNL     1       2.288   7.287  19.374  0.00  0.00    +0.000 A 
ENDROOT
BRANCH   3  11
ATOM     11  C   UNL     1       5.145   5.926  16.608  0.00  0.00    +0.000 A 
ATOM     12  C   UNL     1       5.036   5.094  15.455  0.00  0.00    +0.000 A 
ATOM     13  C   UNL     1       6.285   5.059  14.873  0.00  0.00    +0.000 A 
ATOM     14  C   UNL     1       6.825   4.434  13.649  0.00  0.00    +0.000 C 
ATOM     15  O   UNL     1       7.164   5.786  15.610  0.00  0.00    +0.000 OA
ATOM     16  C   UNL     1       6.476   6.309  16.664  0.00  0.00    +0.000 A 
ATOM     17  C   UNL     1       7.263   7.170  17.577  0.00  0.00    +0.000 C 
ENDBRANCH   3  11
BRANCH   1  19
ATOM     18  N   UNL     1       0.640   9.521  18.410  0.00  0.00    +0.000 N 
ATOM     19  C   UNL     1       1.976   9.429  18.097  0.00  0.00    +0.000 C 
ATOM     20  O   UNL     1       2.632  10.367  17.671  0.00  0.00    +0.000 OA
ATOM     21  H   UNL     1       0.074   8.697  18.588  0.00  0.00    +0.000 HD
BRANCH  18  22
ATOM     22  C   UNL     1      -0.090  10.763  18.203  0.00  0.00    +0.000 C 
BRANCH  22  23
ATOM     23  C   UNL     1      -0.173  11.572  19.485  0.00  0.00    +0.000 A 
ATOM     24  C   UNL     1       0.878  12.443  19.818  0.00  0.00    +0.000 A 
ATOM     25  C   UNL     1       0.834  13.199  20.990  0.00  0.00    +0.000 A 
ATOM     26  C   UNL     1      -0.257  13.090  21.849  0.00  0.00    +0.000 A 
ATOM     27  C   UNL     1      -1.305  12.226  21.537  0.00  0.00    +0.000 A 
ATOM     28  C   UNL     1      -1.267  11.472  20.359  0.00  0.00    +0.000 A 
ENDBRANCH  22  23
BRANCH  22  31
ATOM     29  C   UNL     1      -3.153  11.175  15.945  0.00  0.00    +0.000 C 
ATOM     30  N   UNL     1      -1.911  11.354  16.652  0.00  0.00    +0.000 N 
ATOM     31  C   UNL     1      -1.482  10.452  17.606  0.00  0.00    +0.000 C 
ATOM     32  O   UNL     1      -2.138   9.466  17.945  0.00  0.00    +0.000 OA
ATOM     33  H   UNL     1      -1.305  12.119  16.383  0.00  0.00    +0.000 HD
ENDBRANCH  22  31
ENDBRANCH  18  22
ENDBRANCH   1  19
TORSDOF 5
ENDMDL
MODEL 3
REMARK VINA RESULT:      -8.2      1.396      1.641
REMARK  Name = 
REMARK  9 active torsions:
REMARK  status: ('A' for Active; 'I' for Inactive)
REMARK    1  A    between atoms: C_1  and  N_2
REMARK    2  A    between atoms: C_3  and  C_5
REMARK    3  A    between atoms: C_5  and  N_6
REMARK    4  A    between atoms: C_5  and  C_26
REMARK    5  A    between atoms: C_7  and  C_9
REMARK    6  A    between atoms: C_11  and  C_12
REMARK    7  A    between atoms: C_14  and  C_15
REMARK    8  A    between atoms: C_17  and  C_18
REMARK    9  A    between atoms: C_23  and  C_24
REMARK                            x       y       z     vdW  Elec       q    Type
REMARK                         _______ _______ _______ _____ _____    ______ ____
ROOT
ATOM      1  C   UNL     1      -0.418  10.541  19.175  0.00  0.00    +0.000 A 
ATOM      2  C   UNL     1       0.408   9.553  18.619  0.00  0.00    +0.000 A 
ATOM      3  C   UNL     1       1.270   8.843  19.449  0.00  0.00    +0.000 A 
ATOM      4  N   UNL     1       1.350   9.015  20.784  0.00  0.00    +0.000 NA
ATOM      5  C   UNL     1       0.521   9.955  21.271  0.00  0.00    +0.000 A 
ATOM      6  O   UNL     1       0.458  10.278  22.588  0.00  0.00    +0.000 OA
ATOM      7  N   UNL     1      -0.468  11.288  22.780  0.00  0.00    +0.000 NA
ATOM      8  C   UNL     1      -0.965  11.562  21.566  0.00  0.00    +0.000 A 
ATOM      9  C   UNL     1      -1.994  12.620  21.440  0.00  0.00    +0.000 C 
ATOM     10  C   UNL     1      -0.374  10.742  20.563  0.00  0.00    +0.000 A 
ENDROOT
BRANCH   3  11
ATOM     11  C   UNL     1       2.199   7.883  18.868  0.00  0.00    +0.000 A 
ATOM     12  C   UNL     1       3.103   8.023  17.774  0.00  0.00    +0.000 A 
ATOM     13  C   UNL     1       3.830   6.854  17.710  0.00  0.00    +0.000 A 
ATOM     14  C   UNL     1       4.940   6.387  16.857  0.00  0.00    +0.000 C 
ATOM     15  O   UNL     1       3.410   5.990  18.670  0.00  0.00    +0.000 OA
ATOM     16  C   UNL     1       2.418   6.611  19.370  0.00  0.00    +0.000 A 
ATOM     17  C   UNL     1       1.846   5.832  20.494  0.00  0.00    +0.000 C 
ENDBRANCH   3  11
BRANCH   1  19
ATOM     18  N   UNL     1      -2.331  10.629  17.691  0.00  0.00    +0.000 N 
ATOM     19  C   UNL     1      -1.319  11.325  18.309  0.00  0.00    +0.000 C 
ATOM     20  O   UNL     1      -1.136  12.523  18.155  0.00  0.00    +0.000 OA
ATOM     21  H   UNL     1      -2.358   9.614  17.686  0.00  0.00    +0.000 HD
BRANCH  18  22
ATOM     22  C   UNL     1      -3.233  11.294  16.762  0.00  0.00    +0.000 C 
BRANCH  22  23
ATOM     23  C   UNL     1      -4.638  11.383  17.330  0.00  0.00    +0.000 A 
ATOM     24  C   UNL     1      -5.071  10.415  18.250  0.00  0.00    +0.000 A 
ATOM     25  C   UNL     1      -6.356  10.467  18.790  0.00  0.00    +0.000 A 
ATOM     26  C   UNL     1      -7.230  11.482  18.411  0.00  0.00    +0.000 A 
ATOM     27  C   UNL     1      -6.820  12.448  17.494  0.00  0.00    +0.000 A 
ATOM     28  C   UNL     1      -5.529  12.403  16.957  0.00  0.00    +0.000 A 
ENDBRANCH  22  23
BRANCH  22  31
ATOM     29  C   UNL     1      -4.537   9.921  13.436  0.00  0.00    +0.000 C 
ATOM     30  N   UNL     1      -4.410  10.496  14.750  0.00  0.00    +0.000 N 
ATOM     31  C   UNL     1      -3.191  10.575  15.394  0.00  0.00    +0.000 C 
ATOM     32  O   UNL     1      -2.145  10.132  14.914  0.00  0.00    +0.000 OA
ATOM     33  H   UNL     1      -5.225  10.920  15.175  0.00  0.00    +0.000 HD
ENDBRANCH  22  31
ENDBRANCH  18  22
ENDBRANCH   1  19
TORSDOF 5
ENDMDL
MODEL 4
REMARK VINA RESULT:      -8.2      0.927      1.252
REMARK  Name = 
REMARK  9 active torsions:
REMARK  status: ('A' for Active; 'I' for Inactive)
REMARK    1  A    between atoms: C_1  and  N_2
REMARK    2  A    between atoms: C_3  and  C_5
REMARK    3  A    between atoms: C_5  and  N_6
REMARK    4  A    between atoms: C_5  and  C_26
REMARK    5  A    between atoms: C_7  and  C_9
REMARK    6  A    between atoms: C_11  and  C_12
REMARK    7  A    between atoms: C_14  and  C_15
REMARK    8  A    between atoms: C_17  and  C_18
REMARK    9  A    between atoms: C_23  and  C_24
REMARK                            x       y       z     vdW  Elec       q    Type
REMARK                         _______ _______ _______ _____ _____    ______ ____
ROOT
ATOM      1  C   UNL     1       0.013   9.983  19.663  0.00  0.00    +0.000 A 
ATOM      2  C   UNL     1       0.801   9.004  19.042  0.00  0.00    +0.000 A 
ATOM      3  C   UNL     1       1.615   8.190  19.823  0.00  0.00    +0.000 A 
ATOM      4  N   UNL     1       1.680   8.252  21.169  0.00  0.00    +0.000 NA
ATOM      5  C   UNL     1       0.887   9.188  21.718  0.00  0.00    +0.000 A 
ATOM      6  O   UNL     1       0.816   9.409  23.057  0.00  0.00    +0.000 OA
ATOM      7  N   UNL     1      -0.065  10.443  23.316  0.00  0.00    +0.000 NA
ATOM      8  C   UNL     1      -0.528  10.836  22.121  0.00  0.00    +0.000 A 
ATOM      9  C   UNL     1      -1.503  11.949  22.066  0.00  0.00    +0.000 C 
ATOM     10  C   UNL     1       0.042  10.071  21.064  0.00  0.00    +0.000 A 
ENDROOT
BRANCH   3  11
ATOM     11  C   UNL     1       2.508   7.236  19.181  0.00  0.00    +0.000 A 
ATOM     12  C   UNL     1       3.395   7.404  18.077  0.00  0.00    +0.000 A 
ATOM     13  C   UNL     1       4.091   6.222  17.944  0.00  0.00    +0.000 A 
ATOM     14  C   UNL     1       5.173   5.768  17.049  0.00  0.00    +0.000 C 
ATOM     15  O   UNL     1       3.666   5.325  18.871  0.00  0.00    +0.000 OA
ATOM     16  C   UNL     1       2.704   5.936  19.619  0.00  0.00    +0.000 A 
ATOM     17  C   UNL     1       2.133   5.120  20.716  0.00  0.00    +0.000 C 
ENDBRANCH   3  11
BRANCH   1  19
ATOM     18  N   UNL     1      -2.088  10.406  18.535  0.00  0.00    +0.000 N 
ATOM     19  C   UNL     1      -0.835  10.875  18.851  0.00  0.00    +0.000 C 
ATOM     20  O   UNL     1      -0.409  11.958  18.478  0.00  0.00    +0.000 OA
ATOM     21  H   UNL     1      -2.355   9.440  18.698  0.00  0.00    +0.000 HD
BRANCH  18  22
ATOM     22  C   UNL     1      -2.979  11.178  17.680  0.00  0.00    +0.000 C 
BRANCH  22  23
ATOM     23  C   UNL     1      -4.207  11.643  18.444  0.00  0.00    +0.000 A 
ATOM     24  C   UNL     1      -5.483  11.294  17.973  0.00  0.00    +0.000 A 
ATOM     25  C   UNL     1      -6.631  11.706  18.650  0.00  0.00    +0.000 A 
ATOM     26  C   UNL     1      -6.520  12.480  19.802  0.00  0.00    +0.000 A 
ATOM     27  C   UNL     1      -5.262  12.841  20.280  0.00  0.00    +0.000 A 
ATOM     28  C   UNL     1      -4.108  12.422  19.607  0.00  0.00    +0.000 A 
ENDBRANCH  22  23
BRANCH  22  31
ATOM     29  C   UNL     1      -3.512  10.414  13.968  0.00  0.00    +0.000 C 
ATOM     30  N   UNL     1      -3.275  11.051  15.237  0.00  0.00    +0.000 N 
ATOM     31  C   UNL     1      -3.340  10.349  16.425  0.00  0.00    +0.000 C 
ATOM     32  O   UNL     1      -3.636   9.155  16.487  0.00  0.00    +0.000 OA
ATOM     33  H   UNL     1      -2.980  12.019  15.247  0.00  0.00    +0.000 HD
ENDBRANCH  22  31
ENDBRANCH  18  22
ENDBRANCH   1  19
TORSDOF 5
ENDMDL
MODEL 5
REMARK VINA RESULT:      -8.0      1.099      1.656
REMARK  Name = 
REMARK  9 active torsions:
REMARK  status: ('A' for Active; 'I' for Inactive)
REMARK    1  A    between atoms: C_1  and  N_2
REMARK    2  A    between atoms: C_3  and  C_5
REMARK    3  A    between atoms: C_5  and  N_6
REMARK    4  A    between atoms: C_5  and  C_26
REMARK    5  A    between atoms: C_7  and  C_9
REMARK    6  A    between atoms: C_11  and  C_12
REMARK    7  A    between atoms: C_14  and  C_15
REMARK    8  A    between atoms: C_17  and  C_18
REMARK    9  A    between atoms: C_23  and  C_24
REMARK                            x       y       z     vdW  Elec       q    Type
REMARK                         _______ _______ _______ _____ _____    ______ ____
ROOT
ATOM      1  C   UNL     1      -0.190  10.035  19.871  0.00  0.00    +0.000 A 
ATOM      2  C   UNL     1       0.577   8.945  19.435  0.00  0.00    +0.000 A 
ATOM      3  C   UNL     1       1.294   8.203  20.368  0.00  0.00    +0.000 A 
ATOM      4  N   UNL     1       1.281   8.438  21.696  0.00  0.00    +0.000 NA
ATOM      5  C   UNL     1       0.511   9.476  22.065  0.00  0.00    +0.000 A 
ATOM      6  O   UNL     1       0.373   9.875  23.356  0.00  0.00    +0.000 OA
ATOM      7  N   UNL     1      -0.461  10.976  23.421  0.00  0.00    +0.000 NA
ATOM      8  C   UNL     1      -0.828  11.230  22.157  0.00  0.00    +0.000 A 
ATOM      9  C   UNL     1      -1.733  12.373  21.894  0.00  0.00    +0.000 C 
ATOM     10  C   UNL     1      -0.241  10.306  21.248  0.00  0.00    +0.000 A 
ENDROOT
BRANCH   3  11
ATOM     11  C   UNL     1       2.168   7.129  19.914  0.00  0.00    +0.000 A 
ATOM     12  C   UNL     1       2.448   5.861  20.502  0.00  0.00    +0.000 A 
ATOM     13  C   UNL     1       3.251   5.181  19.612  0.00  0.00    +0.000 A 
ATOM     14  C   UNL     1       3.838   3.827  19.593  0.00  0.00    +0.000 C 
ATOM     15  O   UNL     1       3.513   5.961  18.531  0.00  0.00    +0.000 OA
ATOM     16  C   UNL     1       2.861   7.143  18.714  0.00  0.00    +0.000 A 
ATOM     17  C   UNL     1       2.999   8.127  17.615  0.00  0.00    +0.000 C 
ENDBRANCH   3  11
BRANCH   1  19
ATOM     18  N   UNL     1      -2.252  10.513  18.693  0.00  0.00    +0.000 N 
ATOM     19  C   UNL     1      -0.935  10.853  18.896  0.00  0.00    +0.000 C 
ATOM     20  O   UNL     1      -0.377  11.763  18.301  0.00  0.00    +0.000 OA
ATOM     21  H   UNL     1      -2.645   9.650  19.057  0.00  0.00    +0.000 HD
BRANCH  18  22
ATOM     22  C   UNL     1      -3.058  11.211  17.702  0.00  0.00    +0.000 C 
BRANCH  22  23
ATOM     23  C   UNL     1      -4.404  11.618  18.275  0.00  0.00    +0.000 A 
ATOM     24  C   UNL     1      -4.448  12.374  19.458  0.00  0.00    +0.000 A 
ATOM     25  C   UNL     1      -5.668  12.762  20.012  0.00  0.00    +0.000 A 
ATOM     26  C   UNL     1      -6.861  12.393  19.397  0.00  0.00    +0.000 A 
ATOM     27  C   UNL     1      -6.837  11.638  18.227  0.00  0.00    +0.000 A 
ATOM     28  C   UNL     1      -5.615  11.254  17.664  0.00  0.00    +0.000 A 
ENDBRANCH  22  23
BRANCH  22  31
ATOM     29  C   UNL     1      -3.346  10.388  13.975  0.00  0.00    +0.000 C 
ATOM     30  N   UNL     1      -3.285  11.048  15.254  0.00  0.00    +0.000 N 
ATOM     31  C   UNL     1      -3.193  10.336  16.434  0.00  0.00    +0.000 C 
ATOM     32  O   UNL     1      -3.194   9.105  16.481  0.00  0.00    +0.000 OA
ATOM     33  H   UNL     1      -3.232  12.058  15.277  0.00  0.00    +0.000 HD
ENDBRANCH  22  31
ENDBRANCH  18  22
ENDBRANCH   1  19
TORSDOF 5
ENDMDL
MODEL 6
REMARK VINA RESULT:      -8.0      3.100      4.958
REMARK  Name = 
REMARK  9 active torsions:
REMARK  status: ('A' for Active; 'I' for Inactive)
REMARK    1  A    between atoms: C_1  and  N_2
REMARK    2  A    between atoms: C_3  and  C_5
REMARK    3  A    between atoms: C_5  and  N_6
REMARK    4  A    between atoms: C_5  and  C_26
REMARK    5  A    between atoms: C_7  and  C_9
REMARK    6  A    between atoms: C_11  and  C_12
REMARK    7  A    between atoms: C_14  and  C_15
REMARK    8  A    between atoms: C_17  and  C_18
REMARK    9  A    between atoms: C_23  and  C_24
REMARK                            x       y       z     vdW  Elec       q    Type
REMARK                         _______ _______ _______ _____ _____    ______ ____
ROOT
ATOM      1  C   UNL     1       0.376  10.578  19.951  0.00  0.00    +0.000 A 
ATOM      2  C   UNL     1       1.065   9.642  19.168  0.00  0.00    +0.000 A 
ATOM      3  C   UNL     1       1.573   8.495  19.770  0.00  0.00    +0.000 A 
ATOM      4  N   UNL     1       1.418   8.192  21.075  0.00  0.00    +0.000 NA
ATOM      5  C   UNL     1       0.728   9.108  21.777  0.00  0.00    +0.000 A 
ATOM      6  O   UNL     1       0.473   8.988  23.105  0.00  0.00    +0.000 OA
ATOM      7  N   UNL     1      -0.235  10.090  23.549  0.00  0.00    +0.000 NA
ATOM      8  C   UNL     1      -0.409  10.869  22.473  0.00  0.00    +0.000 A 
ATOM      9  C   UNL     1      -1.141  12.147  22.630  0.00  0.00    +0.000 C 
ATOM     10  C   UNL     1       0.182  10.295  21.312  0.00  0.00    +0.000 A 
ENDROOT
BRANCH   3  11
ATOM     11  C   UNL     1       2.372   7.564  18.985  0.00  0.00    +0.000 A 
ATOM     12  C   UNL     1       3.193   7.793  17.842  0.00  0.00    +0.000 A 
ATOM     13  C   UNL     1       3.817   6.597  17.558  0.00  0.00    +0.000 A 
ATOM     14  C   UNL     1       4.814   6.179  16.553  0.00  0.00    +0.000 C 
ATOM     15  O   UNL     1       3.408   5.639  18.429  0.00  0.00    +0.000 OA
ATOM     16  C   UNL     1       2.529   6.222  19.292  0.00  0.00    +0.000 A 
ATOM     17  C   UNL     1       1.989   5.335  20.350  0.00  0.00    +0.000 C 
ENDBRANCH   3  11
BRANCH   1  19
ATOM     18  N   UNL     1       0.493  12.983  19.681  0.00  0.00    +0.000 N 
ATOM     19  C   UNL     1      -0.146  11.815  19.338  0.00  0.00    +0.000 C 
ATOM     20  O   UNL     1      -1.108  11.771  18.587  0.00  0.00    +0.000 OA
ATOM     21  H   UNL     1       1.168  13.022  20.439  0.00  0.00    +0.000 HD
BRANCH  18  22
ATOM     22  C   UNL     1       0.014  14.266  19.187  0.00  0.00    +0.000 C 
BRANCH  22  23
ATOM     23  C   UNL     1       1.154  15.097  18.622  0.00  0.00    +0.000 A 
ATOM     24  C   UNL     1       2.384  14.479  18.347  0.00  0.00    +0.000 A 
ATOM     25  C   UNL     1       3.451  15.213  17.829  0.00  0.00    +0.000 A 
ATOM     26  C   UNL     1       3.306  16.576  17.586  0.00  0.00    +0.000 A 
ATOM     27  C   UNL     1       2.094  17.207  17.859  0.00  0.00    +0.000 A 
ATOM     28  C   UNL     1       1.019  16.472  18.371  0.00  0.00    +0.000 A 
ENDBRANCH  22  23
BRANCH  22  31
ATOM     29  C   UNL     1      -2.958  15.870  20.988  0.00  0.00    +0.000 C 
ATOM     30  N   UNL     1      -2.081  15.257  20.025  0.00  0.00    +0.000 N 
ATOM     31  C   UNL     1      -0.754  15.000  20.311  0.00  0.00    +0.000 C 
ATOM     32  O   UNL     1      -0.223  15.307  21.380  0.00  0.00    +0.000 OA
ATOM     33  H   UNL     1      -2.470  14.938  19.146  0.00  0.00    +0.000 HD
ENDBRANCH  22  31
ENDBRANCH  18  22
ENDBRANCH   1  19
TORSDOF 5
ENDMDL
MODEL 7
REMARK VINA RESULT:      -8.0      1.010      1.130
REMARK  Name = 
REMARK  9 active torsions:
REMARK  status: ('A' for Active; 'I' for Inactive)
REMARK    1  A    between atoms: C_1  and  N_2
REMARK    2  A    between atoms: C_3  and  C_5
REMARK    3  A    between atoms: C_5  and  N_6
REMARK    4  A    between atoms: C_5  and  C_26
REMARK    5  A    between atoms: C_7  and  C_9
REMARK    6  A    between atoms: C_11  and  C_12
REMARK    7  A    between atoms: C_14  and  C_15
REMARK    8  A    between atoms: C_17  and  C_18
REMARK    9  A    between atoms: C_23  and  C_24
REMARK                            x       y       z     vdW  Elec       q    Type
REMARK                         _______ _______ _______ _____ _____    ______ ____
ROOT
ATOM      1  C   UNL     1       0.426   9.826  19.478  0.00  0.00    +0.000 A 
ATOM      2  C   UNL     1       1.126   8.901  18.690  0.00  0.00    +0.000 A 
ATOM      3  C   UNL     1       1.954   7.969  19.309  0.00  0.00    +0.000 A 
ATOM      4  N   UNL     1       2.111   7.865  20.644  0.00  0.00    +0.000 NA
ATOM      5  C   UNL     1       1.399   8.756  21.356  0.00  0.00    +0.000 A 
ATOM      6  O   UNL     1       1.429   8.815  22.713  0.00  0.00    +0.000 OA
ATOM      7  N   UNL     1       0.614   9.842  23.155  0.00  0.00    +0.000 NA
ATOM      8  C   UNL     1       0.090  10.393  22.052  0.00  0.00    +0.000 A 
ATOM      9  C   UNL     1      -0.836  11.540  22.200  0.00  0.00    +0.000 C 
ATOM     10  C   UNL     1       0.553   9.742  20.874  0.00  0.00    +0.000 A 
ENDROOT
BRANCH   3  11
ATOM     11  C   UNL     1       2.758   7.068  18.495  0.00  0.00    +0.000 A 
ATOM     12  C   UNL     1       3.815   7.350  17.581  0.00  0.00    +0.000 A 
ATOM     13  C   UNL     1       4.313   6.135  17.164  0.00  0.00    +0.000 A 
ATOM     14  C   UNL     1       5.423   5.734  16.278  0.00  0.00    +0.000 C 
ATOM     15  O   UNL     1       3.609   5.122  17.735  0.00  0.00    +0.000 OA
ATOM     16  C   UNL     1       2.664   5.686  18.539  0.00  0.00    +0.000 A 
ATOM     17  C   UNL     1       1.806   4.734  19.283  0.00  0.00    +0.000 C 
ENDBRANCH   3  11
BRANCH   1  19
ATOM     18  N   UNL     1      -1.758  10.504  18.679  0.00  0.00    +0.000 N 
ATOM     19  C   UNL     1      -0.434  10.840  18.841  0.00  0.00    +0.000 C 
ATOM     20  O   UNL     1       0.040  11.903  18.468  0.00  0.00    +0.000 OA
ATOM     21  H   UNL     1      -2.092   9.557  18.827  0.00  0.00    +0.000 HD
BRANCH  18  22
ATOM     22  C   UNL     1      -2.677  11.406  17.999  0.00  0.00    +0.000 C 
BRANCH  22  23
ATOM     23  C   UNL     1      -3.685  11.997  18.969  0.00  0.00    +0.000 A 
ATOM     24  C   UNL     1      -3.226  12.678  20.107  0.00  0.00    +0.000 A 
ATOM     25  C   UNL     1      -4.125  13.231  21.019  0.00  0.00    +0.000 A 
ATOM     26  C   UNL     1      -5.495  13.104  20.810  0.00  0.00    +0.000 A 
ATOM     27  C   UNL     1      -5.969  12.426  19.689  0.00  0.00    +0.000 A 
ATOM     28  C   UNL     1      -5.070  11.877  18.768  0.00  0.00    +0.000 A 
ENDBRANCH  22  23
BRANCH  22  31
ATOM     29  C   UNL     1      -3.494  10.528  14.364  0.00  0.00    +0.000 C 
ATOM     30  N   UNL     1      -3.011  11.147  15.571  0.00  0.00    +0.000 N 
ATOM     31  C   UNL     1      -3.351  10.666  16.820  0.00  0.00    +0.000 C 
ATOM     32  O   UNL     1      -4.111   9.710  16.990  0.00  0.00    +0.000 OA
ATOM     33  H   UNL     1      -2.345  11.906  15.495  0.00  0.00    +0.000 HD
ENDBRANCH  22  31
ENDBRANCH  18  22
ENDBRANCH   1  19
TORSDOF 5
ENDMDL
MODEL 8
REMARK VINA RESULT:      -8.0      2.825      4.471
REMARK  Name = 
REMARK  9 active torsions:
REMARK  status: ('A' for Active; 'I' for Inactive)
REMARK    1  A    between atoms: C_1  and  N_2
REMARK    2  A    between atoms: C_3  and  C_5
REMARK    3  A    between atoms: C_5  and  N_6
REMARK    4  A    between atoms: C_5  and  C_26
REMARK    5  A    between atoms: C_7  and  C_9
REMARK    6  A    between atoms: C_11  and  C_12
REMARK    7  A    between atoms: C_14  and  C_15
REMARK    8  A    between atoms: C_17  and  C_18
REMARK    9  A    between atoms: C_23  and  C_24
REMARK                            x       y       z     vdW  Elec       q    Type
REMARK                         _______ _______ _______ _____ _____    ______ ____
ROOT
ATOM      1  C   UNL     1       0.077  10.483  20.065  0.00  0.00    +0.000 A 
ATOM      2  C   UNL     1       0.800   9.629  19.220  0.00  0.00    +0.000 A 
ATOM      3  C   UNL     1       1.503   8.562  19.772  0.00  0.00    +0.000 A 
ATOM      4  N   UNL     1       1.515   8.261  21.086  0.00  0.00    +0.000 NA
ATOM      5  C   UNL     1       0.786   9.094  21.850  0.00  0.00    +0.000 A 
ATOM      6  O   UNL     1       0.678   8.961  23.198  0.00  0.00    +0.000 OA
ATOM      7  N   UNL     1      -0.117   9.973  23.707  0.00  0.00    +0.000 NA
ATOM      8  C   UNL     1      -0.490  10.709  22.651  0.00  0.00    +0.000 A 
ATOM      9  C   UNL     1      -1.358  11.888  22.877  0.00  0.00    +0.000 C 
ATOM     10  C   UNL     1       0.053  10.197  21.439  0.00  0.00    +0.000 A 
ENDROOT
BRANCH   3  11
ATOM     11  C   UNL     1       2.333   7.727  18.914  0.00  0.00    +0.000 A 
ATOM     12  C   UNL     1       3.140   8.077  17.792  0.00  0.00    +0.000 A 
ATOM     13  C   UNL     1       3.807   6.932  17.413  0.00  0.00    +0.000 A 
ATOM     14  C   UNL     1       4.815   6.632  16.376  0.00  0.00    +0.000 C 
ATOM     15  O   UNL     1       3.438   5.893  18.206  0.00  0.00    +0.000 OA
ATOM     16  C   UNL     1       2.542   6.372  19.114  0.00  0.00    +0.000 A 
ATOM     17  C   UNL     1       2.040   5.385  20.098  0.00  0.00    +0.000 C 
ENDBRANCH   3  11
BRANCH   1  19
ATOM     18  N   UNL     1      -0.099  12.875  19.726  0.00  0.00    +0.000 N 
ATOM     19  C   UNL     1      -0.651  11.636  19.504  0.00  0.00    +0.000 C 
ATOM     20  O   UNL     1      -1.699  11.466  18.898  0.00  0.00    +0.000 OA
ATOM     21  H   UNL     1       0.666  13.011  20.380  0.00  0.00    +0.000 HD
BRANCH  18  22
ATOM     22  C   UNL     1      -0.774  14.084  19.275  0.00  0.00    +0.000 C 
BRANCH  22  23
ATOM     23  C   UNL     1       0.225  15.138  18.832  0.00  0.00    +0.000 A 
ATOM     24  C   UNL     1      -0.242  16.397  18.419  0.00  0.00    +0.000 A 
ATOM     25  C   UNL     1       0.649  17.387  18.004  0.00  0.00    +0.000 A 
ATOM     26  C   UNL     1       2.018  17.131  17.989  0.00  0.00    +0.000 A 
ATOM     27  C   UNL     1       2.498  15.886  18.390  0.00  0.00    +0.000 A 
ATOM     28  C   UNL     1       1.607  14.893  18.814  0.00  0.00    +0.000 A 
ENDBRANCH  22  23
BRANCH  22  31
ATOM     29  C   UNL     1      -4.042  14.546  21.213  0.00  0.00    +0.000 C 
ATOM     30  N   UNL     1      -3.041  14.216  20.232  0.00  0.00    +0.000 N 
ATOM     31  C   UNL     1      -1.721  14.593  20.386  0.00  0.00    +0.000 C 
ATOM     32  O   UNL     1      -1.318  15.261  21.340  0.00  0.00    +0.000 OA
ATOM     33  H   UNL     1      -3.302  13.628  19.450  0.00  0.00    +0.000 HD
ENDBRANCH  22  31
ENDBRANCH  18  22
ENDBRANCH   1  19
TORSDOF 5
ENDMDL
MODEL 9
REMARK VINA RESULT:      -7.9      1.569      2.150
REMARK  Name = 
REMARK  9 active torsions:
REMARK  status: ('A' for Active; 'I' for Inactive)
REMARK    1  A    between atoms: C_1  and  N_2
REMARK    2  A    between atoms: C_3  and  C_5
REMARK    3  A    between atoms: C_5  and  N_6
REMARK    4  A    between atoms: C_5  and  C_26
REMARK    5  A    between atoms: C_7  and  C_9
REMARK    6  A    between atoms: C_11  and  C_12
REMARK    7  A    between atoms: C_14  and  C_15
REMARK    8  A    between atoms: C_17  and  C_18
REMARK    9  A    between atoms: C_23  and  C_24
REMARK                            x       y       z     vdW  Elec       q    Type
REMARK                         _______ _______ _______ _____ _____    ______ ____
ROOT
ATOM      1  C   UNL     1      -0.692  10.596  19.711  0.00  0.00    +0.000 A 
ATOM      2  C   UNL     1       0.068   9.467  19.373  0.00  0.00    +0.000 A 
ATOM      3  C   UNL     1       0.805   8.824  20.362  0.00  0.00    +0.000 A 
ATOM      4  N   UNL     1       0.818   9.193  21.659  0.00  0.00    +0.000 NA
ATOM      5  C   UNL     1       0.054  10.263  21.936  0.00  0.00    +0.000 A 
ATOM      6  O   UNL     1      -0.060  10.791  23.183  0.00  0.00    +0.000 OA
ATOM      7  N   UNL     1      -0.895  11.893  23.152  0.00  0.00    +0.000 NA
ATOM      8  C   UNL     1      -1.288  12.017  21.877  0.00  0.00    +0.000 A 
ATOM      9  C   UNL     1      -2.200  13.127  21.517  0.00  0.00    +0.000 C 
ATOM     10  C   UNL     1      -0.716  11.005  21.054  0.00  0.00    +0.000 A 
ENDROOT
BRANCH   3  11
ATOM     11  C   UNL     1       1.672   7.710  20.002  0.00  0.00    +0.000 A 
ATOM     12  C   UNL     1       1.889   6.463  20.659  0.00  0.00    +0.000 A 
ATOM     13  C   UNL     1       2.718   5.725  19.843  0.00  0.00    +0.000 A 
ATOM     14  C   UNL     1       3.269   4.357  19.915  0.00  0.00    +0.000 C 
ATOM     15  O   UNL     1       3.054   6.447  18.743  0.00  0.00    +0.000 OA
ATOM     16  C   UNL     1       2.424   7.652  18.840  0.00  0.00    +0.000 A 
ATOM     17  C   UNL     1       2.643   8.580  17.706  0.00  0.00    +0.000 C 
ENDBRANCH   3  11
BRANCH   1  19
ATOM     18  N   UNL     1      -2.546  10.649  18.152  0.00  0.00    +0.000 N 
ATOM     19  C   UNL     1      -1.459  11.310  18.673  0.00  0.00    +0.000 C 
ATOM     20  O   UNL     1      -1.108  12.421  18.304  0.00  0.00    +0.000 OA
ATOM     21  H   UNL     1      -2.714   9.665  18.339  0.00  0.00    +0.000 HD
BRANCH  18  22
ATOM     22  C   UNL     1      -3.329  11.236  17.074  0.00  0.00    +0.000 C 
BRANCH  22  23
ATOM     23  C   UNL     1      -4.766  11.473  17.505  0.00  0.00    +0.000 A 
ATOM     24  C   UNL     1      -5.383  10.558  18.373  0.00  0.00    +0.000 A 
ATOM     25  C   UNL     1      -6.703  10.747  18.787  0.00  0.00    +0.000 A 
ATOM     26  C   UNL     1      -7.424  11.847  18.333  0.00  0.00    +0.000 A 
ATOM     27  C   UNL     1      -6.829  12.762  17.467  0.00  0.00    +0.000 A 
ATOM     28  C   UNL     1      -5.504  12.580  17.056  0.00  0.00    +0.000 A 
ENDBRANCH  22  23
BRANCH  22  31
ATOM     29  C   UNL     1      -4.129   9.967  13.553  0.00  0.00    +0.000 C 
ATOM     30  N   UNL     1      -4.133  10.653  14.819  0.00  0.00    +0.000 N 
ATOM     31  C   UNL     1      -3.227  10.344  15.815  0.00  0.00    +0.000 C 
ATOM     32  O   UNL     1      -2.388   9.447  15.709  0.00  0.00    +0.000 OA
ATOM     33  H   UNL     1      -4.767  11.432  14.948  0.00  0.00    +0.000 HD
ENDBRANCH  22  31
ENDBRANCH  18  22
ENDBRANCH   1  19
TORSDOF 5
ENDMDL
