MODEL 1
REMARK VINA RESULT:      -8.5      0.000      0.000
REMARK  Name = 
REMARK  7 active torsions:
REMARK  status: ('A' for Active; 'I' for Inactive)
REMARK    1  A    between atoms: C_1  and  C_2
REMARK    2  A    between atoms: C_5  and  C_6
REMARK    3  A    between atoms: N_8  and  C_9
REMARK    4  A    between atoms: C_11  and  N_12
REMARK    5  A    between atoms: N_15  and  C_16
REMARK    6  A    between atoms: C_20  and  N_21
REMARK    7  A    between atoms: C_24  and  C_25
REMARK                            x       y       z     vdW  Elec       q    Type
REMARK                         _______ _______ _______ _____ _____    ______ ____
ROOT
ATOM      1  C   UNL     1       7.278   6.825  17.745  0.00  0.00    +0.000 A 
ATOM      2  C   UNL     1       6.274   6.310  18.575  0.00  0.00    +0.000 A 
ATOM      3  C   UNL     1       5.362   5.336  18.151  0.00  0.00    +0.000 A 
ATOM      4  C   UNL     1       5.440   4.915  16.829  0.00  0.00    +0.000 A 
ATOM      5  C   UNL     1       6.449   5.383  15.986  0.00  0.00    +0.000 A 
ATOM      6  C   UNL     1       7.373   6.339  16.440  0.00  0.00    +0.000 A 
ENDROOT
BRANCH   3   7
ATOM      7  N   UNL     1       4.483   4.721  19.013  0.00  0.00    +0.000 N 
ATOM      8  C   UNL     1       4.699   3.336  19.452  0.00  0.00    +0.000 C 
ATOM      9  C   UNL     1       3.333   2.620  19.568  0.00  0.00    +0.000 C 
ATOM     10  N   UNL     1       2.400   3.341  20.467  0.00  0.00    +0.000 NA
ATOM     11  C   UNL     1       1.128   2.633  20.560  0.00  0.00    +0.000 C 
ATOM     12  C   UNL     1       2.207   4.719  19.955  0.00  0.00    +0.000 C 
ATOM     13  C   UNL     1       3.539   5.494  19.831  0.00  0.00    +0.000 C 
ENDBRANCH   3   7
BRANCH   5  14
ATOM     14  N   UNL     1       6.551   4.834  14.691  0.00  0.00    +0.000 N 
ATOM     15  C   UNL     1       7.487   5.150  13.731  0.00  0.00    +0.000 A 
ATOM     16  N   UNL     1       7.322   4.458  12.627  0.00  0.00    +0.000 NA
ATOM     17  C   UNL     1       6.224   3.672  12.857  0.00  0.00    +0.000 A 
ATOM     18  C   UNL     1       5.707   2.763  11.819  0.00  0.00    +0.000 C 
ATOM     19  C   UNL     1       5.728   3.894  14.123  0.00  0.00    +0.000 A 
ENDBRANCH   5  14
BRANCH   1  22
ATOM     20  C   UNL     1       8.038   9.179  17.953  0.00  0.00    +0.000 C 
ATOM     21  O   UNL     1       7.086   9.707  17.377  0.00  0.00    +0.000 OA
ATOM     22  N   UNL     1       8.194   7.818  18.188  0.00  0.00    +0.000 N 
ATOM     23  H   UNL     1       8.917   7.524  18.831  0.00  0.00    +0.000 HD
BRANCH  20  28
ATOM     24  C   UNL     1      12.203  12.720  19.875  0.00  0.00    +0.000 C 
ATOM     25  C   UNL     1      11.113  11.805  19.396  0.00  0.00    +0.000 A 
ATOM     26  C   UNL     1      10.903  11.609  18.030  0.00  0.00    +0.000 A 
ATOM     27  C   UNL     1       9.886  10.760  17.597  0.00  0.00    +0.000 A 
ATOM     28  C   UNL     1       9.057  10.100  18.517  0.00  0.00    +0.000 A 
ATOM     29  C   UNL     1       9.271  10.277  19.886  0.00  0.00    +0.000 A 
ATOM     30  C   UNL     1      10.296  11.131  20.318  0.00  0.00    +0.000 A 
ENDBRANCH  20  28
ENDBRANCH   1  22
TORSDOF 4
ENDMDL
MODEL 2
REMARK VINA RESULT:      -8.4      1.256      1.750
REMARK  Name = 
REMARK  7 active torsions:
REMARK  status: ('A' for Active; 'I' for Inactive)
REMARK    1  A    between atoms: C_1  and  C_2
REMARK    2  A    between atoms: C_5  and  C_6
REMARK    3  A    between atoms: N_8  and  C_9
REMARK    4  A    between atoms: C_11  and  N_12
REMARK    5  A    between atoms: N_15  and  C_16
REMARK    6  A    between atoms: C_20  and  N_21
REMARK    7  A    between atoms: C_24  and  C_25
REMARK                            x       y       z     vdW  Elec       q    Type
REMARK                         _______ _______ _______ _____ _____    ______ ____
ROOT
ATOM      1  C   UNL     1       6.185   6.985  16.849  0.00  0.00    +0.000 A 
ATOM      2  C   UNL     1       5.241   6.383  17.691  0.00  0.00    +0.000 A 
ATOM      3  C   UNL     1       4.581   5.192  17.363  0.00  0.00    +0.000 A 
ATOM      4  C   UNL     1       4.847   4.629  16.121  0.00  0.00    +0.000 A 
ATOM      5  C   UNL     1       5.806   5.186  15.274  0.00  0.00    +0.000 A 
ATOM      6  C   UNL     1       6.481   6.365  15.633  0.00  0.00    +0.000 A 
ENDROOT
BRANCH   3   7
ATOM      7  N   UNL     1       3.776   4.523  18.257  0.00  0.00    +0.000 N 
ATOM      8  C   UNL     1       2.686   5.215  18.958  0.00  0.00    +0.000 C 
ATOM      9  C   UNL     1       2.581   4.667  20.401  0.00  0.00    +0.000 C 
ATOM     10  N   UNL     1       2.403   3.195  20.427  0.00  0.00    +0.000 NA
ATOM     11  C   UNL     1       2.297   2.716  21.801  0.00  0.00    +0.000 C 
ATOM     12  C   UNL     1       3.545   2.560  19.727  0.00  0.00    +0.000 C 
ATOM     13  C   UNL     1       3.694   3.056  18.270  0.00  0.00    +0.000 C 
ENDBRANCH   3   7
BRANCH   5  14
ATOM     14  N   UNL     1       6.120   4.508  14.077  0.00  0.00    +0.000 N 
ATOM     15  C   UNL     1       7.182   4.761  13.238  0.00  0.00    +0.000 A 
ATOM     16  N   UNL     1       7.208   3.950  12.205  0.00  0.00    +0.000 NA
ATOM     17  C   UNL     1       6.109   3.144  12.356  0.00  0.00    +0.000 A 
ATOM     18  C   UNL     1       5.782   2.108  11.360  0.00  0.00    +0.000 C 
ATOM     19  C   UNL     1       5.419   3.477  13.502  0.00  0.00    +0.000 A 
ENDBRANCH   5  14
BRANCH   1  22
ATOM     20  C   UNL     1       7.905   8.278  18.085  0.00  0.00    +0.000 C 
ATOM     21  O   UNL     1       8.438   7.328  18.661  0.00  0.00    +0.000 OA
ATOM     22  N   UNL     1       6.844   8.196  17.191  0.00  0.00    +0.000 N 
ATOM     23  H   UNL     1       6.619   9.016  16.642  0.00  0.00    +0.000 HD
BRANCH  20  28
ATOM     24  C   UNL     1      10.334  13.399  19.291  0.00  0.00    +0.000 C 
ATOM     25  C   UNL     1       9.702  12.079  18.957  0.00  0.00    +0.000 A 
ATOM     26  C   UNL     1       9.959  10.953  19.741  0.00  0.00    +0.000 A 
ATOM     27  C   UNL     1       9.370   9.731  19.421  0.00  0.00    +0.000 A 
ATOM     28  C   UNL     1       8.522   9.610  18.309  0.00  0.00    +0.000 A 
ATOM     29  C   UNL     1       8.246  10.735  17.528  0.00  0.00    +0.000 A 
ATOM     30  C   UNL     1       8.839  11.962  17.855  0.00  0.00    +0.000 A 
ENDBRANCH  20  28
ENDBRANCH   1  22
TORSDOF 4
ENDMDL
MODEL 3
REMARK VINA RESULT:      -8.2      0.557      1.065
REMARK  Name = 
REMARK  7 active torsions:
REMARK  status: ('A' for Active; 'I' for Inactive)
REMARK    1  A    between atoms: C_1  and  C_2
REMARK    2  A    between atoms: C_5  and  C_6
REMARK    3  A    between atoms: N_8  and  C_9
REMARK    4  A    between atoms: C_11  and  N_12
REMARK    5  A    between atoms: N_15  and  C_16
REMARK    6  A    between atoms: C_20  and  N_21
REMARK    7  A    between atoms: C_24  and  C_25
REMARK                            x       y       z     vdW  Elec       q    Type
REMARK                         _______ _______ _______ _____ _____    ______ ____
ROOT
ATOM      1  C   UNL     1       7.057   6.643  17.562  0.00  0.00    +0.000 A 
ATOM      2  C   UNL     1       5.990   6.129  18.310  0.00  0.00    +0.000 A 
ATOM      3  C   UNL     1       5.101   5.170  17.808  0.00  0.00    +0.000 A 
ATOM      4  C   UNL     1       5.270   4.764  16.490  0.00  0.00    +0.000 A 
ATOM      5  C   UNL     1       6.343   5.232  15.729  0.00  0.00    +0.000 A 
ATOM      6  C   UNL     1       7.241   6.172  16.261  0.00  0.00    +0.000 A 
ENDROOT
BRANCH   3   7
ATOM      7  N   UNL     1       4.156   4.554  18.596  0.00  0.00    +0.000 N 
ATOM      8  C   UNL     1       2.961   5.278  19.049  0.00  0.00    +0.000 C 
ATOM      9  C   UNL     1       2.610   4.830  20.488  0.00  0.00    +0.000 C 
ATOM     10  N   UNL     1       2.431   3.362  20.586  0.00  0.00    +0.000 NA
ATOM     11  C   UNL     1       2.091   2.977  21.952  0.00  0.00    +0.000 C 
ATOM     12  C   UNL     1       3.677   2.694  20.139  0.00  0.00    +0.000 C 
ATOM     13  C   UNL     1       4.073   3.091  18.698  0.00  0.00    +0.000 C 
ENDBRANCH   3   7
BRANCH   5  14
ATOM     14  N   UNL     1       6.532   4.698  14.437  0.00  0.00    +0.000 N 
ATOM     15  C   UNL     1       7.476   5.089  13.512  0.00  0.00    +0.000 A 
ATOM     16  N   UNL     1       7.404   4.391  12.401  0.00  0.00    +0.000 NA
ATOM     17  C   UNL     1       6.361   3.522  12.591  0.00  0.00    +0.000 A 
ATOM     18  C   UNL     1       5.953   2.581  11.533  0.00  0.00    +0.000 C 
ATOM     19  C   UNL     1       5.804   3.700  13.838  0.00  0.00    +0.000 A 
ENDBRANCH   5  14
BRANCH   1  22
ATOM     20  C   UNL     1       7.872   8.976  17.789  0.00  0.00    +0.000 C 
ATOM     21  O   UNL     1       7.017   9.515  17.085  0.00  0.00    +0.000 OA
ATOM     22  N   UNL     1       7.947   7.620  18.082  0.00  0.00    +0.000 N 
ATOM     23  H   UNL     1       8.577   7.325  18.819  0.00  0.00    +0.000 HD
BRANCH  20  28
ATOM     24  C   UNL     1      11.869  12.501  20.064  0.00  0.00    +0.000 C 
ATOM     25  C   UNL     1      10.823  11.587  19.494  0.00  0.00    +0.000 A 
ATOM     26  C   UNL     1      10.607  11.531  18.116  0.00  0.00    +0.000 A 
ATOM     27  C   UNL     1       9.632  10.682  17.598  0.00  0.00    +0.000 A 
ATOM     28  C   UNL     1       8.848   9.882  18.445  0.00  0.00    +0.000 A 
ATOM     29  C   UNL     1       9.068   9.920  19.824  0.00  0.00    +0.000 A 
ATOM     30  C   UNL     1      10.052  10.774  20.341  0.00  0.00    +0.000 A 
ENDBRANCH  20  28
ENDBRANCH   1  22
TORSDOF 4
ENDMDL
MODEL 4
REMARK VINA RESULT:      -8.1      7.409     10.353
REMARK  Name = 
REMARK  7 active torsions:
REMARK  status: ('A' for Active; 'I' for Inactive)
REMARK    1  A    between atoms: C_1  and  C_2
REMARK    2  A    between atoms: C_5  and  C_6
REMARK    3  A    between atoms: N_8  and  C_9
REMARK    4  A    between atoms: C_11  and  N_12
REMARK    5  A    between atoms: N_15  and  C_16
REMARK    6  A    between atoms: C_20  and  N_21
REMARK    7  A    between atoms: C_24  and  C_25
REMARK                            x       y       z     vdW  Elec       q    Type
REMARK                         _______ _______ _______ _____ _____    ______ ____
ROOT
ATOM      1  C   UNL     1       0.784   9.933  18.251  0.00  0.00    +0.000 A 
ATOM      2  C   UNL     1       1.225  10.912  19.151  0.00  0.00    +0.000 A 
ATOM      3  C   UNL     1       0.419  11.979  19.568  0.00  0.00    +0.000 A 
ATOM      4  C   UNL     1      -0.850  12.083  19.011  0.00  0.00    +0.000 A 
ATOM      5  C   UNL     1      -1.331  11.106  18.139  0.00  0.00    +0.000 A 
ATOM      6  C   UNL     1      -0.518  10.026  17.756  0.00  0.00    +0.000 A 
ENDROOT
BRANCH   3   7
ATOM      7  N   UNL     1       0.799  12.845  20.568  0.00  0.00    +0.000 N 
ATOM      8  C   UNL     1      -0.048  13.054  21.750  0.00  0.00    +0.000 C 
ATOM      9  C   UNL     1       0.029  14.539  22.175  0.00  0.00    +0.000 C 
ATOM     10  N   UNL     1       1.425  14.976  22.418  0.00  0.00    +0.000 NA
ATOM     11  C   UNL     1       1.459  16.376  22.827  0.00  0.00    +0.000 C 
ATOM     12  C   UNL     1       2.218  14.762  21.184  0.00  0.00    +0.000 C 
ATOM     13  C   UNL     1       2.192  13.289  20.714  0.00  0.00    +0.000 C 
ENDBRANCH   3   7
BRANCH   5  14
ATOM     14  N   UNL     1      -2.667  11.200  17.696  0.00  0.00    +0.000 N 
ATOM     15  C   UNL     1      -3.131  10.981  16.418  0.00  0.00    +0.000 A 
ATOM     16  N   UNL     1      -4.432  11.138  16.325  0.00  0.00    +0.000 NA
ATOM     17  C   UNL     1      -4.840  11.496  17.584  0.00  0.00    +0.000 A 
ATOM     18  C   UNL     1      -6.255  11.790  17.871  0.00  0.00    +0.000 C 
ATOM     19  C   UNL     1      -3.764  11.547  18.444  0.00  0.00    +0.000 A 
ENDBRANCH   5  14
BRANCH   1  22
ATOM     20  C   UNL     1       2.137   7.900  18.692  0.00  0.00    +0.000 C 
ATOM     21  O   UNL     1       1.926   7.826  19.904  0.00  0.00    +0.000 OA
ATOM     22  N   UNL     1       1.614   8.858  17.833  0.00  0.00    +0.000 N 
ATOM     23  H   UNL     1       1.704   8.706  16.837  0.00  0.00    +0.000 HD
BRANCH  20  28
ATOM     24  C   UNL     1       5.423   3.865  16.142  0.00  0.00    +0.000 C 
ATOM     25  C   UNL     1       4.564   4.895  16.816  0.00  0.00    +0.000 A 
ATOM     26  C   UNL     1       4.884   6.251  16.731  0.00  0.00    +0.000 A 
ATOM     27  C   UNL     1       4.082   7.198  17.363  0.00  0.00    +0.000 A 
ATOM     28  C   UNL     1       2.952   6.809  18.100  0.00  0.00    +0.000 A 
ATOM     29  C   UNL     1       2.614   5.456  18.178  0.00  0.00    +0.000 A 
ATOM     30  C   UNL     1       3.423   4.506  17.538  0.00  0.00    +0.000 A 
ENDBRANCH  20  28
ENDBRANCH   1  22
TORSDOF 4
ENDMDL
MODEL 5
REMARK VINA RESULT:      -8.1      1.080      1.163
REMARK  Name = 
REMARK  7 active torsions:
REMARK  status: ('A' for Active; 'I' for Inactive)
REMARK    1  A    between atoms: C_1  and  C_2
REMARK    2  A    between atoms: C_5  and  C_6
REMARK    3  A    between atoms: N_8  and  C_9
REMARK    4  A    between atoms: C_11  and  N_12
REMARK    5  A    between atoms: N_15  and  C_16
REMARK    6  A    between atoms: C_20  and  N_21
REMARK    7  A    between atoms: C_24  and  C_25
REMARK                            x       y       z     vdW  Elec       q    Type
REMARK                         _______ _______ _______ _____ _____    ______ ____
ROOT
ATOM      1  C   UNL     1       6.430   7.201  17.067  0.00  0.00    +0.000 A 
ATOM      2  C   UNL     1       5.603   6.576  18.010  0.00  0.00    +0.000 A 
ATOM      3  C   UNL     1       4.954   5.360  17.764  0.00  0.00    +0.000 A 
ATOM      4  C   UNL     1       5.106   4.792  16.505  0.00  0.00    +0.000 A 
ATOM      5  C   UNL     1       5.949   5.372  15.556  0.00  0.00    +0.000 A 
ATOM      6  C   UNL     1       6.616   6.578  15.832  0.00  0.00    +0.000 A 
ENDROOT
BRANCH   3   7
ATOM      7  N   UNL     1       4.275   4.673  18.744  0.00  0.00    +0.000 N 
ATOM      8  C   UNL     1       4.536   3.248  18.989  0.00  0.00    +0.000 C 
ATOM      9  C   UNL     1       3.208   2.543  19.351  0.00  0.00    +0.000 C 
ATOM     10  N   UNL     1       2.533   3.183  20.505  0.00  0.00    +0.000 NA
ATOM     11  C   UNL     1       1.291   2.486  20.824  0.00  0.00    +0.000 C 
ATOM     12  C   UNL     1       2.277   4.607  20.185  0.00  0.00    +0.000 C 
ATOM     13  C   UNL     1       3.573   5.373  19.829  0.00  0.00    +0.000 C 
ENDBRANCH   3   7
BRANCH   5  14
ATOM     14  N   UNL     1       6.157   4.692  14.337  0.00  0.00    +0.000 N 
ATOM     15  C   UNL     1       7.212   4.858  13.468  0.00  0.00    +0.000 A 
ATOM     16  N   UNL     1       7.125   4.069  12.421  0.00  0.00    +0.000 NA
ATOM     17  C   UNL     1       5.958   3.371  12.594  0.00  0.00    +0.000 A 
ATOM     18  C   UNL     1       5.501   2.393  11.592  0.00  0.00    +0.000 C 
ATOM     19  C   UNL     1       5.341   3.746  13.768  0.00  0.00    +0.000 A 
ENDBRANCH   5  14
BRANCH   1  22
ATOM     20  C   UNL     1       8.123   8.593  18.231  0.00  0.00    +0.000 C 
ATOM     21  O   UNL     1       8.648   7.692  18.888  0.00  0.00    +0.000 OA
ATOM     22  N   UNL     1       7.078   8.438  17.328  0.00  0.00    +0.000 N 
ATOM     23  H   UNL     1       6.860   9.212  16.714  0.00  0.00    +0.000 HD
BRANCH  20  28
ATOM     24  C   UNL     1      10.378  13.927  18.434  0.00  0.00    +0.000 C 
ATOM     25  C   UNL     1       9.803  12.540  18.401  0.00  0.00    +0.000 A 
ATOM     26  C   UNL     1       8.679  12.258  17.623  0.00  0.00    +0.000 A 
ATOM     27  C   UNL     1       8.152  10.969  17.602  0.00  0.00    +0.000 A 
ATOM     28  C   UNL     1       8.730   9.941  18.364  0.00  0.00    +0.000 A 
ATOM     29  C   UNL     1       9.865  10.210  19.132  0.00  0.00    +0.000 A 
ATOM     30  C   UNL     1      10.393  11.509  19.149  0.00  0.00    +0.000 A 
ENDBRANCH  20  28
ENDBRANCH   1  22
TORSDOF 4
ENDMDL
MODEL 6
REMARK VINA RESULT:      -7.9      8.066     10.844
REMARK  Name = 
REMARK  7 active torsions:
REMARK  status: ('A' for Active; 'I' for Inactive)
REMARK    1  A    between atoms: C_1  and  C_2
REMARK    2  A    between atoms: C_5  and  C_6
REMARK    3  A    between atoms: N_8  and  C_9
REMARK    4  A    between atoms: C_11  and  N_12
REMARK    5  A    between atoms: N_15  and  C_16
REMARK    6  A    between atoms: C_20  and  N_21
REMARK    7  A    between atoms: C_24  and  C_25
REMARK                            x       y       z     vdW  Elec       q    Type
REMARK                         _______ _______ _______ _____ _____    ______ ____
ROOT
ATOM      1  C   UNL     1       0.112  10.181  19.648  0.00  0.00    +0.000 A 
ATOM      2  C   UNL     1       0.395  11.221  20.543  0.00  0.00    +0.000 A 
ATOM      3  C   UNL     1      -0.429  12.343  20.691  0.00  0.00    +0.000 A 
ATOM      4  C   UNL     1      -1.543  12.436  19.865  0.00  0.00    +0.000 A 
ATOM      5  C   UNL     1      -1.872  11.402  18.988  0.00  0.00    +0.000 A 
ATOM      6  C   UNL     1      -1.047  10.270  18.875  0.00  0.00    +0.000 A 
ENDROOT
BRANCH   3   7
ATOM      7  N   UNL     1      -0.232  13.279  21.679  0.00  0.00    +0.000 N 
ATOM      8  C   UNL     1      -0.930  13.178  22.968  0.00  0.00    +0.000 C 
ATOM      9  C   UNL     1      -1.302  14.597  23.458  0.00  0.00    +0.000 C 
ATOM     10  N   UNL     1      -0.117  15.484  23.546  0.00  0.00    +0.000 NA
ATOM     11  C   UNL     1      -0.504  16.809  24.021  0.00  0.00    +0.000 C 
ATOM     12  C   UNL     1       0.524  15.563  22.212  0.00  0.00    +0.000 C 
ATOM     13  C   UNL     1       0.935  14.173  21.672  0.00  0.00    +0.000 C 
ENDBRANCH   3   7
BRANCH   5  14
ATOM     14  N   UNL     1      -3.076  11.497  18.259  0.00  0.00    +0.000 N 
ATOM     15  C   UNL     1      -3.244  11.280  16.909  0.00  0.00    +0.000 A 
ATOM     16  N   UNL     1      -4.492  11.438  16.530  0.00  0.00    +0.000 NA
ATOM     17  C   UNL     1      -5.169  11.793  17.667  0.00  0.00    +0.000 A 
ATOM     18  C   UNL     1      -6.613  12.086  17.632  0.00  0.00    +0.000 C 
ATOM     19  C   UNL     1      -4.312  11.843  18.745  0.00  0.00    +0.000 A 
ENDBRANCH   5  14
BRANCH   1  22
ATOM     20  C   UNL     1       1.801   8.842  18.418  0.00  0.00    +0.000 C 
ATOM     21  O   UNL     1       1.956   9.611  17.468  0.00  0.00    +0.000 OA
ATOM     22  N   UNL     1       0.960   9.050  19.504  0.00  0.00    +0.000 N 
ATOM     23  H   UNL     1       1.059   8.443  20.307  0.00  0.00    +0.000 HD
BRANCH  20  28
ATOM     24  C   UNL     1       5.123   4.110  18.805  0.00  0.00    +0.000 C 
ATOM     25  C   UNL     1       4.267   5.337  18.683  0.00  0.00    +0.000 A 
ATOM     26  C   UNL     1       3.258   5.592  19.612  0.00  0.00    +0.000 A 
ATOM     27  C   UNL     1       2.467   6.732  19.488  0.00  0.00    +0.000 A 
ATOM     28  C   UNL     1       2.663   7.633  18.430  0.00  0.00    +0.000 A 
ATOM     29  C   UNL     1       3.682   7.396  17.504  0.00  0.00    +0.000 A 
ATOM     30  C   UNL     1       4.476   6.248  17.634  0.00  0.00    +0.000 A 
ENDBRANCH  20  28
ENDBRANCH   1  22
TORSDOF 4
ENDMDL
MODEL 7
REMARK VINA RESULT:      -7.8      7.517     10.717
REMARK  Name = 
REMARK  7 active torsions:
REMARK  status: ('A' for Active; 'I' for Inactive)
REMARK    1  A    between atoms: C_1  and  C_2
REMARK    2  A    between atoms: C_5  and  C_6
REMARK    3  A    between atoms: N_8  and  C_9
REMARK    4  A    between atoms: C_11  and  N_12
REMARK    5  A    between atoms: N_15  and  C_16
REMARK    6  A    between atoms: C_20  and  N_21
REMARK    7  A    between atoms: C_24  and  C_25
REMARK                            x       y       z     vdW  Elec       q    Type
REMARK                         _______ _______ _______ _____ _____    ______ ____
ROOT
ATOM      1  C   UNL     1       0.476  10.218  18.953  0.00  0.00    +0.000 A 
ATOM      2  C   UNL     1       1.044  11.461  19.258  0.00  0.00    +0.000 A 
ATOM      3  C   UNL     1       0.372  12.673  19.059  0.00  0.00    +0.000 A 
ATOM      4  C   UNL     1      -0.892  12.621  18.484  0.00  0.00    +0.000 A 
ATOM      5  C   UNL     1      -1.500  11.397  18.202  0.00  0.00    +0.000 A 
ATOM      6  C   UNL     1      -0.820  10.190  18.435  0.00  0.00    +0.000 A 
ENDROOT
BRANCH   3   7
ATOM      7  N   UNL     1       0.869  13.876  19.505  0.00  0.00    +0.000 N 
ATOM      8  C   UNL     1       0.401  15.147  18.934  0.00  0.00    +0.000 C 
ATOM      9  C   UNL     1       1.588  16.134  18.849  0.00  0.00    +0.000 C 
ATOM     10  N   UNL     1       2.244  16.333  20.164  0.00  0.00    +0.000 NA
ATOM     11  C   UNL     1       3.351  17.276  20.047  0.00  0.00    +0.000 C 
ATOM     12  C   UNL     1       2.714  15.021  20.670  0.00  0.00    +0.000 C 
ATOM     13  C   UNL     1       1.566  13.992  20.793  0.00  0.00    +0.000 C 
ENDBRANCH   3   7
BRANCH   5  14
ATOM     14  N   UNL     1      -2.829  11.400  17.727  0.00  0.00    +0.000 N 
ATOM     15  C   UNL     1      -3.253  11.087  16.455  0.00  0.00    +0.000 A 
ATOM     16  N   UNL     1      -4.557  11.175  16.328  0.00  0.00    +0.000 NA
ATOM     17  C   UNL     1      -5.010  11.582  17.556  0.00  0.00    +0.000 A 
ATOM     18  C   UNL     1      -6.444  11.821  17.797  0.00  0.00    +0.000 C 
ATOM     19  C   UNL     1      -3.958  11.735  18.432  0.00  0.00    +0.000 A 
ENDBRANCH   5  14
BRANCH   1  22
ATOM     20  C   UNL     1       2.041   8.433  18.227  0.00  0.00    +0.000 C 
ATOM     21  O   UNL     1       2.353   8.925  17.142  0.00  0.00    +0.000 OA
ATOM     22  N   UNL     1       1.172   8.996  19.155  0.00  0.00    +0.000 N 
ATOM     23  H   UNL     1       1.141   8.594  20.083  0.00  0.00    +0.000 HD
BRANCH  20  28
ATOM     24  C   UNL     1       4.810   3.468  19.349  0.00  0.00    +0.000 C 
ATOM     25  C   UNL     1       4.086   4.756  19.079  0.00  0.00    +0.000 A 
ATOM     26  C   UNL     1       4.440   5.552  17.989  0.00  0.00    +0.000 A 
ATOM     27  C   UNL     1       3.764   6.747  17.750  0.00  0.00    +0.000 A 
ATOM     28  C   UNL     1       2.730   7.172  18.599  0.00  0.00    +0.000 A 
ATOM     29  C   UNL     1       2.358   6.374  19.683  0.00  0.00    +0.000 A 
ATOM     30  C   UNL     1       3.040   5.171  19.919  0.00  0.00    +0.000 A 
ENDBRANCH  20  28
ENDBRANCH   1  22
TORSDOF 4
ENDMDL
MODEL 8
REMARK VINA RESULT:      -7.8      7.790     10.549
REMARK  Name = 
REMARK  7 active torsions:
REMARK  status: ('A' for Active; 'I' for Inactive)
REMARK    1  A    between atoms: C_1  and  C_2
REMARK    2  A    between atoms: C_5  and  C_6
REMARK    3  A    between atoms: N_8  and  C_9
REMARK    4  A    between atoms: C_11  and  N_12
REMARK    5  A    between atoms: N_15  and  C_16
REMARK    6  A    between atoms: C_20  and  N_21
REMARK    7  A    between atoms: C_24  and  C_25
REMARK                            x       y       z     vdW  Elec       q    Type
REMARK                         _______ _______ _______ _____ _____    ______ ____
ROOT
ATOM      1  C   UNL     1       0.358  10.508  19.130  0.00  0.00    +0.000 A 
ATOM      2  C   UNL     1      -1.042  10.524  19.073  0.00  0.00    +0.000 A 
ATOM      3  C   UNL     1      -1.783  11.704  18.935  0.00  0.00    +0.000 A 
ATOM      4  C   UNL     1      -1.083  12.904  18.909  0.00  0.00    +0.000 A 
ATOM      5  C   UNL     1       0.312  12.920  18.930  0.00  0.00    +0.000 A 
ATOM      6  C   UNL     1       1.039  11.723  19.039  0.00  0.00    +0.000 A 
ENDROOT
BRANCH   3   7
ATOM      7  N   UNL     1      -3.143  11.702  18.721  0.00  0.00    +0.000 N 
ATOM      8  C   UNL     1      -3.744  10.849  17.686  0.00  0.00    +0.000 C 
ATOM      9  C   UNL     1      -4.922  11.604  17.027  0.00  0.00    +0.000 C 
ATOM     10  N   UNL     1      -5.926  12.048  18.023  0.00  0.00    +0.000 NA
ATOM     11  C   UNL     1      -7.026  12.746  17.365  0.00  0.00    +0.000 C 
ATOM     12  C   UNL     1      -5.262  12.921  19.020  0.00  0.00    +0.000 C 
ATOM     13  C   UNL     1      -4.081  12.215  19.727  0.00  0.00    +0.000 C 
ENDBRANCH   3   7
BRANCH   5  14
ATOM     14  N   UNL     1       0.972  14.159  18.784  0.00  0.00    +0.000 N 
ATOM     15  C   UNL     1       0.416  15.411  18.918  0.00  0.00    +0.000 A 
ATOM     16  N   UNL     1       1.294  16.370  18.731  0.00  0.00    +0.000 NA
ATOM     17  C   UNL     1       2.469  15.727  18.441  0.00  0.00    +0.000 A 
ATOM     18  C   UNL     1       3.697  16.484  18.138  0.00  0.00    +0.000 C 
ATOM     19  C   UNL     1       2.290  14.361  18.461  0.00  0.00    +0.000 A 
ENDBRANCH   5  14
BRANCH   1  22
ATOM     20  C   UNL     1       1.879   8.744  18.272  0.00  0.00    +0.000 C 
ATOM     21  O   UNL     1       2.068   9.225  17.153  0.00  0.00    +0.000 OA
ATOM     22  N   UNL     1       1.097   9.303  19.276  0.00  0.00    +0.000 N 
ATOM     23  H   UNL     1       1.170   8.916  20.208  0.00  0.00    +0.000 HD
BRANCH  20  28
ATOM     24  C   UNL     1       4.872   3.865  19.173  0.00  0.00    +0.000 C 
ATOM     25  C   UNL     1       4.092   5.130  18.961  0.00  0.00    +0.000 A 
ATOM     26  C   UNL     1       4.356   5.950  17.862  0.00  0.00    +0.000 A 
ATOM     27  C   UNL     1       3.628   7.123  17.677  0.00  0.00    +0.000 A 
ATOM     28  C   UNL     1       2.630   7.504  18.589  0.00  0.00    +0.000 A 
ATOM     29  C   UNL     1       2.347   6.682  19.682  0.00  0.00    +0.000 A 
ATOM     30  C   UNL     1       3.082   5.501  19.864  0.00  0.00    +0.000 A 
ENDBRANCH  20  28
ENDBRANCH   1  22
TORSDOF 4
ENDMDL
MODEL 9
REMARK VINA RESULT:      -7.7      7.234      9.551
REMARK  Name = 
REMARK  7 active torsions:
REMARK  status: ('A' for Active; 'I' for Inactive)
REMARK    1  A    between atoms: C_1  and  C_2
REMARK    2  A    between atoms: C_5  and  C_6
REMARK    3  A    between atoms: N_8  and  C_9
REMARK    4  A    between atoms: C_11  and  N_12
REMARK    5  A    between atoms: N_15  and  C_16
REMARK    6  A    between atoms: C_20  and  N_21
REMARK    7  A    between atoms: C_24  and  C_25
REMARK                            x       y       z     vdW  Elec       q    Type
REMARK                         _______ _______ _______ _____ _____    ______ ____
ROOT
ATOM      1  C   UNL     1       1.012   9.634  18.592  0.00  0.00    +0.000 A 
ATOM      2  C   UNL     1       0.971  10.459  19.724  0.00  0.00    +0.000 A 
ATOM      3  C   UNL     1      -0.092  11.331  19.991  0.00  0.00    +0.000 A 
ATOM      4  C   UNL     1      -1.115  11.404  19.053  0.00  0.00    +0.000 A 
ATOM      5  C   UNL     1      -1.121  10.571  17.934  0.00  0.00    +0.000 A 
ATOM      6  C   UNL     1      -0.059   9.682  17.698  0.00  0.00    +0.000 A 
ENDROOT
BRANCH   3   7
ATOM      7  N   UNL     1      -0.202  12.019  21.177  0.00  0.00    +0.000 N 
ATOM      8  C   UNL     1      -0.784  11.385  22.368  0.00  0.00    +0.000 C 
ATOM      9  C   UNL     1      -1.610  12.432  23.151  0.00  0.00    +0.000 C 
ATOM     10  N   UNL     1      -0.804  13.626  23.503  0.00  0.00    +0.000 NA
ATOM     11  C   UNL     1      -1.611  14.587  24.248  0.00  0.00    +0.000 C 
ATOM     12  C   UNL     1      -0.269  14.231  22.260  0.00  0.00    +0.000 C 
ATOM     13  C   UNL     1       0.581  13.234  21.439  0.00  0.00    +0.000 C 
ENDBRANCH   3   7
BRANCH   5  14
ATOM     14  N   UNL     1      -2.241  10.606  17.077  0.00  0.00    +0.000 N 
ATOM     15  C   UNL     1      -3.474  11.155  17.352  0.00  0.00    +0.000 A 
ATOM     16  N   UNL     1      -4.309  11.037  16.344  0.00  0.00    +0.000 NA
ATOM     17  C   UNL     1      -3.608  10.367  15.375  0.00  0.00    +0.000 A 
ATOM     18  C   UNL     1      -4.232  10.020  14.086  0.00  0.00    +0.000 C 
ATOM     19  C   UNL     1      -2.331  10.085  15.810  0.00  0.00    +0.000 A 
ENDBRANCH   5  14
BRANCH   1  22
ATOM     20  C   UNL     1       2.372   7.614  19.070  0.00  0.00    +0.000 C 
ATOM     21  O   UNL     1       1.700   7.186  20.010  0.00  0.00    +0.000 OA
ATOM     22  N   UNL     1       2.100   8.758  18.330  0.00  0.00    +0.000 N 
ATOM     23  H   UNL     1       2.612   8.903  17.470  0.00  0.00    +0.000 HD
BRANCH  20  28
ATOM     24  C   UNL     1       6.771   4.398  17.097  0.00  0.00    +0.000 C 
ATOM     25  C   UNL     1       5.636   5.225  17.629  0.00  0.00    +0.000 A 
ATOM     26  C   UNL     1       5.139   6.302  16.893  0.00  0.00    +0.000 A 
ATOM     27  C   UNL     1       4.087   7.065  17.398  0.00  0.00    +0.000 A 
ATOM     28  C   UNL     1       3.520   6.772  18.648  0.00  0.00    +0.000 A 
ATOM     29  C   UNL     1       4.000   5.687  19.384  0.00  0.00    +0.000 A 
ATOM     30  C   UNL     1       5.057   4.921  18.872  0.00  0.00    +0.000 A 
ENDBRANCH  20  28
ENDBRANCH   1  22
TORSDOF 4
ENDMDL
