MODEL 1
REMARK VINA RESULT:      -7.3      0.000      0.000
REMARK  Name = 
REMARK  13 active torsions:
REMARK  status: ('A' for Active; 'I' for Inactive)
REMARK    1  A    between atoms: C_1  and  O_2
REMARK    2  A    between atoms: O_2  and  C_3
REMARK    3  A    between atoms: C_6  and  C_7
REMARK    4  A    between atoms: C_7  and  C_8
REMARK    5  A    between atoms: C_8  and  C_9
REMARK    6  A    between atoms: C_9  and  C_10
REMARK    7  A    between atoms: C_10  and  O_11
REMARK    8  A    between atoms: O_11  and  C_12
REMARK    9  A    between atoms: C_12  and  C_13
REMARK   10  A    between atoms: C_12  and  C_19
REMARK   11  A    between atoms: C_13  and  N_14
REMARK   12  A    between atoms: C_22  and  O_23
REMARK   13  A    between atoms: O_23  and  C_24
REMARK                            x       y       z     vdW  Elec       q    Type
REMARK                         _______ _______ _______ _____ _____    ______ ____
ROOT
ATOM      1  C   UNL     1       4.384   4.610  18.867  0.00  0.00    +0.000 C 
ENDROOT
BRANCH   1   2
ATOM      2  C   UNL     1       5.308   4.698  17.654  0.00  0.00    +0.000 A 
ATOM      3  C   UNL     1       6.383   5.597  17.615  0.00  0.00    +0.000 A 
ATOM      4  C   UNL     1       7.146   5.749  16.454  0.00  0.00    +0.000 A 
ATOM      5  C   UNL     1       6.865   4.997  15.315  0.00  0.00    +0.000 A 
ATOM      6  C   UNL     1       5.822   4.075  15.348  0.00  0.00    +0.000 A 
ATOM      7  C   UNL     1       5.066   3.909  16.515  0.00  0.00    +0.000 A 
BRANCH   5   8
ATOM      8  O   UNL     1       7.642   5.279  14.227  0.00  0.00    +0.000 OA
ATOM      9  C   UNL     1       7.248   4.664  13.007  0.00  0.00    +0.000 C 
ENDBRANCH   5   8
ENDBRANCH   1   2
BRANCH   1  10
ATOM     10  O   UNL     1       3.827   5.903  19.170  0.00  0.00    +0.000 OA
BRANCH  10  11
ATOM     11  C   UNL     1       2.753   6.293  18.321  0.00  0.00    +0.000 C 
BRANCH  11  12
ATOM     12  C   UNL     1       2.856   7.787  18.036  0.00  0.00    +0.000 C 
BRANCH  12  13
ATOM     13  C   UNL     1       1.783   8.597  18.772  0.00  0.00    +0.000 C 
BRANCH  13  14
ATOM     14  C   UNL     1       1.570   8.126  20.212  0.00  0.00    +0.000 C 
BRANCH  14  18
ATOM     15  C   UNL     1      -0.570  11.037  22.571  0.00  0.00    +0.000 A 
ATOM     16  C   UNL     1      -0.178  11.338  21.267  0.00  0.00    +0.000 A 
ATOM     17  C   UNL     1       0.509  10.396  20.499  0.00  0.00    +0.000 A 
ATOM     18  C   UNL     1       0.822   9.141  21.036  0.00  0.00    +0.000 A 
ATOM     19  C   UNL     1       0.450   8.852  22.353  0.00  0.00    +0.000 A 
ATOM     20  C   UNL     1      -0.246   9.797  23.118  0.00  0.00    +0.000 A 
BRANCH  15  22
ATOM     21  C   UNL     1      -1.992  12.919  22.405  0.00  0.00    +0.000 C 
ATOM     22  O   UNL     1      -1.225  12.045  23.225  0.00  0.00    +0.000 OA
ENDBRANCH  15  22
ENDBRANCH  14  18
ENDBRANCH  13  14
ENDBRANCH  12  13
ENDBRANCH  11  12
ENDBRANCH  10  11
ENDBRANCH   1  10
BRANCH   1  23
ATOM     23  C   UNL     1       3.286   3.537  18.671  0.00  0.00    +0.000 C 
BRANCH  23  24
ATOM     24  N   UNL     1       2.648   3.102  19.899  0.00  0.00    +0.000 N 
ATOM     25  C   UNL     1       1.305   2.969  20.117  0.00  0.00    +0.000 A 
ATOM     26  C   UNL     1       1.192   2.633  21.445  0.00  0.00    +0.000 A 
ATOM     27  N   UNL     1       2.426   2.565  22.036  0.00  0.00    +0.000 NA
ATOM     28  C   UNL     1       3.283   2.839  21.079  0.00  0.00    +0.000 A 
ENDBRANCH  23  24
ENDBRANCH   1  23
TORSDOF 11
ENDMDL
MODEL 2
REMARK VINA RESULT:      -7.2      5.248      8.402
REMARK  Name = 
REMARK  13 active torsions:
REMARK  status: ('A' for Active; 'I' for Inactive)
REMARK    1  A    between atoms: C_1  and  O_2
REMARK    2  A    between atoms: O_2  and  C_3
REMARK    3  A    between atoms: C_6  and  C_7
REMARK    4  A    between atoms: C_7  and  C_8
REMARK    5  A    between atoms: C_8  and  C_9
REMARK    6  A    between atoms: C_9  and  C_10
REMARK    7  A    between atoms: C_10  and  O_11
REMARK    8  A    between atoms: O_11  and  C_12
REMARK    9  A    between atoms: C_12  and  C_13
REMARK   10  A    between atoms: C_12  and  C_19
REMARK   11  A    between atoms: C_13  and  N_14
REMARK   12  A    between atoms: C_22  and  O_23
REMARK   13  A    between atoms: O_23  and  C_24
REMARK                            x       y       z     vdW  Elec       q    Type
REMARK                         _______ _______ _______ _____ _____    ______ ____
ROOT
ATOM      1  C   UNL     1       5.532   4.726  16.462  0.00  0.00    +0.000 C 
ENDROOT
BRANCH   1   2
ATOM      2  C   UNL     1       4.507   4.178  17.452  0.00  0.00    +0.000 A 
ATOM      3  C   UNL     1       3.162   4.007  17.097  0.00  0.00    +0.000 A 
ATOM      4  C   UNL     1       2.215   3.618  18.047  0.00  0.00    +0.000 A 
ATOM      5  C   UNL     1       2.590   3.374  19.367  0.00  0.00    +0.000 A 
ATOM      6  C   UNL     1       3.928   3.507  19.729  0.00  0.00    +0.000 A 
ATOM      7  C   UNL     1       4.882   3.881  18.775  0.00  0.00    +0.000 A 
BRANCH   5   8
ATOM      8  O   UNL     1       1.565   3.059  20.214  0.00  0.00    +0.000 OA
ATOM      9  C   UNL     1       1.875   3.087  21.601  0.00  0.00    +0.000 C 
ENDBRANCH   5   8
ENDBRANCH   1   2
BRANCH   1  10
ATOM     10  O   UNL     1       6.632   5.337  17.163  0.00  0.00    +0.000 OA
BRANCH  10  11
ATOM     11  C   UNL     1       6.581   6.759  17.211  0.00  0.00    +0.000 C 
BRANCH  11  12
ATOM     12  C   UNL     1       7.688   7.270  18.127  0.00  0.00    +0.000 C 
BRANCH  12  13
ATOM     13  C   UNL     1       8.132   8.691  17.769  0.00  0.00    +0.000 C 
BRANCH  13  14
ATOM     14  C   UNL     1       8.910   9.372  18.898  0.00  0.00    +0.000 C 
BRANCH  14  18
ATOM     15  C   UNL     1      10.121  13.378  17.848  0.00  0.00    +0.000 A 
ATOM     16  C   UNL     1       8.836  12.928  17.545  0.00  0.00    +0.000 A 
ATOM     17  C   UNL     1       8.439  11.635  17.889  0.00  0.00    +0.000 A 
ATOM     18  C   UNL     1       9.333  10.770  18.532  0.00  0.00    +0.000 A 
ATOM     19  C   UNL     1      10.629  11.216  18.812  0.00  0.00    +0.000 A 
ATOM     20  C   UNL     1      11.022  12.517  18.472  0.00  0.00    +0.000 A 
BRANCH  15  22
ATOM     21  C   UNL     1      11.753  14.930  17.128  0.00  0.00    +0.000 C 
ATOM     22  O   UNL     1      10.395  14.658  17.451  0.00  0.00    +0.000 OA
ENDBRANCH  15  22
ENDBRANCH  14  18
ENDBRANCH  13  14
ENDBRANCH  12  13
ENDBRANCH  11  12
ENDBRANCH  10  11
ENDBRANCH   1  10
BRANCH   1  23
ATOM     23  C   UNL     1       6.009   3.636  15.472  0.00  0.00    +0.000 C 
BRANCH  23  24
ATOM     24  N   UNL     1       6.513   4.150  14.213  0.00  0.00    +0.000 N 
ATOM     25  C   UNL     1       6.263   3.643  12.968  0.00  0.00    +0.000 A 
ATOM     26  C   UNL     1       7.033   4.399  12.116  0.00  0.00    +0.000 A 
ATOM     27  N   UNL     1       7.745   5.341  12.811  0.00  0.00    +0.000 NA
ATOM     28  C   UNL     1       7.402   5.176  14.067  0.00  0.00    +0.000 A 
ENDBRANCH  23  24
ENDBRANCH   1  23
TORSDOF 11
ENDMDL
MODEL 3
REMARK VINA RESULT:      -7.1      5.061      8.080
REMARK  Name = 
REMARK  13 active torsions:
REMARK  status: ('A' for Active; 'I' for Inactive)
REMARK    1  A    between atoms: C_1  and  O_2
REMARK    2  A    between atoms: O_2  and  C_3
REMARK    3  A    between atoms: C_6  and  C_7
REMARK    4  A    between atoms: C_7  and  C_8
REMARK    5  A    between atoms: C_8  and  C_9
REMARK    6  A    between atoms: C_9  and  C_10
REMARK    7  A    between atoms: C_10  and  O_11
REMARK    8  A    between atoms: O_11  and  C_12
REMARK    9  A    between atoms: C_12  and  C_13
REMARK   10  A    between atoms: C_12  and  C_19
REMARK   11  A    between atoms: C_13  and  N_14
REMARK   12  A    between atoms: C_22  and  O_23
REMARK   13  A    between atoms: O_23  and  C_24
REMARK                            x       y       z     vdW  Elec       q    Type
REMARK                         _______ _______ _______ _____ _____    ______ ____
ROOT
ATOM      1  C   UNL     1       5.244   5.453  16.074  0.00  0.00    +0.000 C 
ENDROOT
BRANCH   1   2
ATOM      2  C   UNL     1       4.248   4.781  17.016  0.00  0.00    +0.000 A 
ATOM      3  C   UNL     1       3.391   5.531  17.835  0.00  0.00    +0.000 A 
ATOM      4  C   UNL     1       2.571   4.903  18.776  0.00  0.00    +0.000 A 
ATOM      5  C   UNL     1       2.573   3.516  18.909  0.00  0.00    +0.000 A 
ATOM      6  C   UNL     1       3.393   2.754  18.081  0.00  0.00    +0.000 A 
ATOM      7  C   UNL     1       4.204   3.379  17.126  0.00  0.00    +0.000 A 
BRANCH   5   8
ATOM      8  O   UNL     1       1.773   3.026  19.903  0.00  0.00    +0.000 OA
ATOM      9  C   UNL     1       1.787   3.752  21.125  0.00  0.00    +0.000 C 
ENDBRANCH   5   8
ENDBRANCH   1   2
BRANCH   1  10
ATOM     10  O   UNL     1       5.762   6.658  16.667  0.00  0.00    +0.000 OA
BRANCH  10  11
ATOM     11  C   UNL     1       7.172   6.655  16.867  0.00  0.00    +0.000 C 
BRANCH  11  12
ATOM     12  C   UNL     1       7.469   6.895  18.344  0.00  0.00    +0.000 C 
BRANCH  12  13
ATOM     13  C   UNL     1       8.514   7.996  18.557  0.00  0.00    +0.000 C 
BRANCH  13  14
ATOM     14  C   UNL     1       8.107   9.329  17.925  0.00  0.00    +0.000 C 
BRANCH  14  18
ATOM     15  C   UNL     1      10.368  12.639  19.523  0.00  0.00    +0.000 A 
ATOM     16  C   UNL     1       9.721  12.756  18.293  0.00  0.00    +0.000 A 
ATOM     17  C   UNL     1       8.984  11.689  17.776  0.00  0.00    +0.000 A 
ATOM     18  C   UNL     1       8.896  10.484  18.484  0.00  0.00    +0.000 A 
ATOM     19  C   UNL     1       9.567  10.361  19.705  0.00  0.00    +0.000 A 
ATOM     20  C   UNL     1      10.300  11.437  20.224  0.00  0.00    +0.000 A 
BRANCH  15  22
ATOM     21  C   UNL     1      10.884  14.911  19.119  0.00  0.00    +0.000 C 
ATOM     22  O   UNL     1      11.067  13.747  19.917  0.00  0.00    +0.000 OA
ENDBRANCH  15  22
ENDBRANCH  14  18
ENDBRANCH  13  14
ENDBRANCH  12  13
ENDBRANCH  11  12
ENDBRANCH  10  11
ENDBRANCH   1  10
BRANCH   1  23
ATOM     23  C   UNL     1       6.372   4.483  15.650  0.00  0.00    +0.000 C 
BRANCH  23  24
ATOM     24  N   UNL     1       6.565   4.378  14.217  0.00  0.00    +0.000 N 
ATOM     25  C   UNL     1       5.883   3.559  13.360  0.00  0.00    +0.000 A 
ATOM     26  C   UNL     1       6.485   3.742  12.138  0.00  0.00    +0.000 A 
ATOM     27  N   UNL     1       7.515   4.640  12.234  0.00  0.00    +0.000 NA
ATOM     28  C   UNL     1       7.531   5.015  13.492  0.00  0.00    +0.000 A 
ENDBRANCH  23  24
ENDBRANCH   1  23
TORSDOF 11
ENDMDL
MODEL 4
REMARK VINA RESULT:      -7.1      4.269      7.432
REMARK  Name = 
REMARK  13 active torsions:
REMARK  status: ('A' for Active; 'I' for Inactive)
REMARK    1  A    between atoms: C_1  and  O_2
REMARK    2  A    between atoms: O_2  and  C_3
REMARK    3  A    between atoms: C_6  and  C_7
REMARK    4  A    between atoms: C_7  and  C_8
REMARK    5  A    between atoms: C_8  and  C_9
REMARK    6  A    between atoms: C_9  and  C_10
REMARK    7  A    between atoms: C_10  and  O_11
REMARK    8  A    between atoms: O_11  and  C_12
REMARK    9  A    between atoms: C_12  and  C_13
REMARK   10  A    between atoms: C_12  and  C_19
REMARK   11  A    between atoms: C_13  and  N_14
REMARK   12  A    between atoms: C_22  and  O_23
REMARK   13  A    between atoms: O_23  and  C_24
REMARK                            x       y       z     vdW  Elec       q    Type
REMARK                         _______ _______ _______ _____ _____    ______ ____
ROOT
ATOM      1  C   UNL     1       3.752   6.259  17.992  0.00  0.00    +0.000 C 
ENDROOT
BRANCH   1   2
ATOM      2  C   UNL     1       2.847   7.381  18.495  0.00  0.00    +0.000 A 
ATOM      3  C   UNL     1       2.291   7.354  19.782  0.00  0.00    +0.000 A 
ATOM      4  C   UNL     1       1.372   8.327  20.184  0.00  0.00    +0.000 A 
ATOM      5  C   UNL     1       1.000   9.355  19.320  0.00  0.00    +0.000 A 
ATOM      6  C   UNL     1       1.568   9.416  18.050  0.00  0.00    +0.000 A 
ATOM      7  C   UNL     1       2.502   8.452  17.650  0.00  0.00    +0.000 A 
BRANCH   5   8
ATOM      8  O   UNL     1       0.050  10.208  19.807  0.00  0.00    +0.000 OA
ATOM      9  C   UNL     1       0.110  11.544  19.323  0.00  0.00    +0.000 C 
ENDBRANCH   5   8
ENDBRANCH   1   2
BRANCH   1  10
ATOM     10  O   UNL     1       4.993   6.798  17.498  0.00  0.00    +0.000 OA
BRANCH  10  11
ATOM     11  C   UNL     1       6.153   6.102  17.942  0.00  0.00    +0.000 C 
BRANCH  11  12
ATOM     12  C   UNL     1       7.378   6.664  17.228  0.00  0.00    +0.000 C 
BRANCH  12  13
ATOM     13  C   UNL     1       7.567   8.162  17.483  0.00  0.00    +0.000 C 
BRANCH  13  14
ATOM     14  C   UNL     1       8.497   8.450  18.665  0.00  0.00    +0.000 C 
BRANCH  14  18
ATOM     15  C   UNL     1       9.644  12.605  18.856  0.00  0.00    +0.000 A 
ATOM     16  C   UNL     1      10.043  11.717  19.855  0.00  0.00    +0.000 A 
ATOM     17  C   UNL     1       9.678  10.371  19.793  0.00  0.00    +0.000 A 
ATOM     18  C   UNL     1       8.897   9.900  18.731  0.00  0.00    +0.000 A 
ATOM     19  C   UNL     1       8.477  10.798  17.744  0.00  0.00    +0.000 A 
ATOM     20  C   UNL     1       8.851  12.147  17.805  0.00  0.00    +0.000 A 
BRANCH  15  22
ATOM     21  C   UNL     1       9.017  14.866  19.149  0.00  0.00    +0.000 C 
ATOM     22  O   UNL     1      10.053  13.898  19.035  0.00  0.00    +0.000 OA
ENDBRANCH  15  22
ENDBRANCH  14  18
ENDBRANCH  13  14
ENDBRANCH  12  13
ENDBRANCH  11  12
ENDBRANCH  10  11
ENDBRANCH   1  10
BRANCH   1  23
ATOM     23  C   UNL     1       3.979   5.179  19.076  0.00  0.00    +0.000 C 
BRANCH  23  24
ATOM     24  N   UNL     1       3.364   3.899  18.785  0.00  0.00    +0.000 N 
ATOM     25  C   UNL     1       3.889   2.899  18.014  0.00  0.00    +0.000 A 
ATOM     26  C   UNL     1       2.903   1.943  17.953  0.00  0.00    +0.000 A 
ATOM     27  N   UNL     1       1.797   2.339  18.658  0.00  0.00    +0.000 NA
ATOM     28  C   UNL     1       2.109   3.513  19.158  0.00  0.00    +0.000 A 
ENDBRANCH  23  24
ENDBRANCH   1  23
TORSDOF 11
ENDMDL
MODEL 5
REMARK VINA RESULT:      -7.0      0.868      1.283
REMARK  Name = 
REMARK  13 active torsions:
REMARK  status: ('A' for Active; 'I' for Inactive)
REMARK    1  A    between atoms: C_1  and  O_2
REMARK    2  A    between atoms: O_2  and  C_3
REMARK    3  A    between atoms: C_6  and  C_7
REMARK    4  A    between atoms: C_7  and  C_8
REMARK    5  A    between atoms: C_8  and  C_9
REMARK    6  A    between atoms: C_9  and  C_10
REMARK    7  A    between atoms: C_10  and  O_11
REMARK    8  A    between atoms: O_11  and  C_12
REMARK    9  A    between atoms: C_12  and  C_13
REMARK   10  A    between atoms: C_12  and  C_19
REMARK   11  A    between atoms: C_13  and  N_14
REMARK   12  A    between atoms: C_22  and  O_23
REMARK   13  A    between atoms: O_23  and  C_24
REMARK                            x       y       z     vdW  Elec       q    Type
REMARK                         _______ _______ _______ _____ _____    ______ ____
ROOT
ATOM      1  C   UNL     1       3.499   5.077  18.294  0.00  0.00    +0.000 C 
ENDROOT
BRANCH   1   2
ATOM      2  C   UNL     1       4.697   5.050  17.347  0.00  0.00    +0.000 A 
ATOM      3  C   UNL     1       5.679   6.050  17.377  0.00  0.00    +0.000 A 
ATOM      4  C   UNL     1       6.704   6.075  16.427  0.00  0.00    +0.000 A 
ATOM      5  C   UNL     1       6.781   5.096  15.439  0.00  0.00    +0.000 A 
ATOM      6  C   UNL     1       5.833   4.077  15.415  0.00  0.00    +0.000 A 
ATOM      7  C   UNL     1       4.815   4.040  16.375  0.00  0.00    +0.000 A 
BRANCH   5   8
ATOM      8  O   UNL     1       7.792   5.263  14.534  0.00  0.00    +0.000 OA
ATOM      9  C   UNL     1       7.463   4.984  13.179  0.00  0.00    +0.000 C 
ENDBRANCH   5   8
ENDBRANCH   1   2
BRANCH   1  10
ATOM     10  O   UNL     1       2.566   6.098  17.894  0.00  0.00    +0.000 OA
BRANCH  10  11
ATOM     11  C   UNL     1       2.407   7.151  18.839  0.00  0.00    +0.000 C 
BRANCH  11  12
ATOM     12  C   UNL     1       2.000   8.425  18.107  0.00  0.00    +0.000 C 
BRANCH  12  13
ATOM     13  C   UNL     1       1.086   9.318  18.953  0.00  0.00    +0.000 C 
BRANCH  13  14
ATOM     14  C   UNL     1       1.428   9.272  20.444  0.00  0.00    +0.000 C 
BRANCH  14  18
ATOM     15  C   UNL     1      -1.039  11.952  22.758  0.00  0.00    +0.000 A 
ATOM     16  C   UNL     1      -1.083  10.577  22.989  0.00  0.00    +0.000 A 
ATOM     17  C   UNL     1      -0.282   9.708  22.246  0.00  0.00    +0.000 A 
ATOM     18  C   UNL     1       0.568  10.208  21.252  0.00  0.00    +0.000 A 
ATOM     19  C   UNL     1       0.591  11.584  21.005  0.00  0.00    +0.000 A 
ATOM     20  C   UNL     1      -0.209  12.455  21.757  0.00  0.00    +0.000 A 
BRANCH  15  22
ATOM     21  C   UNL     1      -3.259  12.366  23.456  0.00  0.00    +0.000 C 
ATOM     22  O   UNL     1      -1.878  12.697  23.540  0.00  0.00    +0.000 OA
ENDBRANCH  15  22
ENDBRANCH  14  18
ENDBRANCH  13  14
ENDBRANCH  12  13
ENDBRANCH  11  12
ENDBRANCH  10  11
ENDBRANCH   1  10
BRANCH   1  23
ATOM     23  C   UNL     1       2.828   3.688  18.404  0.00  0.00    +0.000 C 
BRANCH  23  24
ATOM     24  N   UNL     1       2.486   3.293  19.757  0.00  0.00    +0.000 N 
ATOM     25  C   UNL     1       1.340   3.608  20.434  0.00  0.00    +0.000 A 
ATOM     26  C   UNL     1       1.523   3.100  21.698  0.00  0.00    +0.000 A 
ATOM     27  N   UNL     1       2.748   2.495  21.806  0.00  0.00    +0.000 NA
ATOM     28  C   UNL     1       3.298   2.615  20.621  0.00  0.00    +0.000 A 
ENDBRANCH  23  24
ENDBRANCH   1  23
TORSDOF 11
ENDMDL
MODEL 6
REMARK VINA RESULT:      -7.0      2.750      3.331
REMARK  Name = 
REMARK  13 active torsions:
REMARK  status: ('A' for Active; 'I' for Inactive)
REMARK    1  A    between atoms: C_1  and  O_2
REMARK    2  A    between atoms: O_2  and  C_3
REMARK    3  A    between atoms: C_6  and  C_7
REMARK    4  A    between atoms: C_7  and  C_8
REMARK    5  A    between atoms: C_8  and  C_9
REMARK    6  A    between atoms: C_9  and  C_10
REMARK    7  A    between atoms: C_10  and  O_11
REMARK    8  A    between atoms: O_11  and  C_12
REMARK    9  A    between atoms: C_12  and  C_13
REMARK   10  A    between atoms: C_12  and  C_19
REMARK   11  A    between atoms: C_13  and  N_14
REMARK   12  A    between atoms: C_22  and  O_23
REMARK   13  A    between atoms: O_23  and  C_24
REMARK                            x       y       z     vdW  Elec       q    Type
REMARK                         _______ _______ _______ _____ _____    ______ ____
ROOT
ATOM      1  C   UNL     1       3.011   6.240  19.369  0.00  0.00    +0.000 C 
ENDROOT
BRANCH   1   2
ATOM      2  C   UNL     1       4.104   6.084  18.314  0.00  0.00    +0.000 A 
ATOM      3  C   UNL     1       4.152   6.906  17.179  0.00  0.00    +0.000 A 
ATOM      4  C   UNL     1       5.086   6.674  16.167  0.00  0.00    +0.000 A 
ATOM      5  C   UNL     1       6.002   5.629  16.270  0.00  0.00    +0.000 A 
ATOM      6  C   UNL     1       5.990   4.823  17.406  0.00  0.00    +0.000 A 
ATOM      7  C   UNL     1       5.066   5.064  18.430  0.00  0.00    +0.000 A 
BRANCH   5   8
ATOM      8  O   UNL     1       6.824   5.467  15.190  0.00  0.00    +0.000 OA
ATOM      9  C   UNL     1       6.493   4.397  14.314  0.00  0.00    +0.000 C 
ENDBRANCH   5   8
ENDBRANCH   1   2
BRANCH   1  10
ATOM     10  O   UNL     1       2.515   7.592  19.381  0.00  0.00    +0.000 OA
BRANCH  10  11
ATOM     11  C   UNL     1       1.713   7.912  20.513  0.00  0.00    +0.000 C 
BRANCH  11  12
ATOM     12  C   UNL     1       0.864   9.139  20.195  0.00  0.00    +0.000 C 
BRANCH  12  13
ATOM     13  C   UNL     1       1.100   9.660  18.774  0.00  0.00    +0.000 C 
BRANCH  13  14
ATOM     14  C   UNL     1       0.461  11.030  18.531  0.00  0.00    +0.000 C 
BRANCH  14  18
ATOM     15  C   UNL     1      -3.785  10.739  17.822  0.00  0.00    +0.000 A 
ATOM     16  C   UNL     1      -3.280  11.705  18.692  0.00  0.00    +0.000 A 
ATOM     17  C   UNL     1      -1.907  11.806  18.919  0.00  0.00    +0.000 A 
ATOM     18  C   UNL     1      -1.021  10.928  18.283  0.00  0.00    +0.000 A 
ATOM     19  C   UNL     1      -1.532   9.943  17.431  0.00  0.00    +0.000 A 
ATOM     20  C   UNL     1      -2.911   9.850  17.200  0.00  0.00    +0.000 A 
BRANCH  15  22
ATOM     21  C   UNL     1      -5.829  11.840  18.267  0.00  0.00    +0.000 C 
ATOM     22  O   UNL     1      -5.147  10.733  17.692  0.00  0.00    +0.000 OA
ENDBRANCH  15  22
ENDBRANCH  14  18
ENDBRANCH  13  14
ENDBRANCH  12  13
ENDBRANCH  11  12
ENDBRANCH  10  11
ENDBRANCH   1  10
BRANCH   1  23
ATOM     23  C   UNL     1       1.877   5.207  19.173  0.00  0.00    +0.000 C 
BRANCH  23  24
ATOM     24  N   UNL     1       1.854   4.147  20.163  0.00  0.00    +0.000 N 
ATOM     25  C   UNL     1       1.258   2.924  20.034  0.00  0.00    +0.000 A 
ATOM     26  C   UNL     1       1.419   2.319  21.259  0.00  0.00    +0.000 A 
ATOM     27  N   UNL     1       2.087   3.145  22.124  0.00  0.00    +0.000 NA
ATOM     28  C   UNL     1       2.347   4.231  21.434  0.00  0.00    +0.000 A 
ENDBRANCH  23  24
ENDBRANCH   1  23
TORSDOF 11
ENDMDL
MODEL 7
REMARK VINA RESULT:      -7.0      5.465      8.671
REMARK  Name = 
REMARK  13 active torsions:
REMARK  status: ('A' for Active; 'I' for Inactive)
REMARK    1  A    between atoms: C_1  and  O_2
REMARK    2  A    between atoms: O_2  and  C_3
REMARK    3  A    between atoms: C_6  and  C_7
REMARK    4  A    between atoms: C_7  and  C_8
REMARK    5  A    between atoms: C_8  and  C_9
REMARK    6  A    between atoms: C_9  and  C_10
REMARK    7  A    between atoms: C_10  and  O_11
REMARK    8  A    between atoms: O_11  and  C_12
REMARK    9  A    between atoms: C_12  and  C_13
REMARK   10  A    between atoms: C_12  and  C_19
REMARK   11  A    between atoms: C_13  and  N_14
REMARK   12  A    between atoms: C_22  and  O_23
REMARK   13  A    between atoms: O_23  and  C_24
REMARK                            x       y       z     vdW  Elec       q    Type
REMARK                         _______ _______ _______ _____ _____    ______ ____
ROOT
ATOM      1  C   UNL     1       5.527   5.972  17.094  0.00  0.00    +0.000 C 
ENDROOT
BRANCH   1   2
ATOM      2  C   UNL     1       4.408   5.363  17.937  0.00  0.00    +0.000 A 
ATOM      3  C   UNL     1       3.060   5.502  17.579  0.00  0.00    +0.000 A 
ATOM      4  C   UNL     1       2.045   5.041  18.421  0.00  0.00    +0.000 A 
ATOM      5  C   UNL     1       2.351   4.419  19.629  0.00  0.00    +0.000 A 
ATOM      6  C   UNL     1       3.686   4.243  19.985  0.00  0.00    +0.000 A 
ATOM      7  C   UNL     1       4.705   4.689  19.135  0.00  0.00    +0.000 A 
BRANCH   5   8
ATOM      8  O   UNL     1       1.273   4.067  20.392  0.00  0.00    +0.000 OA
ATOM      9  C   UNL     1       1.461   2.954  21.256  0.00  0.00    +0.000 C 
ENDBRANCH   5   8
ENDBRANCH   1   2
BRANCH   1  10
ATOM     10  O   UNL     1       6.113   7.098  17.775  0.00  0.00    +0.000 OA
BRANCH  10  11
ATOM     11  C   UNL     1       7.335   7.555  17.206  0.00  0.00    +0.000 C 
BRANCH  11  12
ATOM     12  C   UNL     1       8.250   8.054  18.320  0.00  0.00    +0.000 C 
BRANCH  12  13
ATOM     13  C   UNL     1       8.526   9.558  18.220  0.00  0.00    +0.000 C 
BRANCH  13  14
ATOM     14  C   UNL     1       9.318  10.096  19.414  0.00  0.00    +0.000 C 
BRANCH  14  18
ATOM     15  C   UNL     1      11.567  13.639  18.408  0.00  0.00    +0.000 A 
ATOM     16  C   UNL     1      11.847  12.935  19.579  0.00  0.00    +0.000 A 
ATOM     17  C   UNL     1      11.126  11.785  19.904  0.00  0.00    +0.000 A 
ATOM     18  C   UNL     1      10.103  11.332  19.062  0.00  0.00    +0.000 A 
ATOM     19  C   UNL     1       9.807  12.055  17.901  0.00  0.00    +0.000 A 
ATOM     20  C   UNL     1      10.539  13.204  17.574  0.00  0.00    +0.000 A 
BRANCH  15  22
ATOM     21  C   UNL     1      11.966  15.565  17.096  0.00  0.00    +0.000 C 
ATOM     22  O   UNL     1      12.333  14.754  18.205  0.00  0.00    +0.000 OA
ENDBRANCH  15  22
ENDBRANCH  14  18
ENDBRANCH  13  14
ENDBRANCH  12  13
ENDBRANCH  11  12
ENDBRANCH  10  11
ENDBRANCH   1  10
BRANCH   1  23
ATOM     23  C   UNL     1       6.586   4.915  16.702  0.00  0.00    +0.000 C 
BRANCH  23  24
ATOM     24  N   UNL     1       6.586   4.559  15.296  0.00  0.00    +0.000 N 
ATOM     25  C   UNL     1       7.418   5.053  14.330  0.00  0.00    +0.000 A 
ATOM     26  C   UNL     1       6.968   4.497  13.156  0.00  0.00    +0.000 A 
ATOM     27  N   UNL     1       5.885   3.689  13.384  0.00  0.00    +0.000 NA
ATOM     28  C   UNL     1       5.687   3.736  14.681  0.00  0.00    +0.000 A 
ENDBRANCH  23  24
ENDBRANCH   1  23
TORSDOF 11
ENDMDL
MODEL 8
REMARK VINA RESULT:      -7.0      1.002      1.546
REMARK  Name = 
REMARK  13 active torsions:
REMARK  status: ('A' for Active; 'I' for Inactive)
REMARK    1  A    between atoms: C_1  and  O_2
REMARK    2  A    between atoms: O_2  and  C_3
REMARK    3  A    between atoms: C_6  and  C_7
REMARK    4  A    between atoms: C_7  and  C_8
REMARK    5  A    between atoms: C_8  and  C_9
REMARK    6  A    between atoms: C_9  and  C_10
REMARK    7  A    between atoms: C_10  and  O_11
REMARK    8  A    between atoms: O_11  and  C_12
REMARK    9  A    between atoms: C_12  and  C_13
REMARK   10  A    between atoms: C_12  and  C_19
REMARK   11  A    between atoms: C_13  and  N_14
REMARK   12  A    between atoms: C_22  and  O_23
REMARK   13  A    between atoms: O_23  and  C_24
REMARK                            x       y       z     vdW  Elec       q    Type
REMARK                         _______ _______ _______ _____ _____    ______ ____
ROOT
ATOM      1  C   UNL     1       4.335   4.932  18.554  0.00  0.00    +0.000 C 
ENDROOT
BRANCH   1   2
ATOM      2  C   UNL     1       5.330   4.943  17.395  0.00  0.00    +0.000 A 
ATOM      3  C   UNL     1       6.340   5.910  17.304  0.00  0.00    +0.000 A 
ATOM      4  C   UNL     1       7.167   5.978  16.180  0.00  0.00    +0.000 A 
ATOM      5  C   UNL     1       7.015   5.074  15.130  0.00  0.00    +0.000 A 
ATOM      6  C   UNL     1       6.039   4.086  15.219  0.00  0.00    +0.000 A 
ATOM      7  C   UNL     1       5.220   4.005  16.352  0.00  0.00    +0.000 A 
BRANCH   5   8
ATOM      8  O   UNL     1       7.842   5.280  14.062  0.00  0.00    +0.000 OA
ATOM      9  C   UNL     1       7.384   4.772  12.816  0.00  0.00    +0.000 C 
ENDBRANCH   5   8
ENDBRANCH   1   2
BRANCH   1  10
ATOM     10  O   UNL     1       3.085   5.521  18.148  0.00  0.00    +0.000 OA
BRANCH  10  11
ATOM     11  C   UNL     1       2.734   6.701  18.862  0.00  0.00    +0.000 C 
BRANCH  11  12
ATOM     12  C   UNL     1       2.838   7.902  17.927  0.00  0.00    +0.000 C 
BRANCH  12  13
ATOM     13  C   UNL     1       1.520   8.677  17.824  0.00  0.00    +0.000 C 
BRANCH  13  14
ATOM     14  C   UNL     1       1.638  10.117  18.332  0.00  0.00    +0.000 C 
BRANCH  14  18
ATOM     15  C   UNL     1      -0.571  10.735  21.986  0.00  0.00    +0.000 A 
ATOM     16  C   UNL     1       0.002   9.493  21.710  0.00  0.00    +0.000 A 
ATOM     17  C   UNL     1       0.722   9.292  20.532  0.00  0.00    +0.000 A 
ATOM     18  C   UNL     1       0.867  10.333  19.607  0.00  0.00    +0.000 A 
ATOM     19  C   UNL     1       0.270  11.569  19.875  0.00  0.00    +0.000 A 
ATOM     20  C   UNL     1      -0.446  11.771  21.062  0.00  0.00    +0.000 A 
BRANCH  15  22
ATOM     21  C   UNL     1      -2.260  11.815  23.240  0.00  0.00    +0.000 C 
ATOM     22  O   UNL     1      -1.261  10.804  23.165  0.00  0.00    +0.000 OA
ENDBRANCH  15  22
ENDBRANCH  14  18
ENDBRANCH  13  14
ENDBRANCH  12  13
ENDBRANCH  11  12
ENDBRANCH  10  11
ENDBRANCH   1  10
BRANCH   1  23
ATOM     23  C   UNL     1       4.146   3.508  19.130  0.00  0.00    +0.000 C 
BRANCH  23  24
ATOM     24  N   UNL     1       2.762   3.095  19.263  0.00  0.00    +0.000 N 
ATOM     25  C   UNL     1       1.981   2.539  18.288  0.00  0.00    +0.000 A 
ATOM     26  C   UNL     1       0.735   2.418  18.858  0.00  0.00    +0.000 A 
ATOM     27  N   UNL     1       0.741   2.891  20.144  0.00  0.00    +0.000 NA
ATOM     28  C   UNL     1       1.976   3.279  20.364  0.00  0.00    +0.000 A 
ENDBRANCH  23  24
ENDBRANCH   1  23
TORSDOF 11
ENDMDL
MODEL 9
REMARK VINA RESULT:      -7.0      5.854      8.852
REMARK  Name = 
REMARK  13 active torsions:
REMARK  status: ('A' for Active; 'I' for Inactive)
REMARK    1  A    between atoms: C_1  and  O_2
REMARK    2  A    between atoms: O_2  and  C_3
REMARK    3  A    between atoms: C_6  and  C_7
REMARK    4  A    between atoms: C_7  and  C_8
REMARK    5  A    between atoms: C_8  and  C_9
REMARK    6  A    between atoms: C_9  and  C_10
REMARK    7  A    between atoms: C_10  and  O_11
REMARK    8  A    between atoms: O_11  and  C_12
REMARK    9  A    between atoms: C_12  and  C_13
REMARK   10  A    between atoms: C_12  and  C_19
REMARK   11  A    between atoms: C_13  and  N_14
REMARK   12  A    between atoms: C_22  and  O_23
REMARK   13  A    between atoms: O_23  and  C_24
REMARK                            x       y       z     vdW  Elec       q    Type
REMARK                         _______ _______ _______ _____ _____    ______ ____
ROOT
ATOM      1  C   UNL     1       6.600   6.099  16.761  0.00  0.00    +0.000 C 
ENDROOT
BRANCH   1   2
ATOM      2  C   UNL     1       5.378   6.074  17.678  0.00  0.00    +0.000 A 
ATOM      3  C   UNL     1       5.366   5.329  18.865  0.00  0.00    +0.000 A 
ATOM      4  C   UNL     1       4.203   5.222  19.631  0.00  0.00    +0.000 A 
ATOM      5  C   UNL     1       3.032   5.868  19.239  0.00  0.00    +0.000 A 
ATOM      6  C   UNL     1       3.035   6.640  18.080  0.00  0.00    +0.000 A 
ATOM      7  C   UNL     1       4.204   6.762  17.320  0.00  0.00    +0.000 A 
BRANCH   5   8
ATOM      8  O   UNL     1       1.946   5.639  20.038  0.00  0.00    +0.000 OA
ATOM      9  C   UNL     1       2.055   4.539  20.932  0.00  0.00    +0.000 C 
ENDBRANCH   5   8
ENDBRANCH   1   2
BRANCH   1  10
ATOM     10  O   UNL     1       7.681   6.818  17.385  0.00  0.00    +0.000 OA
BRANCH  10  11
ATOM     11  C   UNL     1       7.442   8.212  17.546  0.00  0.00    +0.000 C 
BRANCH  11  12
ATOM     12  C   UNL     1       8.558   8.817  18.392  0.00  0.00    +0.000 C 
BRANCH  12  13
ATOM     13  C   UNL     1       8.771  10.305  18.100  0.00  0.00    +0.000 C 
BRANCH  13  14
ATOM     14  C   UNL     1       9.746  10.967  19.076  0.00  0.00    +0.000 C 
BRANCH  14  18
ATOM     15  C   UNL     1      11.571  14.500  17.400  0.00  0.00    +0.000 A 
ATOM     16  C   UNL     1      10.453  14.609  18.227  0.00  0.00    +0.000 A 
ATOM     17  C   UNL     1       9.864  13.469  18.776  0.00  0.00    +0.000 A 
ATOM     18  C   UNL     1      10.384  12.200  18.491  0.00  0.00    +0.000 A 
ATOM     19  C   UNL     1      11.489  12.092  17.640  0.00  0.00    +0.000 A 
ATOM     20  C   UNL     1      12.082  13.240  17.097  0.00  0.00    +0.000 A 
BRANCH  15  22
ATOM     21  C   UNL     1      11.289  16.843  17.247  0.00  0.00    +0.000 C 
ATOM     22  O   UNL     1      12.049  15.687  16.915  0.00  0.00    +0.000 OA
ENDBRANCH  15  22
ENDBRANCH  14  18
ENDBRANCH  13  14
ENDBRANCH  12  13
ENDBRANCH  11  12
ENDBRANCH  10  11
ENDBRANCH   1  10
BRANCH   1  23
ATOM     23  C   UNL     1       7.021   4.673  16.334  0.00  0.00    +0.000 C 
BRANCH  23  24
ATOM     24  N   UNL     1       6.846   4.394  14.922  0.00  0.00    +0.000 N 
ATOM     25  C   UNL     1       7.541   4.957  13.887  0.00  0.00    +0.000 A 
ATOM     26  C   UNL     1       6.953   4.457  12.750  0.00  0.00    +0.000 A 
ATOM     27  N   UNL     1       5.919   3.616  13.067  0.00  0.00    +0.000 NA
ATOM     28  C   UNL     1       5.887   3.587  14.379  0.00  0.00    +0.000 A 
ENDBRANCH  23  24
ENDBRANCH   1  23
TORSDOF 11
ENDMDL
