MODEL 1
REMARK VINA RESULT:      -6.8      0.000      0.000
REMARK  Name = 
REMARK  6 active torsions:
REMARK  status: ('A' for Active; 'I' for Inactive)
REMARK    1  A    between atoms: C_1  and  C_2
REMARK    2  A    between atoms: C_2  and  C_3
REMARK    3  A    between atoms: C_2  and  C_4
REMARK    4  A    between atoms: C_6  and  C_7
REMARK    5  A    between atoms: C_7  and  O_8
REMARK    6  A    between atoms: O_8  and  C_9
REMARK                            x       y       z     vdW  Elec       q    Type
REMARK                         _______ _______ _______ _____ _____    ______ ____
ROOT
ATOM      1  O   UNL     1       2.711   5.735  18.299  0.00  0.00    +0.000 OA
ENDROOT
BRANCH   1   2
ATOM      2  C   UNL     1       3.088   5.440  19.657  0.00  0.00    +0.000 C 
ATOM      3  C   UNL     1       1.847   5.419  20.589  0.00  0.00    +0.000 C 
ATOM      4  C   UNL     1       0.987   4.159  20.370  0.00  0.00    +0.000 C 
ATOM      5  C   UNL     1       1.752   2.879  20.744  0.00  0.00    +0.000 C 
ATOM      6  C   UNL     1       3.139   2.915  20.218  0.00  0.00    +0.000 A 
ATOM      7  C   UNL     1       4.090   1.930  20.115  0.00  0.00    +0.000 A 
ATOM      8  N   UNL     1       5.202   2.540  19.599  0.00  0.00    +0.000 N 
ATOM      9  N   UNL     1       5.040   3.857  19.375  0.00  0.00    +0.000 NA
ATOM     10  C   UNL     1       3.774   4.088  19.731  0.00  0.00    +0.000 A 
ATOM     11  H   UNL     1       6.099   2.119  19.389  0.00  0.00    +0.000 HD
ENDBRANCH   1   2
BRANCH   1  12
ATOM     12  C   UNL     1       3.450   6.800  17.684  0.00  0.00    +0.000 C 
BRANCH  12  15
ATOM     13  C   UNL     1       6.144   5.336  15.752  0.00  0.00    +0.000 A 
ATOM     14  N   UNL     1       4.882   5.538  16.070  0.00  0.00    +0.000 NA
ATOM     15  C   UNL     1       4.795   6.403  17.160  0.00  0.00    +0.000 A 
ATOM     16  C   UNL     1       6.010   6.847  17.639  0.00  0.00    +0.000 A 
ATOM     17  S   UNL     1       7.289   6.177  16.728  0.00  0.00    +0.000 S 
BRANCH  13  19
ATOM     18  C   UNL     1       5.449   3.892  13.832  0.00  0.00    +0.000 C 
ATOM     19  C   UNL     1       6.627   4.447  14.631  0.00  0.00    +0.000 C 
ATOM     20  C   UNL     1       7.596   5.199  13.717  0.00  0.00    +0.000 C 
ENDBRANCH  13  19
ENDBRANCH  12  15
ENDBRANCH   1  12
TORSDOF 4
ENDMDL
MODEL 2
REMARK VINA RESULT:      -6.7      3.499      5.733
REMARK  Name = 
REMARK  6 active torsions:
REMARK  status: ('A' for Active; 'I' for Inactive)
REMARK    1  A    between atoms: C_1  and  C_2
REMARK    2  A    between atoms: C_2  and  C_3
REMARK    3  A    between atoms: C_2  and  C_4
REMARK    4  A    between atoms: C_6  and  C_7
REMARK    5  A    between atoms: C_7  and  O_8
REMARK    6  A    between atoms: O_8  and  C_9
REMARK                            x       y       z     vdW  Elec       q    Type
REMARK                         _______ _______ _______ _____ _____    ______ ____
ROOT
ATOM      1  O   UNL     1       2.297   5.940  18.556  0.00  0.00    +0.000 OA
ENDROOT
BRANCH   1   2
ATOM      2  C   UNL     1       3.022   5.153  19.520  0.00  0.00    +0.000 C 
ATOM      3  C   UNL     1       2.167   4.902  20.791  0.00  0.00    +0.000 C 
ATOM      4  C   UNL     1       1.047   3.875  20.535  0.00  0.00    +0.000 C 
ATOM      5  C   UNL     1       1.617   2.489  20.193  0.00  0.00    +0.000 C 
ATOM      6  C   UNL     1       2.740   2.598  19.229  0.00  0.00    +0.000 A 
ATOM      7  C   UNL     1       3.389   1.641  18.489  0.00  0.00    +0.000 A 
ATOM      8  N   UNL     1       4.376   2.303  17.810  0.00  0.00    +0.000 N 
ATOM      9  N   UNL     1       4.419   3.623  18.072  0.00  0.00    +0.000 NA
ATOM     10  C   UNL     1       3.408   3.813  18.922  0.00  0.00    +0.000 A 
ATOM     11  H   UNL     1       5.055   1.915  17.166  0.00  0.00    +0.000 HD
ENDBRANCH   1   2
BRANCH   1  12
ATOM     12  C   UNL     1       2.874   7.222  18.265  0.00  0.00    +0.000 C 
BRANCH  12  15
ATOM     13  C   UNL     1       0.794   9.540  20.118  0.00  0.00    +0.000 A 
ATOM     14  N   UNL     1       1.474   8.424  19.950  0.00  0.00    +0.000 NA
ATOM     15  C   UNL     1       2.031   8.390  18.674  0.00  0.00    +0.000 A 
ATOM     16  C   UNL     1       1.764   9.501  17.900  0.00  0.00    +0.000 A 
ATOM     17  S   UNL     1       0.797  10.610  18.767  0.00  0.00    +0.000 S 
BRANCH  13  19
ATOM     18  C   UNL     1       0.681   9.283  22.603  0.00  0.00    +0.000 C 
ATOM     19  C   UNL     1       0.042   9.922  21.371  0.00  0.00    +0.000 C 
ATOM     20  C   UNL     1      -0.028  11.442  21.524  0.00  0.00    +0.000 C 
ENDBRANCH  13  19
ENDBRANCH  12  15
ENDBRANCH   1  12
TORSDOF 4
ENDMDL
MODEL 3
REMARK VINA RESULT:      -6.7      2.420      5.787
REMARK  Name = 
REMARK  6 active torsions:
REMARK  status: ('A' for Active; 'I' for Inactive)
REMARK    1  A    between atoms: C_1  and  C_2
REMARK    2  A    between atoms: C_2  and  C_3
REMARK    3  A    between atoms: C_2  and  C_4
REMARK    4  A    between atoms: C_6  and  C_7
REMARK    5  A    between atoms: C_7  and  O_8
REMARK    6  A    between atoms: O_8  and  C_9
REMARK                            x       y       z     vdW  Elec       q    Type
REMARK                         _______ _______ _______ _____ _____    ______ ____
ROOT
ATOM      1  O   UNL     1       4.945   7.186  17.635  0.00  0.00    +0.000 OA
ENDROOT
BRANCH   1   2
ATOM      2  C   UNL     1       6.198   7.074  16.932  0.00  0.00    +0.000 C 
ATOM      3  C   UNL     1       7.387   6.968  17.925  0.00  0.00    +0.000 C 
ATOM      4  C   UNL     1       7.445   5.587  18.603  0.00  0.00    +0.000 C 
ATOM      5  C   UNL     1       7.712   4.466  17.585  0.00  0.00    +0.000 C 
ATOM      6  C   UNL     1       6.883   4.645  16.367  0.00  0.00    +0.000 A 
ATOM      7  C   UNL     1       6.626   3.796  15.319  0.00  0.00    +0.000 A 
ATOM      8  N   UNL     1       5.836   4.504  14.454  0.00  0.00    +0.000 N 
ATOM      9  N   UNL     1       5.575   5.760  14.865  0.00  0.00    +0.000 NA
ATOM     10  C   UNL     1       6.195   5.844  16.044  0.00  0.00    +0.000 A 
ATOM     11  H   UNL     1       5.452   4.195  13.569  0.00  0.00    +0.000 HD
ENDBRANCH   1   2
BRANCH   1  12
ATOM     12  C   UNL     1       4.008   6.132  17.373  0.00  0.00    +0.000 C 
BRANCH  12  15
ATOM     13  C   UNL     1       1.712   4.514  19.663  0.00  0.00    +0.000 A 
ATOM     14  N   UNL     1       2.470   4.581  18.587  0.00  0.00    +0.000 NA
ATOM     15  C   UNL     1       3.075   5.833  18.505  0.00  0.00    +0.000 A 
ATOM     16  C   UNL     1       2.763   6.692  19.539  0.00  0.00    +0.000 A 
ATOM     17  S   UNL     1       1.693   5.936  20.635  0.00  0.00    +0.000 S 
BRANCH  13  19
ATOM     18  C   UNL     1       0.826   2.287  18.947  0.00  0.00    +0.000 C 
ATOM     19  C   UNL     1       0.891   3.315  20.075  0.00  0.00    +0.000 C 
ATOM     20  C   UNL     1       1.450   2.684  21.351  0.00  0.00    +0.000 C 
ENDBRANCH  13  19
ENDBRANCH  12  15
ENDBRANCH   1  12
TORSDOF 4
ENDMDL
MODEL 4
REMARK VINA RESULT:      -6.7      1.988      2.761
REMARK  Name = 
REMARK  6 active torsions:
REMARK  status: ('A' for Active; 'I' for Inactive)
REMARK    1  A    between atoms: C_1  and  C_2
REMARK    2  A    between atoms: C_2  and  C_3
REMARK    3  A    between atoms: C_2  and  C_4
REMARK    4  A    between atoms: C_6  and  C_7
REMARK    5  A    between atoms: C_7  and  O_8
REMARK    6  A    between atoms: O_8  and  C_9
REMARK                            x       y       z     vdW  Elec       q    Type
REMARK                         _______ _______ _______ _____ _____    ______ ____
ROOT
ATOM      1  O   UNL     1       4.471   5.000  16.546  0.00  0.00    +0.000 OA
ENDROOT
BRANCH   1   2
ATOM      2  C   UNL     1       4.227   5.376  17.916  0.00  0.00    +0.000 C 
ATOM      3  C   UNL     1       2.812   5.992  18.082  0.00  0.00    +0.000 C 
ATOM      4  C   UNL     1       1.708   4.921  17.997  0.00  0.00    +0.000 C 
ATOM      5  C   UNL     1       1.809   3.909  19.151  0.00  0.00    +0.000 C 
ATOM      6  C   UNL     1       3.216   3.489  19.368  0.00  0.00    +0.000 A 
ATOM      7  C   UNL     1       3.746   2.467  20.115  0.00  0.00    +0.000 A 
ATOM      8  N   UNL     1       5.104   2.580  19.989  0.00  0.00    +0.000 N 
ATOM      9  N   UNL     1       5.490   3.617  19.221  0.00  0.00    +0.000 NA
ATOM     10  C   UNL     1       4.339   4.163  18.822  0.00  0.00    +0.000 A 
ATOM     11  H   UNL     1       5.818   1.994  20.405  0.00  0.00    +0.000 HD
ENDBRANCH   1   2
BRANCH   1  12
ATOM     12  C   UNL     1       5.582   5.663  15.926  0.00  0.00    +0.000 C 
BRANCH  12  15
ATOM     13  C   UNL     1       5.897   3.623  12.947  0.00  0.00    +0.000 A 
ATOM     14  N   UNL     1       5.285   4.066  14.027  0.00  0.00    +0.000 NA
ATOM     15  C   UNL     1       6.085   4.999  14.681  0.00  0.00    +0.000 A 
ATOM     16  C   UNL     1       7.295   5.251  14.067  0.00  0.00    +0.000 A 
ATOM     17  S   UNL     1       7.451   4.307  12.653  0.00  0.00    +0.000 S 
BRANCH  13  19
ATOM     18  C   UNL     1       4.249   3.199  11.114  0.00  0.00    +0.000 C 
ATOM     19  C   UNL     1       5.341   2.592  11.993  0.00  0.00    +0.000 C 
ATOM     20  C   UNL     1       6.453   1.987  11.135  0.00  0.00    +0.000 C 
ENDBRANCH  13  19
ENDBRANCH  12  15
ENDBRANCH   1  12
TORSDOF 4
ENDMDL
MODEL 5
REMARK VINA RESULT:      -6.6      1.805      1.993
REMARK  Name = 
REMARK  6 active torsions:
REMARK  status: ('A' for Active; 'I' for Inactive)
REMARK    1  A    between atoms: C_1  and  C_2
REMARK    2  A    between atoms: C_2  and  C_3
REMARK    3  A    between atoms: C_2  and  C_4
REMARK    4  A    between atoms: C_6  and  C_7
REMARK    5  A    between atoms: C_7  and  O_8
REMARK    6  A    between atoms: O_8  and  C_9
REMARK                            x       y       z     vdW  Elec       q    Type
REMARK                         _______ _______ _______ _____ _____    ______ ____
ROOT
ATOM      1  O   UNL     1       3.582   5.734  18.900  0.00  0.00    +0.000 OA
ENDROOT
BRANCH   1   2
ATOM      2  C   UNL     1       2.230   5.258  19.047  0.00  0.00    +0.000 C 
ATOM      3  C   UNL     1       1.722   4.605  17.734  0.00  0.00    +0.000 C 
ATOM      4  C   UNL     1       2.365   3.227  17.493  0.00  0.00    +0.000 C 
ATOM      5  C   UNL     1       1.971   2.218  18.585  0.00  0.00    +0.000 C 
ATOM      6  C   UNL     1       2.051   2.834  19.933  0.00  0.00    +0.000 A 
ATOM      7  C   UNL     1       2.009   2.272  21.184  0.00  0.00    +0.000 A 
ATOM      8  N   UNL     1       2.077   3.319  22.063  0.00  0.00    +0.000 N 
ATOM      9  N   UNL     1       2.147   4.523  21.465  0.00  0.00    +0.000 NA
ATOM     10  C   UNL     1       2.153   4.231  20.162  0.00  0.00    +0.000 A 
ATOM     11  H   UNL     1       2.071   3.281  23.076  0.00  0.00    +0.000 HD
ENDBRANCH   1   2
BRANCH   1  12
ATOM     12  C   UNL     1       3.922   6.190  17.582  0.00  0.00    +0.000 C 
BRANCH  12  15
ATOM     13  C   UNL     1       6.310   4.653  15.331  0.00  0.00    +0.000 A 
ATOM     14  N   UNL     1       5.144   5.176  15.652  0.00  0.00    +0.000 NA
ATOM     15  C   UNL     1       5.139   5.545  16.996  0.00  0.00    +0.000 A 
ATOM     16  C   UNL     1       6.321   5.298  17.664  0.00  0.00    +0.000 A 
ATOM     17  S   UNL     1       7.461   4.588  16.611  0.00  0.00    +0.000 S 
BRANCH  13  19
ATOM     18  C   UNL     1       5.429   3.793  13.154  0.00  0.00    +0.000 C 
ATOM     19  C   UNL     1       6.680   4.128  13.964  0.00  0.00    +0.000 C 
ATOM     20  C   UNL     1       7.559   5.130  13.214  0.00  0.00    +0.000 C 
ENDBRANCH  13  19
ENDBRANCH  12  15
ENDBRANCH   1  12
TORSDOF 4
ENDMDL
MODEL 6
REMARK VINA RESULT:      -6.6      1.443      2.416
REMARK  Name = 
REMARK  6 active torsions:
REMARK  status: ('A' for Active; 'I' for Inactive)
REMARK    1  A    between atoms: C_1  and  C_2
REMARK    2  A    between atoms: C_2  and  C_3
REMARK    3  A    between atoms: C_2  and  C_4
REMARK    4  A    between atoms: C_6  and  C_7
REMARK    5  A    between atoms: C_7  and  O_8
REMARK    6  A    between atoms: O_8  and  C_9
REMARK                            x       y       z     vdW  Elec       q    Type
REMARK                         _______ _______ _______ _____ _____    ______ ____
ROOT
ATOM      1  O   UNL     1       2.441   4.802  18.222  0.00  0.00    +0.000 OA
ENDROOT
BRANCH   1   2
ATOM      2  C   UNL     1       2.944   4.867  19.571  0.00  0.00    +0.000 C 
ATOM      3  C   UNL     1       1.790   5.069  20.588  0.00  0.00    +0.000 C 
ATOM      4  C   UNL     1       0.960   3.785  20.775  0.00  0.00    +0.000 C 
ATOM      5  C   UNL     1       1.799   2.652  21.388  0.00  0.00    +0.000 C 
ATOM      6  C   UNL     1       3.134   2.570  20.744  0.00  0.00    +0.000 A 
ATOM      7  C   UNL     1       4.106   1.603  20.805  0.00  0.00    +0.000 A 
ATOM      8  N   UNL     1       5.147   2.075  20.052  0.00  0.00    +0.000 N 
ATOM      9  N   UNL     1       4.919   3.290  19.518  0.00  0.00    +0.000 NA
ATOM     10  C   UNL     1       3.681   3.587  19.920  0.00  0.00    +0.000 A 
ATOM     11  H   UNL     1       6.037   1.626  19.872  0.00  0.00    +0.000 HD
ENDBRANCH   1   2
BRANCH   1  12
ATOM     12  C   UNL     1       2.959   5.803  17.334  0.00  0.00    +0.000 C 
BRANCH  12  15
ATOM     13  C   UNL     1       6.565   6.154  17.257  0.00  0.00    +0.000 A 
ATOM     14  N   UNL     1       5.348   6.457  17.663  0.00  0.00    +0.000 NA
ATOM     15  C   UNL     1       4.413   5.655  17.011  0.00  0.00    +0.000 A 
ATOM     16  C   UNL     1       4.953   4.747  16.124  0.00  0.00    +0.000 A 
ATOM     17  S   UNL     1       6.654   4.891  16.089  0.00  0.00    +0.000 S 
BRANCH  13  19
ATOM     18  C   UNL     1       7.710   8.343  17.648  0.00  0.00    +0.000 C 
ATOM     19  C   UNL     1       7.832   6.822  17.734  0.00  0.00    +0.000 C 
ATOM     20  C   UNL     1       8.176   6.386  19.159  0.00  0.00    +0.000 C 
ENDBRANCH  13  19
ENDBRANCH  12  15
ENDBRANCH   1  12
TORSDOF 4
ENDMDL
MODEL 7
REMARK VINA RESULT:      -6.6      2.194      2.763
REMARK  Name = 
REMARK  6 active torsions:
REMARK  status: ('A' for Active; 'I' for Inactive)
REMARK    1  A    between atoms: C_1  and  C_2
REMARK    2  A    between atoms: C_2  and  C_3
REMARK    3  A    between atoms: C_2  and  C_4
REMARK    4  A    between atoms: C_6  and  C_7
REMARK    5  A    between atoms: C_7  and  O_8
REMARK    6  A    between atoms: O_8  and  C_9
REMARK                            x       y       z     vdW  Elec       q    Type
REMARK                         _______ _______ _______ _____ _____    ______ ____
ROOT
ATOM      1  O   UNL     1       2.675   4.850  21.035  0.00  0.00    +0.000 OA
ENDROOT
BRANCH   1   2
ATOM      2  C   UNL     1       2.371   3.454  21.222  0.00  0.00    +0.000 C 
ATOM      3  C   UNL     1       0.882   3.159  20.900  0.00  0.00    +0.000 C 
ATOM      4  C   UNL     1       0.606   3.194  19.384  0.00  0.00    +0.000 C 
ATOM      5  C   UNL     1       1.372   2.086  18.643  0.00  0.00    +0.000 C 
ATOM      6  C   UNL     1       2.772   1.991  19.127  0.00  0.00    +0.000 A 
ATOM      7  C   UNL     1       3.858   1.321  18.620  0.00  0.00    +0.000 A 
ATOM      8  N   UNL     1       4.879   1.548  19.503  0.00  0.00    +0.000 N 
ATOM      9  N   UNL     1       4.524   2.308  20.556  0.00  0.00    +0.000 NA
ATOM     10  C   UNL     1       3.242   2.600  20.320  0.00  0.00    +0.000 A 
ATOM     11  H   UNL     1       5.832   1.207  19.451  0.00  0.00    +0.000 HD
ENDBRANCH   1   2
BRANCH   1  12
ATOM     12  C   UNL     1       2.335   5.375  19.743  0.00  0.00    +0.000 C 
BRANCH  12  15
ATOM     13  C   UNL     1       5.678   5.869  18.436  0.00  0.00    +0.000 A 
ATOM     14  N   UNL     1       4.796   5.437  19.314  0.00  0.00    +0.000 NA
ATOM     15  C   UNL     1       3.509   5.786  18.910  0.00  0.00    +0.000 A 
ATOM     16  C   UNL     1       3.447   6.473  17.715  0.00  0.00    +0.000 A 
ATOM     17  S   UNL     1       5.016   6.700  17.079  0.00  0.00    +0.000 S 
BRANCH  13  19
ATOM     18  C   UNL     1       7.653   4.569  17.619  0.00  0.00    +0.000 C 
ATOM     19  C   UNL     1       7.174   5.687  18.544  0.00  0.00    +0.000 C 
ATOM     20  C   UNL     1       7.906   6.995  18.237  0.00  0.00    +0.000 C 
ENDBRANCH  13  19
ENDBRANCH  12  15
ENDBRANCH   1  12
TORSDOF 4
ENDMDL
MODEL 8
REMARK VINA RESULT:      -6.6      2.340      5.307
REMARK  Name = 
REMARK  6 active torsions:
REMARK  status: ('A' for Active; 'I' for Inactive)
REMARK    1  A    between atoms: C_1  and  C_2
REMARK    2  A    between atoms: C_2  and  C_3
REMARK    3  A    between atoms: C_2  and  C_4
REMARK    4  A    between atoms: C_6  and  C_7
REMARK    5  A    between atoms: C_7  and  O_8
REMARK    6  A    between atoms: O_8  and  C_9
REMARK                            x       y       z     vdW  Elec       q    Type
REMARK                         _______ _______ _______ _____ _____    ______ ____
ROOT
ATOM      1  O   UNL     1       5.260   7.497  17.864  0.00  0.00    +0.000 OA
ENDROOT
BRANCH   1   2
ATOM      2  C   UNL     1       6.425   7.219  17.063  0.00  0.00    +0.000 C 
ATOM      3  C   UNL     1       7.678   7.009  17.955  0.00  0.00    +0.000 C 
ATOM      4  C   UNL     1       7.641   5.652  18.684  0.00  0.00    +0.000 C 
ATOM      5  C   UNL     1       7.689   4.476  17.695  0.00  0.00    +0.000 C 
ATOM      6  C   UNL     1       6.781   4.710  16.545  0.00  0.00    +0.000 A 
ATOM      7  C   UNL     1       6.338   3.863  15.559  0.00  0.00    +0.000 A 
ATOM      8  N   UNL     1       5.558   4.629  14.735  0.00  0.00    +0.000 N 
ATOM      9  N   UNL     1       5.478   5.919  15.113  0.00  0.00    +0.000 NA
ATOM     10  C   UNL     1       6.205   5.969  16.231  0.00  0.00    +0.000 A 
ATOM     11  H   UNL     1       5.066   4.338  13.899  0.00  0.00    +0.000 HD
ENDBRANCH   1   2
BRANCH   1  12
ATOM     12  C   UNL     1       4.033   6.954  17.356  0.00  0.00    +0.000 C 
BRANCH  12  15
ATOM     13  C   UNL     1       2.593   4.075  19.020  0.00  0.00    +0.000 A 
ATOM     14  N   UNL     1       3.248   4.687  18.054  0.00  0.00    +0.000 NA
ATOM     15  C   UNL     1       3.309   6.055  18.310  0.00  0.00    +0.000 A 
ATOM     16  C   UNL     1       2.700   6.448  19.483  0.00  0.00    +0.000 A 
ATOM     17  S   UNL     1       2.030   5.098  20.286  0.00  0.00    +0.000 S 
BRANCH  13  19
ATOM     18  C   UNL     1       0.841   2.302  18.810  0.00  0.00    +0.000 C 
ATOM     19  C   UNL     1       2.317   2.591  19.079  0.00  0.00    +0.000 C 
ATOM     20  C   UNL     1       3.206   1.830  18.094  0.00  0.00    +0.000 C 
ENDBRANCH  13  19
ENDBRANCH  12  15
ENDBRANCH   1  12
TORSDOF 4
ENDMDL
MODEL 9
REMARK VINA RESULT:      -6.6      2.061      3.543
REMARK  Name = 
REMARK  6 active torsions:
REMARK  status: ('A' for Active; 'I' for Inactive)
REMARK    1  A    between atoms: C_1  and  C_2
REMARK    2  A    between atoms: C_2  and  C_3
REMARK    3  A    between atoms: C_2  and  C_4
REMARK    4  A    between atoms: C_6  and  C_7
REMARK    5  A    between atoms: C_7  and  O_8
REMARK    6  A    between atoms: O_8  and  C_9
REMARK                            x       y       z     vdW  Elec       q    Type
REMARK                         _______ _______ _______ _____ _____    ______ ____
ROOT
ATOM      1  O   UNL     1       3.459   3.066  18.236  0.00  0.00    +0.000 OA
ENDROOT
BRANCH   1   2
ATOM      2  C   UNL     1       2.196   3.755  18.158  0.00  0.00    +0.000 C 
ATOM      3  C   UNL     1       1.144   3.099  19.092  0.00  0.00    +0.000 C 
ATOM      4  C   UNL     1       1.421   3.412  20.575  0.00  0.00    +0.000 C 
ATOM      5  C   UNL     1       1.292   4.916  20.871  0.00  0.00    +0.000 C 
ATOM      6  C   UNL     1       1.958   5.724  19.819  0.00  0.00    +0.000 A 
ATOM      7  C   UNL     1       2.284   7.056  19.778  0.00  0.00    +0.000 A 
ATOM      8  N   UNL     1       2.839   7.265  18.544  0.00  0.00    +0.000 N 
ATOM      9  N   UNL     1       2.881   6.159  17.777  0.00  0.00    +0.000 NA
ATOM     10  C   UNL     1       2.364   5.209  18.560  0.00  0.00    +0.000 A 
ATOM     11  H   UNL     1       3.196   8.132  18.162  0.00  0.00    +0.000 HD
ENDBRANCH   1   2
BRANCH   1  12
ATOM     12  C   UNL     1       4.081   2.799  16.971  0.00  0.00    +0.000 C 
BRANCH  12  15
ATOM     13  C   UNL     1       6.812   5.177  17.095  0.00  0.00    +0.000 A 
ATOM     14  N   UNL     1       5.866   4.424  17.617  0.00  0.00    +0.000 NA
ATOM     15  C   UNL     1       5.187   3.741  16.610  0.00  0.00    +0.000 A 
ATOM     16  C   UNL     1       5.650   3.989  15.334  0.00  0.00    +0.000 A 
ATOM     17  S   UNL     1       6.949   5.097  15.379  0.00  0.00    +0.000 S 
BRANCH  13  19
ATOM     18  C   UNL     1       7.451   7.543  17.596  0.00  0.00    +0.000 C 
ATOM     19  C   UNL     1       7.745   6.070  17.878  0.00  0.00    +0.000 C 
ATOM     20  C   UNL     1       7.652   5.777  19.376  0.00  0.00    +0.000 C 
ENDBRANCH  13  19
ENDBRANCH  12  15
ENDBRANCH   1  12
TORSDOF 4
ENDMDL
