MODEL 1
REMARK VINA RESULT:      -8.0      0.000      0.000
REMARK  Name = 
REMARK  4 active torsions:
REMARK  status: ('A' for Active; 'I' for Inactive)
REMARK    1  A    between atoms: C_4  and  O_5
REMARK    2  A    between atoms: O_5  and  C_6
REMARK    3  A    between atoms: C_6  and  C_7
REMARK    4  A    between atoms: C_10  and  C_11
REMARK                            x       y       z     vdW  Elec       q    Type
REMARK                         _______ _______ _______ _____ _____    ______ ____
ROOT
ATOM      1  C   UNL     1       6.806   4.575  15.917  0.00  0.00    +0.000 A 
ATOM      2  N   UNL     1       7.507   4.678  17.027  0.00  0.00    +0.000 NA
ATOM      3  N   UNL     1       6.639   4.435  18.063  0.00  0.00    +0.000 NA
ATOM      4  C   UNL     1       5.452   4.198  17.528  0.00  0.00    +0.000 A 
ATOM      5  O   UNL     1       5.477   4.274  16.155  0.00  0.00    +0.000 OA
ENDROOT
BRANCH   4   6
ATOM      6  C   UNL     1       4.209   3.897  18.232  0.00  0.00    +0.000 A 
ATOM      7  C   UNL     1       2.992   4.197  17.580  0.00  0.00    +0.000 A 
ATOM      8  C   UNL     1       1.743   4.012  18.183  0.00  0.00    +0.000 A 
ATOM      9  C   UNL     1       1.760   3.504  19.479  0.00  0.00    +0.000 A 
ATOM     10  N   UNL     1       0.755   3.229  20.370  0.00  0.00    +0.000 N 
ATOM     11  C   UNL     1       1.329   2.751  21.514  0.00  0.00    +0.000 A 
ATOM     12  N   UNL     1       2.637   2.696  21.413  0.00  0.00    +0.000 NA
ATOM     13  C   UNL     1       2.928   3.171  20.155  0.00  0.00    +0.000 A 
ATOM     14  C   UNL     1       4.175   3.358  19.528  0.00  0.00    +0.000 A 
ATOM     15  H   UNL     1      -0.234   3.367  20.213  0.00  0.00    +0.000 HD
ENDBRANCH   4   6
BRANCH   1  16
ATOM     16  C   UNL     1       7.250   4.873  14.531  0.00  0.00    +0.000 C 
BRANCH  16  17
ATOM     17  O   UNL     1       6.131   4.742  13.647  0.00  0.00    +0.000 OA
BRANCH  17  21
ATOM     18  C   UNL     1       6.206   1.649  10.841  0.00  0.00    +0.000 A 
ATOM     19  C   UNL     1       5.010   2.124  11.374  0.00  0.00    +0.000 A 
ATOM     20  C   UNL     1       5.025   3.163  12.308  0.00  0.00    +0.000 A 
ATOM     21  C   UNL     1       6.234   3.721  12.734  0.00  0.00    +0.000 A 
ATOM     22  C   UNL     1       7.430   3.251  12.183  0.00  0.00    +0.000 A 
ATOM     23  C   UNL     1       7.413   2.217  11.240  0.00  0.00    +0.000 A 
ENDBRANCH  17  21
ENDBRANCH  16  17
ENDBRANCH   1  16
TORSDOF 4
ENDMDL
MODEL 2
REMARK VINA RESULT:      -7.9      0.224      1.042
REMARK  Name = 
REMARK  4 active torsions:
REMARK  status: ('A' for Active; 'I' for Inactive)
REMARK    1  A    between atoms: C_4  and  O_5
REMARK    2  A    between atoms: O_5  and  C_6
REMARK    3  A    between atoms: C_6  and  C_7
REMARK    4  A    between atoms: C_10  and  C_11
REMARK                            x       y       z     vdW  Elec       q    Type
REMARK                         _______ _______ _______ _____ _____    ______ ____
ROOT
ATOM      1  C   UNL     1       6.702   4.580  15.714  0.00  0.00    +0.000 A 
ATOM      2  N   UNL     1       7.426   4.695  16.809  0.00  0.00    +0.000 NA
ATOM      3  N   UNL     1       6.582   4.451  17.864  0.00  0.00    +0.000 NA
ATOM      4  C   UNL     1       5.386   4.201  17.356  0.00  0.00    +0.000 A 
ATOM      5  O   UNL     1       5.381   4.270  15.982  0.00  0.00    +0.000 OA
ENDROOT
BRANCH   4   6
ATOM      6  C   UNL     1       4.160   3.894  18.088  0.00  0.00    +0.000 A 
ATOM      7  C   UNL     1       2.928   4.146  17.446  0.00  0.00    +0.000 A 
ATOM      8  C   UNL     1       1.692   3.952  18.074  0.00  0.00    +0.000 A 
ATOM      9  C   UNL     1       1.739   3.486  19.383  0.00  0.00    +0.000 A 
ATOM     10  N   UNL     1       0.754   3.216  20.298  0.00  0.00    +0.000 N 
ATOM     11  C   UNL     1       1.356   2.787  21.447  0.00  0.00    +0.000 A 
ATOM     12  N   UNL     1       2.663   2.759  21.329  0.00  0.00    +0.000 NA
ATOM     13  C   UNL     1       2.925   3.200  20.051  0.00  0.00    +0.000 A 
ATOM     14  C   UNL     1       4.158   3.396  19.400  0.00  0.00    +0.000 A 
ATOM     15  H   UNL     1      -0.239   3.327  20.152  0.00  0.00    +0.000 HD
ENDBRANCH   4   6
BRANCH   1  16
ATOM     16  C   UNL     1       7.114   4.875  14.317  0.00  0.00    +0.000 C 
BRANCH  16  17
ATOM     17  O   UNL     1       5.989   4.687  13.452  0.00  0.00    +0.000 OA
BRANCH  17  21
ATOM     18  C   UNL     1       6.575   1.507  10.809  0.00  0.00    +0.000 A 
ATOM     19  C   UNL     1       7.635   2.296  11.251  0.00  0.00    +0.000 A 
ATOM     20  C   UNL     1       7.400   3.349  12.138  0.00  0.00    +0.000 A 
ATOM     21  C   UNL     1       6.104   3.637  12.575  0.00  0.00    +0.000 A 
ATOM     22  C   UNL     1       5.047   2.832  12.140  0.00  0.00    +0.000 A 
ATOM     23  C   UNL     1       5.285   1.771  11.259  0.00  0.00    +0.000 A 
ENDBRANCH  17  21
ENDBRANCH  16  17
ENDBRANCH   1  16
TORSDOF 4
ENDMDL
MODEL 3
REMARK VINA RESULT:      -7.8      6.195      9.034
REMARK  Name = 
REMARK  4 active torsions:
REMARK  status: ('A' for Active; 'I' for Inactive)
REMARK    1  A    between atoms: C_4  and  O_5
REMARK    2  A    between atoms: O_5  and  C_6
REMARK    3  A    between atoms: C_6  and  C_7
REMARK    4  A    between atoms: C_10  and  C_11
REMARK                            x       y       z     vdW  Elec       q    Type
REMARK                         _______ _______ _______ _____ _____    ______ ____
ROOT
ATOM      1  C   UNL     1       7.786   6.967  18.204  0.00  0.00    +0.000 A 
ATOM      2  N   UNL     1       7.161   7.598  17.231  0.00  0.00    +0.000 NA
ATOM      3  N   UNL     1       7.581   8.905  17.279  0.00  0.00    +0.000 NA
ATOM      4  C   UNL     1       8.440   9.001  18.281  0.00  0.00    +0.000 A 
ATOM      5  O   UNL     1       8.621   7.800  18.927  0.00  0.00    +0.000 OA
ENDROOT
BRANCH   4   6
ATOM      6  C   UNL     1       9.147  10.198  18.728  0.00  0.00    +0.000 A 
ATOM      7  C   UNL     1       9.281  10.404  20.119  0.00  0.00    +0.000 A 
ATOM      8  C   UNL     1       9.881  11.545  20.663  0.00  0.00    +0.000 A 
ATOM      9  C   UNL     1      10.351  12.482  19.748  0.00  0.00    +0.000 A 
ATOM     10  N   UNL     1      10.952  13.703  19.911  0.00  0.00    +0.000 N 
ATOM     11  C   UNL     1      11.203  14.216  18.670  0.00  0.00    +0.000 A 
ATOM     12  N   UNL     1      10.808  13.400  17.719  0.00  0.00    +0.000 NA
ATOM     13  C   UNL     1      10.264  12.316  18.370  0.00  0.00    +0.000 A 
ATOM     14  C   UNL     1       9.663  11.157  17.843  0.00  0.00    +0.000 A 
ATOM     15  H   UNL     1      11.160  14.151  20.792  0.00  0.00    +0.000 HD
ENDBRANCH   4   6
BRANCH   1  16
ATOM     16  C   UNL     1       7.582   5.567  18.657  0.00  0.00    +0.000 C 
BRANCH  16  17
ATOM     17  O   UNL     1       6.435   5.518  19.511  0.00  0.00    +0.000 OA
BRANCH  17  21
ATOM     18  C   UNL     1       2.788   4.447  17.779  0.00  0.00    +0.000 A 
ATOM     19  C   UNL     1       2.852   5.280  18.893  0.00  0.00    +0.000 A 
ATOM     20  C   UNL     1       4.090   5.620  19.442  0.00  0.00    +0.000 A 
ATOM     21  C   UNL     1       5.275   5.113  18.898  0.00  0.00    +0.000 A 
ATOM     22  C   UNL     1       5.205   4.290  17.771  0.00  0.00    +0.000 A 
ATOM     23  C   UNL     1       3.964   3.959  17.215  0.00  0.00    +0.000 A 
ENDBRANCH  17  21
ENDBRANCH  16  17
ENDBRANCH   1  16
TORSDOF 4
ENDMDL
MODEL 4
REMARK VINA RESULT:      -7.8      5.001      6.961
REMARK  Name = 
REMARK  4 active torsions:
REMARK  status: ('A' for Active; 'I' for Inactive)
REMARK    1  A    between atoms: C_4  and  O_5
REMARK    2  A    between atoms: O_5  and  C_6
REMARK    3  A    between atoms: C_6  and  C_7
REMARK    4  A    between atoms: C_10  and  C_11
REMARK                            x       y       z     vdW  Elec       q    Type
REMARK                         _______ _______ _______ _____ _____    ______ ____
ROOT
ATOM      1  C   UNL     1       7.573   7.414  17.658  0.00  0.00    +0.000 A 
ATOM      2  N   UNL     1       7.718   6.919  16.445  0.00  0.00    +0.000 NA
ATOM      3  N   UNL     1       6.635   6.103  16.223  0.00  0.00    +0.000 NA
ATOM      4  C   UNL     1       5.888   6.144  17.315  0.00  0.00    +0.000 A 
ATOM      5  O   UNL     1       6.426   6.959  18.283  0.00  0.00    +0.000 OA
ENDROOT
BRANCH   4   6
ATOM      6  C   UNL     1       4.637   5.430  17.556  0.00  0.00    +0.000 A 
ATOM      7  C   UNL     1       3.478   6.198  17.808  0.00  0.00    +0.000 A 
ATOM      8  C   UNL     1       2.239   5.623  18.115  0.00  0.00    +0.000 A 
ATOM      9  C   UNL     1       2.206   4.233  18.158  0.00  0.00    +0.000 A 
ATOM     10  N   UNL     1       1.200   3.348  18.449  0.00  0.00    +0.000 N 
ATOM     11  C   UNL     1       1.713   2.085  18.352  0.00  0.00    +0.000 A 
ATOM     12  N   UNL     1       2.981   2.101  18.012  0.00  0.00    +0.000 NA
ATOM     13  C   UNL     1       3.312   3.432  17.895  0.00  0.00    +0.000 A 
ATOM     14  C   UNL     1       4.547   4.030  17.580  0.00  0.00    +0.000 A 
ATOM     15  H   UNL     1       0.252   3.586  18.702  0.00  0.00    +0.000 HD
ENDBRANCH   4   6
BRANCH   1  16
ATOM     16  C   UNL     1       8.538   8.247  18.420  0.00  0.00    +0.000 C 
BRANCH  16  17
ATOM     17  O   UNL     1       8.299   9.626  18.118  0.00  0.00    +0.000 OA
BRANCH  17  21
ATOM     18  C   UNL     1      11.146  12.195  19.774  0.00  0.00    +0.000 A 
ATOM     19  C   UNL     1      10.213  11.529  20.566  0.00  0.00    +0.000 A 
ATOM     20  C   UNL     1       9.279  10.675  19.976  0.00  0.00    +0.000 A 
ATOM     21  C   UNL     1       9.252  10.494  18.590  0.00  0.00    +0.000 A 
ATOM     22  C   UNL     1      10.201  11.154  17.803  0.00  0.00    +0.000 A 
ATOM     23  C   UNL     1      11.143  12.001  18.396  0.00  0.00    +0.000 A 
ENDBRANCH  17  21
ENDBRANCH  16  17
ENDBRANCH   1  16
TORSDOF 4
ENDMDL
MODEL 5
REMARK VINA RESULT:      -7.8      6.237      9.067
REMARK  Name = 
REMARK  4 active torsions:
REMARK  status: ('A' for Active; 'I' for Inactive)
REMARK    1  A    between atoms: C_4  and  O_5
REMARK    2  A    between atoms: O_5  and  C_6
REMARK    3  A    between atoms: C_6  and  C_7
REMARK    4  A    between atoms: C_10  and  C_11
REMARK                            x       y       z     vdW  Elec       q    Type
REMARK                         _______ _______ _______ _____ _____    ______ ____
ROOT
ATOM      1  C   UNL     1       7.833   6.998  18.246  0.00  0.00    +0.000 A 
ATOM      2  N   UNL     1       7.217   7.608  17.254  0.00  0.00    +0.000 NA
ATOM      3  N   UNL     1       7.622   8.920  17.290  0.00  0.00    +0.000 NA
ATOM      4  C   UNL     1       8.463   9.039  18.305  0.00  0.00    +0.000 A 
ATOM      5  O   UNL     1       8.647   7.850  18.970  0.00  0.00    +0.000 OA
ENDROOT
BRANCH   4   6
ATOM      6  C   UNL     1       9.149  10.250  18.746  0.00  0.00    +0.000 A 
ATOM      7  C   UNL     1       9.347  10.428  20.134  0.00  0.00    +0.000 A 
ATOM      8  C   UNL     1       9.934  11.578  20.676  0.00  0.00    +0.000 A 
ATOM      9  C   UNL     1      10.323  12.552  19.762  0.00  0.00    +0.000 A 
ATOM     10  N   UNL     1      10.889  13.790  19.926  0.00  0.00    +0.000 N 
ATOM     11  C   UNL     1      11.059  14.340  18.687  0.00  0.00    +0.000 A 
ATOM     12  N   UNL     1      10.644  13.534  17.737  0.00  0.00    +0.000 NA
ATOM     13  C   UNL     1      10.173  12.416  18.386  0.00  0.00    +0.000 A 
ATOM     14  C   UNL     1       9.586  11.249  17.861  0.00  0.00    +0.000 A 
ATOM     15  H   UNL     1      11.126  14.224  20.807  0.00  0.00    +0.000 HD
ENDBRANCH   4   6
BRANCH   1  16
ATOM     16  C   UNL     1       7.637   5.602  18.715  0.00  0.00    +0.000 C 
BRANCH  16  17
ATOM     17  O   UNL     1       6.504   5.561  19.589  0.00  0.00    +0.000 OA
BRANCH  17  21
ATOM     18  C   UNL     1       3.056   4.221  17.649  0.00  0.00    +0.000 A 
ATOM     19  C   UNL     1       4.328   3.861  17.212  0.00  0.00    +0.000 A 
ATOM     20  C   UNL     1       5.458   4.326  17.889  0.00  0.00    +0.000 A 
ATOM     21  C   UNL     1       5.329   5.172  18.994  0.00  0.00    +0.000 A 
ATOM     22  C   UNL     1       4.049   5.517  19.438  0.00  0.00    +0.000 A 
ATOM     23  C   UNL     1       2.918   5.042  18.765  0.00  0.00    +0.000 A 
ENDBRANCH  17  21
ENDBRANCH  16  17
ENDBRANCH   1  16
TORSDOF 4
ENDMDL
MODEL 6
REMARK VINA RESULT:      -7.6      4.934      6.907
REMARK  Name = 
REMARK  4 active torsions:
REMARK  status: ('A' for Active; 'I' for Inactive)
REMARK    1  A    between atoms: C_4  and  O_5
REMARK    2  A    between atoms: O_5  and  C_6
REMARK    3  A    between atoms: C_6  and  C_7
REMARK    4  A    between atoms: C_10  and  C_11
REMARK                            x       y       z     vdW  Elec       q    Type
REMARK                         _______ _______ _______ _____ _____    ______ ____
ROOT
ATOM      1  C   UNL     1       7.531   7.301  17.566  0.00  0.00    +0.000 A 
ATOM      2  N   UNL     1       7.722   6.686  16.417  0.00  0.00    +0.000 NA
ATOM      3  N   UNL     1       6.645   5.852  16.235  0.00  0.00    +0.000 NA
ATOM      4  C   UNL     1       5.855   6.004  17.286  0.00  0.00    +0.000 A 
ATOM      5  O   UNL     1       6.357   6.913  18.187  0.00  0.00    +0.000 OA
ENDROOT
BRANCH   4   6
ATOM      6  C   UNL     1       4.592   5.319  17.548  0.00  0.00    +0.000 A 
ATOM      7  C   UNL     1       3.455   6.113  17.818  0.00  0.00    +0.000 A 
ATOM      8  C   UNL     1       2.209   5.567  18.146  0.00  0.00    +0.000 A 
ATOM      9  C   UNL     1       2.144   4.178  18.189  0.00  0.00    +0.000 A 
ATOM     10  N   UNL     1       1.122   3.316  18.496  0.00  0.00    +0.000 N 
ATOM     11  C   UNL     1       1.604   2.042  18.391  0.00  0.00    +0.000 A 
ATOM     12  N   UNL     1       2.867   2.029  18.031  0.00  0.00    +0.000 NA
ATOM     13  C   UNL     1       3.226   3.352  17.908  0.00  0.00    +0.000 A 
ATOM     14  C   UNL     1       4.470   3.921  17.574  0.00  0.00    +0.000 A 
ATOM     15  H   UNL     1       0.184   3.577  18.765  0.00  0.00    +0.000 HD
ENDBRANCH   4   6
BRANCH   1  16
ATOM     16  C   UNL     1       8.468   8.207  18.278  0.00  0.00    +0.000 C 
BRANCH  16  17
ATOM     17  O   UNL     1       8.066   9.562  18.051  0.00  0.00    +0.000 OA
BRANCH  17  21
ATOM     18  C   UNL     1      10.551  12.592  19.497  0.00  0.00    +0.000 A 
ATOM     19  C   UNL     1       9.966  12.665  18.236  0.00  0.00    +0.000 A 
ATOM     20  C   UNL     1       9.137  11.634  17.788  0.00  0.00    +0.000 A 
ATOM     21  C   UNL     1       8.903  10.510  18.586  0.00  0.00    +0.000 A 
ATOM     22  C   UNL     1       9.480  10.450  19.858  0.00  0.00    +0.000 A 
ATOM     23  C   UNL     1      10.301  11.488  20.309  0.00  0.00    +0.000 A 
ENDBRANCH  17  21
ENDBRANCH  16  17
ENDBRANCH   1  16
TORSDOF 4
ENDMDL
MODEL 7
REMARK VINA RESULT:      -7.6      6.176      8.343
REMARK  Name = 
REMARK  4 active torsions:
REMARK  status: ('A' for Active; 'I' for Inactive)
REMARK    1  A    between atoms: C_4  and  O_5
REMARK    2  A    between atoms: O_5  and  C_6
REMARK    3  A    between atoms: C_6  and  C_7
REMARK    4  A    between atoms: C_10  and  C_11
REMARK                            x       y       z     vdW  Elec       q    Type
REMARK                         _______ _______ _______ _____ _____    ______ ____
ROOT
ATOM      1  C   UNL     1       2.500   7.986  18.336  0.00  0.00    +0.000 A 
ATOM      2  N   UNL     1       2.216   8.955  17.489  0.00  0.00    +0.000 NA
ATOM      3  N   UNL     1       1.409   9.839  18.163  0.00  0.00    +0.000 NA
ATOM      4  C   UNL     1       1.244   9.361  19.385  0.00  0.00    +0.000 A 
ATOM      5  O   UNL     1       1.909   8.172  19.572  0.00  0.00    +0.000 OA
ENDROOT
BRANCH   4   6
ATOM      6  C   UNL     1       0.456   9.948  20.466  0.00  0.00    +0.000 A 
ATOM      7  C   UNL     1       0.549   9.358  21.746  0.00  0.00    +0.000 A 
ATOM      8  C   UNL     1      -0.208   9.796  22.839  0.00  0.00    +0.000 A 
ATOM      9  C   UNL     1      -1.067  10.863  22.599  0.00  0.00    +0.000 A 
ATOM     10  N   UNL     1      -1.961  11.520  23.404  0.00  0.00    +0.000 N 
ATOM     11  C   UNL     1      -2.559  12.495  22.656  0.00  0.00    +0.000 A 
ATOM     12  N   UNL     1      -2.103  12.510  21.424  0.00  0.00    +0.000 NA
ATOM     13  C   UNL     1      -1.178  11.493  21.364  0.00  0.00    +0.000 A 
ATOM     14  C   UNL     1      -0.403  11.043  20.279  0.00  0.00    +0.000 A 
ATOM     15  H   UNL     1      -2.154  11.313  24.373  0.00  0.00    +0.000 HD
ENDBRANCH   4   6
BRANCH   1  16
ATOM     16  C   UNL     1       3.232   6.723  18.058  0.00  0.00    +0.000 C 
BRANCH  16  17
ATOM     17  O   UNL     1       3.403   6.007  19.286  0.00  0.00    +0.000 OA
BRANCH  17  21
ATOM     18  C   UNL     1       0.798   2.759  19.614  0.00  0.00    +0.000 A 
ATOM     19  C   UNL     1       1.274   3.193  18.379  0.00  0.00    +0.000 A 
ATOM     20  C   UNL     1       2.147   4.281  18.309  0.00  0.00    +0.000 A 
ATOM     21  C   UNL     1       2.535   4.959  19.469  0.00  0.00    +0.000 A 
ATOM     22  C   UNL     1       2.067   4.508  20.707  0.00  0.00    +0.000 A 
ATOM     23  C   UNL     1       1.200   3.412  20.776  0.00  0.00    +0.000 A 
ENDBRANCH  17  21
ENDBRANCH  16  17
ENDBRANCH   1  16
TORSDOF 4
ENDMDL
MODEL 8
REMARK VINA RESULT:      -7.6      5.363      8.855
REMARK  Name = 
REMARK  4 active torsions:
REMARK  status: ('A' for Active; 'I' for Inactive)
REMARK    1  A    between atoms: C_4  and  O_5
REMARK    2  A    between atoms: O_5  and  C_6
REMARK    3  A    between atoms: C_6  and  C_7
REMARK    4  A    between atoms: C_10  and  C_11
REMARK                            x       y       z     vdW  Elec       q    Type
REMARK                         _______ _______ _______ _____ _____    ______ ____
ROOT
ATOM      1  C   UNL     1       1.632   8.744  19.122  0.00  0.00    +0.000 A 
ATOM      2  N   UNL     1       1.684   7.975  20.191  0.00  0.00    +0.000 NA
ATOM      3  N   UNL     1       2.431   6.875  19.845  0.00  0.00    +0.000 NA
ATOM      4  C   UNL     1       2.794   7.032  18.583  0.00  0.00    +0.000 A 
ATOM      5  O   UNL     1       2.316   8.206  18.047  0.00  0.00    +0.000 OA
ENDROOT
BRANCH   4   6
ATOM      6  C   UNL     1       3.591   6.117  17.772  0.00  0.00    +0.000 A 
ATOM      7  C   UNL     1       3.283   4.740  17.833  0.00  0.00    +0.000 A 
ATOM      8  C   UNL     1       4.020   3.766  17.151  0.00  0.00    +0.000 A 
ATOM      9  C   UNL     1       5.089   4.230  16.391  0.00  0.00    +0.000 A 
ATOM     10  N   UNL     1       6.027   3.579  15.633  0.00  0.00    +0.000 N 
ATOM     11  C   UNL     1       6.862   4.521  15.102  0.00  0.00    +0.000 A 
ATOM     12  N   UNL     1       6.519   5.735  15.466  0.00  0.00    +0.000 NA
ATOM     13  C   UNL     1       5.419   5.576  16.278  0.00  0.00    +0.000 A 
ATOM     14  C   UNL     1       4.661   6.541  16.968  0.00  0.00    +0.000 A 
ATOM     15  H   UNL     1       6.096   2.580  15.500  0.00  0.00    +0.000 HD
ENDBRANCH   4   6
BRANCH   1  16
ATOM     16  C   UNL     1       0.840   9.987  18.935  0.00  0.00    +0.000 C 
BRANCH  16  17
ATOM     17  O   UNL     1       0.013   9.839  17.776  0.00  0.00    +0.000 OA
BRANCH  17  21
ATOM     18  C   UNL     1      -3.889  11.316  17.976  0.00  0.00    +0.000 A 
ATOM     19  C   UNL     1      -3.519  10.350  17.043  0.00  0.00    +0.000 A 
ATOM     20  C   UNL     1      -2.206   9.878  17.009  0.00  0.00    +0.000 A 
ATOM     21  C   UNL     1      -1.244  10.380  17.891  0.00  0.00    +0.000 A 
ATOM     22  C   UNL     1      -1.625  11.338  18.835  0.00  0.00    +0.000 A 
ATOM     23  C   UNL     1      -2.944  11.803  18.875  0.00  0.00    +0.000 A 
ENDBRANCH  17  21
ENDBRANCH  16  17
ENDBRANCH   1  16
TORSDOF 4
ENDMDL
MODEL 9
REMARK VINA RESULT:      -7.5      4.647      6.728
REMARK  Name = 
REMARK  4 active torsions:
REMARK  status: ('A' for Active; 'I' for Inactive)
REMARK    1  A    between atoms: C_4  and  O_5
REMARK    2  A    between atoms: O_5  and  C_6
REMARK    3  A    between atoms: C_6  and  C_7
REMARK    4  A    between atoms: C_10  and  C_11
REMARK                            x       y       z     vdW  Elec       q    Type
REMARK                         _______ _______ _______ _____ _____    ______ ____
ROOT
ATOM      1  C   UNL     1       7.341   6.994  17.620  0.00  0.00    +0.000 A 
ATOM      2  N   UNL     1       7.347   6.419  16.435  0.00  0.00    +0.000 NA
ATOM      3  N   UNL     1       6.382   5.441  16.469  0.00  0.00    +0.000 NA
ATOM      4  C   UNL     1       5.840   5.473  17.675  0.00  0.00    +0.000 A 
ATOM      5  O   UNL     1       6.405   6.439  18.474  0.00  0.00    +0.000 OA
ENDROOT
BRANCH   4   6
ATOM      6  C   UNL     1       4.776   4.614  18.188  0.00  0.00    +0.000 A 
ATOM      7  C   UNL     1       5.102   3.704  19.219  0.00  0.00    +0.000 A 
ATOM      8  C   UNL     1       4.181   2.789  19.742  0.00  0.00    +0.000 A 
ATOM      9  C   UNL     1       2.905   2.824  19.190  0.00  0.00    +0.000 A 
ATOM     10  N   UNL     1       1.782   2.074  19.426  0.00  0.00    +0.000 N 
ATOM     11  C   UNL     1       0.796   2.524  18.594  0.00  0.00    +0.000 A 
ATOM     12  N   UNL     1       1.211   3.518  17.843  0.00  0.00    +0.000 NA
ATOM     13  C   UNL     1       2.527   3.716  18.192  0.00  0.00    +0.000 A 
ATOM     14  C   UNL     1       3.466   4.633  17.683  0.00  0.00    +0.000 A 
ATOM     15  H   UNL     1       1.701   1.315  20.087  0.00  0.00    +0.000 HD
ENDBRANCH   4   6
BRANCH   1  16
ATOM     16  C   UNL     1       8.282   8.020  18.136  0.00  0.00    +0.000 C 
BRANCH  16  17
ATOM     17  O   UNL     1       7.820   9.316  17.739  0.00  0.00    +0.000 OA
BRANCH  17  21
ATOM     18  C   UNL     1      10.104  12.363  19.454  0.00  0.00    +0.000 A 
ATOM     19  C   UNL     1      10.041  11.090  20.017  0.00  0.00    +0.000 A 
ATOM     20  C   UNL     1       9.269  10.096  19.412  0.00  0.00    +0.000 A 
ATOM     21  C   UNL     1       8.536  10.368  18.253  0.00  0.00    +0.000 A 
ATOM     22  C   UNL     1       8.616  11.642  17.684  0.00  0.00    +0.000 A 
ATOM     23  C   UNL     1       9.398  12.635  18.285  0.00  0.00    +0.000 A 
ENDBRANCH  17  21
ENDBRANCH  16  17
ENDBRANCH   1  16
TORSDOF 4
ENDMDL
