MODEL 1
REMARK VINA RESULT:      -7.9      0.000      0.000
REMARK  Name = 
REMARK  6 active torsions:
REMARK  status: ('A' for Active; 'I' for Inactive)
REMARK    1  A    between atoms: C_1  and  C_2
REMARK    2  A    between atoms: C_4  and  N_5
REMARK    3  A    between atoms: N_8  and  C_9
REMARK    4  A    between atoms: C_9  and  C_10
REMARK    5  A    between atoms: C_13  and  C_14
REMARK    6  A    between atoms: C_17  and  O_18
REMARK                            x       y       z     vdW  Elec       q    Type
REMARK                         _______ _______ _______ _____ _____    ______ ____
ROOT
ATOM      1  N   UNL     1       2.391   7.333  18.676  0.00  0.00    +0.000 N 
ATOM      2  C   UNL     1       1.570   7.521  19.896  0.00  0.00    +0.000 C 
ATOM      3  C   UNL     1       1.602   9.005  20.352  0.00  0.00    +0.000 C 
ATOM      4  N   UNL     1       1.225   9.989  19.302  0.00  0.00    +0.000 NA
ATOM      5  C   UNL     1       2.091   9.712  18.123  0.00  0.00    +0.000 C 
ATOM      6  C   UNL     1       2.006   8.263  17.586  0.00  0.00    +0.000 C 
ENDROOT
BRANCH   1  10
ATOM      7  C   UNL     1       1.240   2.517  18.564  0.00  0.00    +0.000 C 
ATOM      8  C   UNL     1       2.131   3.663  18.193  0.00  0.00    +0.000 A 
ATOM      9  C   UNL     1       1.820   4.958  18.578  0.00  0.00    +0.000 A 
ATOM     10  C   UNL     1       2.681   6.014  18.256  0.00  0.00    +0.000 A 
ATOM     11  C   UNL     1       3.874   5.702  17.528  0.00  0.00    +0.000 A 
ATOM     12  C   UNL     1       4.887   6.631  17.170  0.00  0.00    +0.000 A 
ATOM     13  C   UNL     1       6.018   6.257  16.436  0.00  0.00    +0.000 A 
ATOM     14  C   UNL     1       6.178   4.928  16.069  0.00  0.00    +0.000 A 
ATOM     15  C   UNL     1       5.214   3.996  16.445  0.00  0.00    +0.000 A 
ATOM     16  C   UNL     1       4.079   4.349  17.160  0.00  0.00    +0.000 A 
ATOM     17  N   UNL     1       3.236   3.361  17.487  0.00  0.00    +0.000 NA
ENDBRANCH   1  10
BRANCH   4  18
ATOM     18  C   UNL     1      -0.215   9.862  18.993  0.00  0.00    +0.000 C 
BRANCH  18  19
ATOM     19  C   UNL     1      -1.021  10.952  19.608  0.00  0.00    +0.000 A 
ATOM     20  C   UNL     1      -1.855  11.864  19.005  0.00  0.00    +0.000 A 
ATOM     21  O   UNL     1      -2.358  12.680  19.969  0.00  0.00    +0.000 OA
ATOM     22  C   UNL     1      -1.795  12.224  21.135  0.00  0.00    +0.000 A 
ATOM     23  N   UNL     1      -0.975  11.202  20.968  0.00  0.00    +0.000 NA
BRANCH  22  24
ATOM     24  C   UNL     1      -2.169  12.930  22.357  0.00  0.00    +0.000 A 
ATOM     25  C   UNL     1      -1.319  13.890  22.931  0.00  0.00    +0.000 A 
ATOM     26  C   UNL     1      -1.674  14.550  24.111  0.00  0.00    +0.000 A 
ATOM     27  C   UNL     1      -2.884  14.249  24.723  0.00  0.00    +0.000 A 
ATOM     28  C   UNL     1      -3.748  13.311  24.170  0.00  0.00    +0.000 A 
ATOM     29  C   UNL     1      -3.391  12.654  22.988  0.00  0.00    +0.000 A 
BRANCH  27  30
ATOM     30  O   UNL     1      -3.260  14.859  25.881  0.00  0.00    +0.000 OA
ATOM     31  H   UNL     1      -2.493  15.333  26.246  0.00  0.00    +0.000 HD
ENDBRANCH  27  30
ENDBRANCH  22  24
ENDBRANCH  18  19
ENDBRANCH   4  18
TORSDOF 5
ENDMDL
MODEL 2
REMARK VINA RESULT:      -7.9      1.134      1.537
REMARK  Name = 
REMARK  6 active torsions:
REMARK  status: ('A' for Active; 'I' for Inactive)
REMARK    1  A    between atoms: C_1  and  C_2
REMARK    2  A    between atoms: C_4  and  N_5
REMARK    3  A    between atoms: N_8  and  C_9
REMARK    4  A    between atoms: C_9  and  C_10
REMARK    5  A    between atoms: C_13  and  C_14
REMARK    6  A    between atoms: C_17  and  O_18
REMARK                            x       y       z     vdW  Elec       q    Type
REMARK                         _______ _______ _______ _____ _____    ______ ____
ROOT
ATOM      1  N   UNL     1       2.397   7.293  18.717  0.00  0.00    +0.000 N 
ATOM      2  C   UNL     1       2.015   7.502  20.134  0.00  0.00    +0.000 C 
ATOM      3  C   UNL     1       2.089   9.008  20.503  0.00  0.00    +0.000 C 
ATOM      4  N   UNL     1       1.316   9.909  19.606  0.00  0.00    +0.000 NA
ATOM      5  C   UNL     1       1.763   9.617  18.216  0.00  0.00    +0.000 C 
ATOM      6  C   UNL     1       1.609   8.138  17.787  0.00  0.00    +0.000 C 
ENDROOT
BRANCH   1  10
ATOM      7  C   UNL     1       1.102   2.514  18.617  0.00  0.00    +0.000 C 
ATOM      8  C   UNL     1       2.006   3.638  18.211  0.00  0.00    +0.000 A 
ATOM      9  C   UNL     1       1.753   4.937  18.625  0.00  0.00    +0.000 A 
ATOM     10  C   UNL     1       2.627   5.971  18.269  0.00  0.00    +0.000 A 
ATOM     11  C   UNL     1       3.770   5.633  17.476  0.00  0.00    +0.000 A 
ATOM     12  C   UNL     1       4.789   6.537  17.074  0.00  0.00    +0.000 A 
ATOM     13  C   UNL     1       5.869   6.140  16.278  0.00  0.00    +0.000 A 
ATOM     14  C   UNL     1       5.971   4.811  15.889  0.00  0.00    +0.000 A 
ATOM     15  C   UNL     1       5.001   3.903  16.306  0.00  0.00    +0.000 A 
ATOM     16  C   UNL     1       3.915   4.280  17.084  0.00  0.00    +0.000 A 
ATOM     17  N   UNL     1       3.063   3.313  17.445  0.00  0.00    +0.000 NA
ENDBRANCH   1  10
BRANCH   4  18
ATOM     18  C   UNL     1      -0.132   9.685  19.799  0.00  0.00    +0.000 C 
BRANCH  18  19
ATOM     19  C   UNL     1      -0.608  10.184  21.118  0.00  0.00    +0.000 A 
ATOM     20  C   UNL     1      -0.595   9.557  22.342  0.00  0.00    +0.000 A 
ATOM     21  O   UNL     1      -1.154  10.396  23.253  0.00  0.00    +0.000 OA
ATOM     22  C   UNL     1      -1.491  11.514  22.532  0.00  0.00    +0.000 A 
ATOM     23  N   UNL     1      -1.199  11.428  21.247  0.00  0.00    +0.000 NA
BRANCH  22  24
ATOM     24  C   UNL     1      -2.120  12.602  23.275  0.00  0.00    +0.000 A 
ATOM     25  C   UNL     1      -3.445  12.501  23.731  0.00  0.00    +0.000 A 
ATOM     26  C   UNL     1      -4.049  13.552  24.425  0.00  0.00    +0.000 A 
ATOM     27  C   UNL     1      -3.326  14.714  24.667  0.00  0.00    +0.000 A 
ATOM     28  C   UNL     1      -2.010  14.836  24.236  0.00  0.00    +0.000 A 
ATOM     29  C   UNL     1      -1.408  13.780  23.543  0.00  0.00    +0.000 A 
BRANCH  27  30
ATOM     30  O   UNL     1      -3.882  15.767  25.327  0.00  0.00    +0.000 OA
ATOM     31  H   UNL     1      -3.420  16.580  25.061  0.00  0.00    +0.000 HD
ENDBRANCH  27  30
ENDBRANCH  22  24
ENDBRANCH  18  19
ENDBRANCH   4  18
TORSDOF 5
ENDMDL
MODEL 3
REMARK VINA RESULT:      -7.8      3.152     10.888
REMARK  Name = 
REMARK  6 active torsions:
REMARK  status: ('A' for Active; 'I' for Inactive)
REMARK    1  A    between atoms: C_1  and  C_2
REMARK    2  A    between atoms: C_4  and  N_5
REMARK    3  A    between atoms: N_8  and  C_9
REMARK    4  A    between atoms: C_9  and  C_10
REMARK    5  A    between atoms: C_13  and  C_14
REMARK    6  A    between atoms: C_17  and  O_18
REMARK                            x       y       z     vdW  Elec       q    Type
REMARK                         _______ _______ _______ _____ _____    ______ ____
ROOT
ATOM      1  N   UNL     1      -1.178  12.200  22.485  0.00  0.00    +0.000 N 
ATOM      2  C   UNL     1      -0.575  12.504  21.165  0.00  0.00    +0.000 C 
ATOM      3  C   UNL     1       0.842  11.878  21.055  0.00  0.00    +0.000 C 
ATOM      4  N   UNL     1       0.903  10.419  21.343  0.00  0.00    +0.000 NA
ATOM      5  C   UNL     1       0.268  10.218  22.675  0.00  0.00    +0.000 C 
ATOM      6  C   UNL     1      -1.183  10.747  22.784  0.00  0.00    +0.000 C 
ENDROOT
BRANCH   1  10
ATOM      7  C   UNL     1      -6.084  12.798  22.164  0.00  0.00    +0.000 C 
ATOM      8  C   UNL     1      -4.747  13.189  22.715  0.00  0.00    +0.000 A 
ATOM      9  C   UNL     1      -3.603  12.487  22.368  0.00  0.00    +0.000 A 
ATOM     10  C   UNL     1      -2.355  12.887  22.862  0.00  0.00    +0.000 A 
ATOM     11  C   UNL     1      -2.315  14.031  23.722  0.00  0.00    +0.000 A 
ATOM     12  C   UNL     1      -1.138  14.612  24.265  0.00  0.00    +0.000 A 
ATOM     13  C   UNL     1      -1.178  15.720  25.119  0.00  0.00    +0.000 A 
ATOM     14  C   UNL     1      -2.403  16.295  25.427  0.00  0.00    +0.000 A 
ATOM     15  C   UNL     1      -3.564  15.761  24.873  0.00  0.00    +0.000 A 
ATOM     16  C   UNL     1      -3.548  14.655  24.035  0.00  0.00    +0.000 A 
ATOM     17  N   UNL     1      -4.725  14.250  23.543  0.00  0.00    +0.000 NA
ENDBRANCH   1  10
BRANCH   4  18
ATOM     18  C   UNL     1       0.223   9.668  20.268  0.00  0.00    +0.000 C 
BRANCH  18  19
ATOM     19  C   UNL     1       1.177   9.167  19.241  0.00  0.00    +0.000 A 
ATOM     20  C   UNL     1       1.564   9.747  18.056  0.00  0.00    +0.000 A 
ATOM     21  O   UNL     1       2.439   8.908  17.440  0.00  0.00    +0.000 OA
ATOM     22  C   UNL     1       2.545   7.836  18.290  0.00  0.00    +0.000 A 
ATOM     23  N   UNL     1       1.796   7.936  19.373  0.00  0.00    +0.000 NA
BRANCH  22  24
ATOM     24  C   UNL     1       3.440   6.761  17.871  0.00  0.00    +0.000 A 
ATOM     25  C   UNL     1       3.276   5.450  18.349  0.00  0.00    +0.000 A 
ATOM     26  C   UNL     1       4.147   4.429  17.959  0.00  0.00    +0.000 A 
ATOM     27  C   UNL     1       5.189   4.717  17.087  0.00  0.00    +0.000 A 
ATOM     28  C   UNL     1       5.367   6.003  16.591  0.00  0.00    +0.000 A 
ATOM     29  C   UNL     1       4.492   7.022  16.981  0.00  0.00    +0.000 A 
BRANCH  27  30
ATOM     30  O   UNL     1       6.067   3.753  16.694  0.00  0.00    +0.000 OA
ATOM     31  H   UNL     1       6.344   3.938  15.781  0.00  0.00    +0.000 HD
ENDBRANCH  27  30
ENDBRANCH  22  24
ENDBRANCH  18  19
ENDBRANCH   4  18
TORSDOF 5
ENDMDL
MODEL 4
REMARK VINA RESULT:      -7.8      1.040      1.404
REMARK  Name = 
REMARK  6 active torsions:
REMARK  status: ('A' for Active; 'I' for Inactive)
REMARK    1  A    between atoms: C_1  and  C_2
REMARK    2  A    between atoms: C_4  and  N_5
REMARK    3  A    between atoms: N_8  and  C_9
REMARK    4  A    between atoms: C_9  and  C_10
REMARK    5  A    between atoms: C_13  and  C_14
REMARK    6  A    between atoms: C_17  and  O_18
REMARK                            x       y       z     vdW  Elec       q    Type
REMARK                         _______ _______ _______ _____ _____    ______ ____
ROOT
ATOM      1  N   UNL     1       2.246   7.800  19.275  0.00  0.00    +0.000 N 
ATOM      2  C   UNL     1       1.354   8.342  20.329  0.00  0.00    +0.000 C 
ATOM      3  C   UNL     1       1.336   9.894  20.284  0.00  0.00    +0.000 C 
ATOM      4  N   UNL     1       1.002  10.476  18.956  0.00  0.00    +0.000 NA
ATOM      5  C   UNL     1       1.939   9.865  17.972  0.00  0.00    +0.000 C 
ATOM      6  C   UNL     1       1.908   8.318  17.926  0.00  0.00    +0.000 C 
ENDROOT
BRANCH   1  10
ATOM      7  C   UNL     1       1.887   3.362  21.444  0.00  0.00    +0.000 C 
ATOM      8  C   UNL     1       2.415   4.257  20.364  0.00  0.00    +0.000 A 
ATOM      9  C   UNL     1       2.051   5.594  20.310  0.00  0.00    +0.000 A 
ATOM     10  C   UNL     1       2.582   6.427  19.317  0.00  0.00    +0.000 A 
ATOM     11  C   UNL     1       3.498   5.848  18.381  0.00  0.00    +0.000 A 
ATOM     12  C   UNL     1       4.177   6.551  17.351  0.00  0.00    +0.000 A 
ATOM     13  C   UNL     1       5.044   5.913  16.457  0.00  0.00    +0.000 A 
ATOM     14  C   UNL     1       5.277   4.552  16.595  0.00  0.00    +0.000 A 
ATOM     15  C   UNL     1       4.650   3.854  17.623  0.00  0.00    +0.000 A 
ATOM     16  C   UNL     1       3.776   4.465  18.511  0.00  0.00    +0.000 A 
ATOM     17  N   UNL     1       3.255   3.696  19.476  0.00  0.00    +0.000 NA
ENDBRANCH   1  10
BRANCH   4  18
ATOM     18  C   UNL     1      -0.415  10.208  18.635  0.00  0.00    +0.000 C 
BRANCH  18  19
ATOM     19  C   UNL     1      -1.338  11.134  19.346  0.00  0.00    +0.000 A 
ATOM     20  C   UNL     1      -2.418  11.832  18.858  0.00  0.00    +0.000 A 
ATOM     21  O   UNL     1      -2.942  12.566  19.875  0.00  0.00    +0.000 OA
ATOM     22  C   UNL     1      -2.144  12.281  20.954  0.00  0.00    +0.000 A 
ATOM     23  N   UNL     1      -1.160  11.442  20.683  0.00  0.00    +0.000 NA
BRANCH  22  24
ATOM     24  C   UNL     1      -2.485  12.944  22.209  0.00  0.00    +0.000 A 
ATOM     25  C   UNL     1      -3.743  12.766  22.807  0.00  0.00    +0.000 A 
ATOM     26  C   UNL     1      -4.072  13.418  23.999  0.00  0.00    +0.000 A 
ATOM     27  C   UNL     1      -3.137  14.253  24.599  0.00  0.00    +0.000 A 
ATOM     28  C   UNL     1      -1.881  14.438  24.034  0.00  0.00    +0.000 A 
ATOM     29  C   UNL     1      -1.555  13.782  22.842  0.00  0.00    +0.000 A 
BRANCH  27  30
ATOM     30  O   UNL     1      -3.423  14.917  25.753  0.00  0.00    +0.000 OA
ATOM     31  H   UNL     1      -4.383  14.882  25.902  0.00  0.00    +0.000 HD
ENDBRANCH  27  30
ENDBRANCH  22  24
ENDBRANCH  18  19
ENDBRANCH   4  18
TORSDOF 5
ENDMDL
MODEL 5
REMARK VINA RESULT:      -7.7      1.492      2.943
REMARK  Name = 
REMARK  6 active torsions:
REMARK  status: ('A' for Active; 'I' for Inactive)
REMARK    1  A    between atoms: C_1  and  C_2
REMARK    2  A    between atoms: C_4  and  N_5
REMARK    3  A    between atoms: N_8  and  C_9
REMARK    4  A    between atoms: C_9  and  C_10
REMARK    5  A    between atoms: C_13  and  C_14
REMARK    6  A    between atoms: C_17  and  O_18
REMARK                            x       y       z     vdW  Elec       q    Type
REMARK                         _______ _______ _______ _____ _____    ______ ____
ROOT
ATOM      1  N   UNL     1       2.194   7.482  18.511  0.00  0.00    +0.000 N 
ATOM      2  C   UNL     1       2.059   8.722  17.710  0.00  0.00    +0.000 C 
ATOM      3  C   UNL     1       0.736   9.456  18.058  0.00  0.00    +0.000 C 
ATOM      4  N   UNL     1       0.540   9.736  19.506  0.00  0.00    +0.000 NA
ATOM      5  C   UNL     1       0.703   8.439  20.220  0.00  0.00    +0.000 C 
ATOM      6  C   UNL     1       2.057   7.731  19.967  0.00  0.00    +0.000 C 
ENDROOT
BRANCH   1  10
ATOM      7  C   UNL     1       6.865   6.552  17.152  0.00  0.00    +0.000 C 
ATOM      8  C   UNL     1       5.481   6.091  17.496  0.00  0.00    +0.000 A 
ATOM      9  C   UNL     1       4.504   7.000  17.876  0.00  0.00    +0.000 A 
ATOM     10  C   UNL     1       3.206   6.559  18.159  0.00  0.00    +0.000 A 
ATOM     11  C   UNL     1       2.938   5.157  18.041  0.00  0.00    +0.000 A 
ATOM     12  C   UNL     1       1.671   4.543  18.230  0.00  0.00    +0.000 A 
ATOM     13  C   UNL     1       1.488   3.160  18.119  0.00  0.00    +0.000 A 
ATOM     14  C   UNL     1       2.571   2.358  17.783  0.00  0.00    +0.000 A 
ATOM     15  C   UNL     1       3.811   2.948  17.557  0.00  0.00    +0.000 A 
ATOM     16  C   UNL     1       4.017   4.315  17.675  0.00  0.00    +0.000 A 
ATOM     17  N   UNL     1       5.247   4.769  17.406  0.00  0.00    +0.000 NA
ENDBRANCH   1  10
BRANCH   4  18
ATOM     18  C   UNL     1       1.508  10.759  19.953  0.00  0.00    +0.000 C 
BRANCH  18  19
ATOM     19  C   UNL     1       0.848  11.881  20.676  0.00  0.00    +0.000 A 
ATOM     20  C   UNL     1       1.318  13.147  20.930  0.00  0.00    +0.000 A 
ATOM     21  O   UNL     1       0.371  13.815  21.641  0.00  0.00    +0.000 OA
ATOM     22  C   UNL     1      -0.648  12.909  21.794  0.00  0.00    +0.000 A 
ATOM     23  N   UNL     1      -0.403  11.732  21.247  0.00  0.00    +0.000 NA
BRANCH  22  24
ATOM     24  C   UNL     1      -1.821  13.368  22.533  0.00  0.00    +0.000 A 
ATOM     25  C   UNL     1      -2.611  12.473  23.272  0.00  0.00    +0.000 A 
ATOM     26  C   UNL     1      -3.742  12.915  23.964  0.00  0.00    +0.000 A 
ATOM     27  C   UNL     1      -4.089  14.259  23.916  0.00  0.00    +0.000 A 
ATOM     28  C   UNL     1      -3.318  15.168  23.200  0.00  0.00    +0.000 A 
ATOM     29  C   UNL     1      -2.185  14.723  22.512  0.00  0.00    +0.000 A 
BRANCH  27  30
ATOM     30  O   UNL     1      -5.192  14.727  24.564  0.00  0.00    +0.000 OA
ATOM     31  H   UNL     1      -5.423  14.104  25.273  0.00  0.00    +0.000 HD
ENDBRANCH  27  30
ENDBRANCH  22  24
ENDBRANCH  18  19
ENDBRANCH   4  18
TORSDOF 5
ENDMDL
MODEL 6
REMARK VINA RESULT:      -7.6      4.923     10.321
REMARK  Name = 
REMARK  6 active torsions:
REMARK  status: ('A' for Active; 'I' for Inactive)
REMARK    1  A    between atoms: C_1  and  C_2
REMARK    2  A    between atoms: C_4  and  N_5
REMARK    3  A    between atoms: N_8  and  C_9
REMARK    4  A    between atoms: C_9  and  C_10
REMARK    5  A    between atoms: C_13  and  C_14
REMARK    6  A    between atoms: C_17  and  O_18
REMARK                            x       y       z     vdW  Elec       q    Type
REMARK                         _______ _______ _______ _____ _____    ______ ____
ROOT
ATOM      1  N   UNL     1       1.104  13.945  19.466  0.00  0.00    +0.000 N 
ATOM      2  C   UNL     1       1.919  12.962  20.221  0.00  0.00    +0.000 C 
ATOM      3  C   UNL     1       1.006  11.911  20.909  0.00  0.00    +0.000 C 
ATOM      4  N   UNL     1       0.052  11.221  19.999  0.00  0.00    +0.000 NA
ATOM      5  C   UNL     1      -0.705  12.286  19.284  0.00  0.00    +0.000 C 
ATOM      6  C   UNL     1       0.177  13.294  18.508  0.00  0.00    +0.000 C 
ENDROOT
BRANCH   1  10
ATOM      7  C   UNL     1       5.239  16.456  18.405  0.00  0.00    +0.000 C 
ATOM      8  C   UNL     1       3.745  16.348  18.458  0.00  0.00    +0.000 A 
ATOM      9  C   UNL     1       3.133  15.186  18.902  0.00  0.00    +0.000 A 
ATOM     10  C   UNL     1       1.736  15.112  18.980  0.00  0.00    +0.000 A 
ATOM     11  C   UNL     1       0.986  16.268  18.592  0.00  0.00    +0.000 A 
ATOM     12  C   UNL     1      -0.427  16.395  18.663  0.00  0.00    +0.000 A 
ATOM     13  C   UNL     1      -1.096  17.550  18.243  0.00  0.00    +0.000 A 
ATOM     14  C   UNL     1      -0.357  18.626  17.769  0.00  0.00    +0.000 A 
ATOM     15  C   UNL     1       1.031  18.533  17.728  0.00  0.00    +0.000 A 
ATOM     16  C   UNL     1       1.713  17.392  18.126  0.00  0.00    +0.000 A 
ATOM     17  N   UNL     1       3.050  17.431  18.067  0.00  0.00    +0.000 NA
ENDBRANCH   1  10
BRANCH   4  18
ATOM     18  C   UNL     1       0.793  10.333  19.079  0.00  0.00    +0.000 C 
BRANCH  18  19
ATOM     19  C   UNL     1       1.132   9.028  19.708  0.00  0.00    +0.000 A 
ATOM     20  C   UNL     1       0.742   8.521  20.925  0.00  0.00    +0.000 A 
ATOM     21  O   UNL     1       1.319   7.300  21.080  0.00  0.00    +0.000 OA
ATOM     22  C   UNL     1       2.050   7.116  19.933  0.00  0.00    +0.000 A 
ATOM     23  N   UNL     1       1.983   8.130  19.089  0.00  0.00    +0.000 NA
BRANCH  22  24
ATOM     24  C   UNL     1       2.787   5.861  19.826  0.00  0.00    +0.000 A 
ATOM     25  C   UNL     1       2.320   4.688  20.442  0.00  0.00    +0.000 A 
ATOM     26  C   UNL     1       3.039   3.493  20.351  0.00  0.00    +0.000 A 
ATOM     27  C   UNL     1       4.234   3.468  19.642  0.00  0.00    +0.000 A 
ATOM     28  C   UNL     1       4.713   4.611  19.015  0.00  0.00    +0.000 A 
ATOM     29  C   UNL     1       3.989   5.805  19.105  0.00  0.00    +0.000 A 
BRANCH  27  30
ATOM     30  O   UNL     1       4.972   2.327  19.543  0.00  0.00    +0.000 OA
ATOM     31  H   UNL     1       5.097   2.120  18.601  0.00  0.00    +0.000 HD
ENDBRANCH  27  30
ENDBRANCH  22  24
ENDBRANCH  18  19
ENDBRANCH   4  18
TORSDOF 5
ENDMDL
MODEL 7
REMARK VINA RESULT:      -7.6      3.311     10.615
REMARK  Name = 
REMARK  6 active torsions:
REMARK  status: ('A' for Active; 'I' for Inactive)
REMARK    1  A    between atoms: C_1  and  C_2
REMARK    2  A    between atoms: C_4  and  N_5
REMARK    3  A    between atoms: N_8  and  C_9
REMARK    4  A    between atoms: C_9  and  C_10
REMARK    5  A    between atoms: C_13  and  C_14
REMARK    6  A    between atoms: C_17  and  O_18
REMARK                            x       y       z     vdW  Elec       q    Type
REMARK                         _______ _______ _______ _____ _____    ______ ____
ROOT
ATOM      1  N   UNL     1      -1.537  12.173  20.157  0.00  0.00    +0.000 N 
ATOM      2  C   UNL     1      -0.895  12.724  18.939  0.00  0.00    +0.000 C 
ATOM      3  C   UNL     1       0.652  12.677  19.070  0.00  0.00    +0.000 C 
ATOM      4  N   UNL     1       1.209  11.339  19.405  0.00  0.00    +0.000 NA
ATOM      5  C   UNL     1       0.497  10.871  20.627  0.00  0.00    +0.000 C 
ATOM      6  C   UNL     1      -1.044  10.815  20.493  0.00  0.00    +0.000 C 
ENDROOT
BRANCH   1  10
ATOM      7  C   UNL     1      -6.100  12.382  18.241  0.00  0.00    +0.000 C 
ATOM      8  C   UNL     1      -5.159  12.462  19.405  0.00  0.00    +0.000 A 
ATOM      9  C   UNL     1      -3.801  12.244  19.236  0.00  0.00    +0.000 A 
ATOM     10  C   UNL     1      -2.929  12.358  20.327  0.00  0.00    +0.000 A 
ATOM     11  C   UNL     1      -3.493  12.705  21.596  0.00  0.00    +0.000 A 
ATOM     12  C   UNL     1      -2.758  12.922  22.792  0.00  0.00    +0.000 A 
ATOM     13  C   UNL     1      -3.380  13.237  24.005  0.00  0.00    +0.000 A 
ATOM     14  C   UNL     1      -4.761  13.374  24.042  0.00  0.00    +0.000 A 
ATOM     15  C   UNL     1      -5.494  13.202  22.871  0.00  0.00    +0.000 A 
ATOM     16  C   UNL     1      -4.898  12.876  21.662  0.00  0.00    +0.000 A 
ATOM     17  N   UNL     1      -5.704  12.764  20.598  0.00  0.00    +0.000 NA
ENDBRANCH   1  10
BRANCH   4  18
ATOM     18  C   UNL     1       1.036  10.423  18.258  0.00  0.00    +0.000 C 
BRANCH  18  19
ATOM     19  C   UNL     1       1.706   9.113  18.477  0.00  0.00    +0.000 A 
ATOM     20  C   UNL     1       1.769   8.347  19.618  0.00  0.00    +0.000 A 
ATOM     21  O   UNL     1       2.510   7.241  19.345  0.00  0.00    +0.000 OA
ATOM     22  C   UNL     1       2.874   7.386  18.029  0.00  0.00    +0.000 A 
ATOM     23  N   UNL     1       2.431   8.498  17.472  0.00  0.00    +0.000 NA
BRANCH  22  24
ATOM     24  C   UNL     1       3.691   6.318  17.460  0.00  0.00    +0.000 A 
ATOM     25  C   UNL     1       3.382   4.967  17.684  0.00  0.00    +0.000 A 
ATOM     26  C   UNL     1       4.177   3.949  17.151  0.00  0.00    +0.000 A 
ATOM     27  C   UNL     1       5.291   4.282  16.389  0.00  0.00    +0.000 A 
ATOM     28  C   UNL     1       5.613   5.611  16.144  0.00  0.00    +0.000 A 
ATOM     29  C   UNL     1       4.813   6.627  16.676  0.00  0.00    +0.000 A 
BRANCH  27  30
ATOM     30  O   UNL     1       6.100   3.320  15.864  0.00  0.00    +0.000 OA
ATOM     31  H   UNL     1       6.977   3.394  16.277  0.00  0.00    +0.000 HD
ENDBRANCH  27  30
ENDBRANCH  22  24
ENDBRANCH  18  19
ENDBRANCH   4  18
TORSDOF 5
ENDMDL
MODEL 8
REMARK VINA RESULT:      -7.6      3.538     10.521
REMARK  Name = 
REMARK  6 active torsions:
REMARK  status: ('A' for Active; 'I' for Inactive)
REMARK    1  A    between atoms: C_1  and  C_2
REMARK    2  A    between atoms: C_4  and  N_5
REMARK    3  A    between atoms: N_8  and  C_9
REMARK    4  A    between atoms: C_9  and  C_10
REMARK    5  A    between atoms: C_13  and  C_14
REMARK    6  A    between atoms: C_17  and  O_18
REMARK                            x       y       z     vdW  Elec       q    Type
REMARK                         _______ _______ _______ _____ _____    ______ ____
ROOT
ATOM      1  N   UNL     1      -1.541  11.630  19.313  0.00  0.00    +0.000 N 
ATOM      2  C   UNL     1      -1.544  10.210  18.885  0.00  0.00    +0.000 C 
ATOM      3  C   UNL     1      -0.233   9.865  18.128  0.00  0.00    +0.000 C 
ATOM      4  N   UNL     1       1.018  10.196  18.864  0.00  0.00    +0.000 NA
ATOM      5  C   UNL     1       0.919  11.629  19.256  0.00  0.00    +0.000 C 
ATOM      6  C   UNL     1      -0.332  11.983  20.097  0.00  0.00    +0.000 C 
ENDROOT
BRANCH   1  10
ATOM      7  C   UNL     1      -4.102  13.805  22.952  0.00  0.00    +0.000 C 
ATOM      8  C   UNL     1      -4.006  13.252  21.563  0.00  0.00    +0.000 A 
ATOM      9  C   UNL     1      -2.811  12.737  21.084  0.00  0.00    +0.000 A 
ATOM     10  C   UNL     1      -2.746  12.190  19.796  0.00  0.00    +0.000 A 
ATOM     11  C   UNL     1      -3.946  12.185  19.014  0.00  0.00    +0.000 A 
ATOM     12  C   UNL     1      -4.080  11.620  17.718  0.00  0.00    +0.000 A 
ATOM     13  C   UNL     1      -5.281  11.673  17.001  0.00  0.00    +0.000 A 
ATOM     14  C   UNL     1      -6.392  12.268  17.584  0.00  0.00    +0.000 A 
ATOM     15  C   UNL     1      -6.288  12.793  18.869  0.00  0.00    +0.000 A 
ATOM     16  C   UNL     1      -5.103  12.764  19.590  0.00  0.00    +0.000 A 
ATOM     17  N   UNL     1      -5.133  13.276  20.828  0.00  0.00    +0.000 NA
ENDBRANCH   1  10
BRANCH   4  18
ATOM     18  C   UNL     1       1.166   9.295  20.026  0.00  0.00    +0.000 C 
BRANCH  18  19
ATOM     19  C   UNL     1       1.866   8.030  19.672  0.00  0.00    +0.000 A 
ATOM     20  C   UNL     1       1.997   6.874  20.405  0.00  0.00    +0.000 A 
ATOM     21  O   UNL     1       2.738   5.995  19.681  0.00  0.00    +0.000 OA
ATOM     22  C   UNL     1       3.034   6.667  18.521  0.00  0.00    +0.000 A 
ATOM     23  N   UNL     1       2.548   7.894  18.476  0.00  0.00    +0.000 NA
BRANCH  22  24
ATOM     24  C   UNL     1       3.836   5.946  17.537  0.00  0.00    +0.000 A 
ATOM     25  C   UNL     1       3.768   4.547  17.427  0.00  0.00    +0.000 A 
ATOM     26  C   UNL     1       4.551   3.860  16.496  0.00  0.00    +0.000 A 
ATOM     27  C   UNL     1       5.410   4.573  15.669  0.00  0.00    +0.000 A 
ATOM     28  C   UNL     1       5.489   5.958  15.750  0.00  0.00    +0.000 A 
ATOM     29  C   UNL     1       4.701   6.643  16.681  0.00  0.00    +0.000 A 
BRANCH  27  30
ATOM     30  O   UNL     1       6.201   3.940  14.759  0.00  0.00    +0.000 OA
ATOM     31  H   UNL     1       6.651   3.200  15.200  0.00  0.00    +0.000 HD
ENDBRANCH  27  30
ENDBRANCH  22  24
ENDBRANCH  18  19
ENDBRANCH   4  18
TORSDOF 5
ENDMDL
MODEL 9
REMARK VINA RESULT:      -7.6      3.569     10.417
REMARK  Name = 
REMARK  6 active torsions:
REMARK  status: ('A' for Active; 'I' for Inactive)
REMARK    1  A    between atoms: C_1  and  C_2
REMARK    2  A    between atoms: C_4  and  N_5
REMARK    3  A    between atoms: N_8  and  C_9
REMARK    4  A    between atoms: C_9  and  C_10
REMARK    5  A    between atoms: C_13  and  C_14
REMARK    6  A    between atoms: C_17  and  O_18
REMARK                            x       y       z     vdW  Elec       q    Type
REMARK                         _______ _______ _______ _____ _____    ______ ____
ROOT
ATOM      1  N   UNL     1      -2.165  12.065  19.838  0.00  0.00    +0.000 N 
ATOM      2  C   UNL     1      -2.039  10.749  19.167  0.00  0.00    +0.000 C 
ATOM      3  C   UNL     1      -0.857  10.762  18.159  0.00  0.00    +0.000 C 
ATOM      4  N   UNL     1       0.447  11.193  18.733  0.00  0.00    +0.000 NA
ATOM      5  C   UNL     1       0.214  12.509  19.389  0.00  0.00    +0.000 C 
ATOM      6  C   UNL     1      -0.896  12.504  20.469  0.00  0.00    +0.000 C 
ENDROOT
BRANCH   1  10
ATOM      7  C   UNL     1      -4.313  12.946  24.214  0.00  0.00    +0.000 C 
ATOM      8  C   UNL     1      -4.387  12.754  22.729  0.00  0.00    +0.000 A 
ATOM      9  C   UNL     1      -3.238  12.538  21.983  0.00  0.00    +0.000 A 
ATOM     10  C   UNL     1      -3.327  12.323  20.602  0.00  0.00    +0.000 A 
ATOM     11  C   UNL     1      -4.630  12.336  20.009  0.00  0.00    +0.000 A 
ATOM     12  C   UNL     1      -4.914  12.078  18.641  0.00  0.00    +0.000 A 
ATOM     13  C   UNL     1      -6.214  12.131  18.125  0.00  0.00    +0.000 A 
ATOM     14  C   UNL     1      -7.271  12.412  18.980  0.00  0.00    +0.000 A 
ATOM     15  C   UNL     1      -7.015  12.629  20.331  0.00  0.00    +0.000 A 
ATOM     16  C   UNL     1      -5.732  12.596  20.860  0.00  0.00    +0.000 A 
ATOM     17  N   UNL     1      -5.614  12.793  22.179  0.00  0.00    +0.000 NA
ENDBRANCH   1  10
BRANCH   4  18
ATOM     18  C   UNL     1       0.942  10.167  19.674  0.00  0.00    +0.000 C 
BRANCH  18  19
ATOM     19  C   UNL     1       1.688   9.081  18.981  0.00  0.00    +0.000 A 
ATOM     20  C   UNL     1       2.284   9.088  17.742  0.00  0.00    +0.000 A 
ATOM     21  O   UNL     1       2.828   7.861  17.526  0.00  0.00    +0.000 OA
ATOM     22  C   UNL     1       2.531   7.148  18.660  0.00  0.00    +0.000 A 
ATOM     23  N   UNL     1       1.836   7.830  19.553  0.00  0.00    +0.000 NA
BRANCH  22  24
ATOM     24  C   UNL     1       3.005   5.768  18.704  0.00  0.00    +0.000 A 
ATOM     25  C   UNL     1       2.176   4.701  18.322  0.00  0.00    +0.000 A 
ATOM     26  C   UNL     1       2.629   3.380  18.382  0.00  0.00    +0.000 A 
ATOM     27  C   UNL     1       3.919   3.122  18.828  0.00  0.00    +0.000 A 
ATOM     28  C   UNL     1       4.764   4.160  19.203  0.00  0.00    +0.000 A 
ATOM     29  C   UNL     1       4.308   5.481  19.138  0.00  0.00    +0.000 A 
BRANCH  27  30
ATOM     30  O   UNL     1       4.394   1.849  18.916  0.00  0.00    +0.000 OA
ATOM     31  H   UNL     1       5.349   1.885  19.091  0.00  0.00    +0.000 HD
ENDBRANCH  27  30
ENDBRANCH  22  24
ENDBRANCH  18  19
ENDBRANCH   4  18
TORSDOF 5
ENDMDL
