MODEL 1
REMARK VINA RESULT:      -8.1      0.000      0.000
REMARK  Name = 
REMARK  9 active torsions:
REMARK  status: ('A' for Active; 'I' for Inactive)
REMARK    1  A    between atoms: N_1  and  C_2
REMARK    2  A    between atoms: C_2  and  C_3
REMARK    3  A    between atoms: C_3  and  C_4
REMARK    4  A    between atoms: C_4  and  C_5
REMARK    5  A    between atoms: C_5  and  N_6
REMARK    6  A    between atoms: C_9  and  C_10
REMARK    7  A    between atoms: C_14  and  N_15
REMARK    8  A    between atoms: N_15  and  C_16
REMARK    9  A    between atoms: C_16  and  C_17
REMARK                            x       y       z     vdW  Elec       q    Type
REMARK                         _______ _______ _______ _____ _____    ______ ____
ROOT
ATOM      1  N   UNL     1       6.562   5.535  13.847  0.00  0.00    +0.000 N 
ATOM      2  C   UNL     1       6.483   5.436  15.245  0.00  0.00    +0.000 A 
ATOM      3  C   UNL     1       5.419   6.050  15.907  0.00  0.00    +0.000 A 
ATOM      4  C   UNL     1       5.269   5.967  17.310  0.00  0.00    +0.000 A 
ATOM      5  C   UNL     1       6.273   5.254  17.991  0.00  0.00    +0.000 A 
ATOM      6 CL   UNL     1       6.262   4.881  19.678  0.00  0.00    +0.000 Cl
ATOM      7  C   UNL     1       7.340   4.740  17.264  0.00  0.00    +0.000 A 
ATOM      8  N   UNL     1       7.462   4.817  15.925  0.00  0.00    +0.000 NA
ATOM      9  H   UNL     1       5.631   5.463  13.445  0.00  0.00    +0.000 HD
ENDROOT
BRANCH   4  10
ATOM     10  C   UNL     1       4.081   6.602  17.942  0.00  0.00    +0.000 A 
ATOM     11  C   UNL     1       3.433   7.713  17.411  0.00  0.00    +0.000 A 
ATOM     12  C   UNL     1       2.371   8.283  18.101  0.00  0.00    +0.000 A 
ATOM     13  C   UNL     1       1.932   7.689  19.275  0.00  0.00    +0.000 A 
ATOM     14  C   UNL     1       2.558   6.537  19.732  0.00  0.00    +0.000 A 
ATOM     15  N   UNL     1       3.623   6.008  19.086  0.00  0.00    +0.000 NA
BRANCH  14  16
ATOM     16  N   UNL     1       2.088   5.835  20.835  0.00  0.00    +0.000 N 
ATOM     17  H   UNL     1       1.779   6.487  21.544  0.00  0.00    +0.000 HD
BRANCH  16  18
ATOM     18  C   UNL     1       1.277   4.647  20.614  0.00  0.00    +0.000 C 
BRANCH  18  19
ATOM     19  C   UNL     1       1.977   3.568  19.812  0.00  0.00    +0.000 A 
ATOM     20  C   UNL     1       1.605   3.233  18.500  0.00  0.00    +0.000 A 
ATOM     21  C   UNL     1       2.331   2.286  17.765  0.00  0.00    +0.000 A 
ATOM     22  C   UNL     1       3.457   1.684  18.317  0.00  0.00    +0.000 A 
ATOM     23  C   UNL     1       3.851   2.035  19.600  0.00  0.00    +0.000 A 
ATOM     24  F   UNL     1       4.958   1.483  20.124  0.00  0.00    +0.000 F 
ATOM     25  C   UNL     1       3.130   2.963  20.348  0.00  0.00    +0.000 A 
ENDBRANCH  18  19
ENDBRANCH  16  18
ENDBRANCH  14  16
ENDBRANCH   4  10
BRANCH   1  26
ATOM     26  C   UNL     1       7.470   4.553  13.249  0.00  0.00    +0.000 C 
BRANCH  26  27
ATOM     27  C   UNL     1       6.810   3.900  12.036  0.00  0.00    +0.000 C 
BRANCH  27  28
ATOM     28  C   UNL     1       5.517   3.174  12.415  0.00  0.00    +0.000 C 
BRANCH  28  29
ATOM     29  C   UNL     1       4.792   2.590  11.203  0.00  0.00    +0.000 C 
BRANCH  29  30
ATOM     30  N   UNL     1       3.654   3.412  10.810  0.00  0.00    +0.000 NA
ATOM     31  H   UNL     1       2.871   3.229  11.435  0.00  0.00    +0.000 HD
ATOM     32  H   UNL     1       3.346   3.134   9.877  0.00  0.00    +0.000 HD
ENDBRANCH  29  30
ENDBRANCH  28  29
ENDBRANCH  27  28
ENDBRANCH  26  27
ENDBRANCH   1  26
TORSDOF 9
ENDMDL
MODEL 2
REMARK VINA RESULT:      -8.0      2.958      4.846
REMARK  Name = 
REMARK  9 active torsions:
REMARK  status: ('A' for Active; 'I' for Inactive)
REMARK    1  A    between atoms: N_1  and  C_2
REMARK    2  A    between atoms: C_2  and  C_3
REMARK    3  A    between atoms: C_3  and  C_4
REMARK    4  A    between atoms: C_4  and  C_5
REMARK    5  A    between atoms: C_5  and  N_6
REMARK    6  A    between atoms: C_9  and  C_10
REMARK    7  A    between atoms: C_14  and  N_15
REMARK    8  A    between atoms: N_15  and  C_16
REMARK    9  A    between atoms: C_16  and  C_17
REMARK                            x       y       z     vdW  Elec       q    Type
REMARK                         _______ _______ _______ _____ _____    ______ ____
ROOT
ATOM      1  N   UNL     1       5.799   4.664  14.211  0.00  0.00    +0.000 N 
ATOM      2  C   UNL     1       6.099   4.949  15.553  0.00  0.00    +0.000 A 
ATOM      3  C   UNL     1       5.160   4.638  16.537  0.00  0.00    +0.000 A 
ATOM      4  C   UNL     1       5.411   4.878  17.907  0.00  0.00    +0.000 A 
ATOM      5  C   UNL     1       6.650   5.474  18.206  0.00  0.00    +0.000 A 
ATOM      6 CL   UNL     1       7.269   5.746  19.796  0.00  0.00    +0.000 Cl
ATOM      7  C   UNL     1       7.496   5.824  17.159  0.00  0.00    +0.000 A 
ATOM      8  N   UNL     1       7.247   5.576  15.859  0.00  0.00    +0.000 NA
ATOM      9  H   UNL     1       5.306   3.776  14.153  0.00  0.00    +0.000 HD
ENDROOT
BRANCH   4  10
ATOM     10  C   UNL     1       4.386   4.471  18.905  0.00  0.00    +0.000 A 
ATOM     11  C   UNL     1       4.235   3.164  19.360  0.00  0.00    +0.000 A 
ATOM     12  C   UNL     1       3.208   2.859  20.242  0.00  0.00    +0.000 A 
ATOM     13  C   UNL     1       2.392   3.880  20.709  0.00  0.00    +0.000 A 
ATOM     14  C   UNL     1       2.624   5.183  20.288  0.00  0.00    +0.000 A 
ATOM     15  N   UNL     1       3.594   5.475  19.392  0.00  0.00    +0.000 NA
BRANCH  14  16
ATOM     16  N   UNL     1       1.916   6.259  20.811  0.00  0.00    +0.000 N 
ATOM     17  H   UNL     1       2.046   6.294  21.814  0.00  0.00    +0.000 HD
BRANCH  16  18
ATOM     18  C   UNL     1       1.925   7.521  20.088  0.00  0.00    +0.000 C 
BRANCH  18  19
ATOM     19  C   UNL     1       1.094   8.608  20.739  0.00  0.00    +0.000 A 
ATOM     20  C   UNL     1       0.526   8.469  22.016  0.00  0.00    +0.000 A 
ATOM     21  C   UNL     1      -0.167   9.529  22.616  0.00  0.00    +0.000 A 
ATOM     22  C   UNL     1      -0.276  10.753  21.963  0.00  0.00    +0.000 A 
ATOM     23  C   UNL     1       0.311  10.909  20.716  0.00  0.00    +0.000 A 
ATOM     24  F   UNL     1       0.240  12.099  20.098  0.00  0.00    +0.000 F 
ATOM     25  C   UNL     1       0.990   9.859  20.101  0.00  0.00    +0.000 A 
ENDBRANCH  18  19
ENDBRANCH  16  18
ENDBRANCH  14  16
ENDBRANCH   4  10
BRANCH   1  26
ATOM     26  C   UNL     1       6.978   4.669  13.342  0.00  0.00    +0.000 C 
BRANCH  26  27
ATOM     27  C   UNL     1       6.854   3.576  12.283  0.00  0.00    +0.000 C 
BRANCH  27  28
ATOM     28  C   UNL     1       5.390   3.255  11.967  0.00  0.00    +0.000 C 
BRANCH  28  29
ATOM     29  C   UNL     1       5.217   1.895  11.294  0.00  0.00    +0.000 C 
BRANCH  29  30
ATOM     30  N   UNL     1       6.492   1.202  11.147  0.00  0.00    +0.000 NA
ATOM     31  H   UNL     1       6.555   0.457  11.839  0.00  0.00    +0.000 HD
ATOM     32  H   UNL     1       7.253   1.850  11.356  0.00  0.00    +0.000 HD
ENDBRANCH  29  30
ENDBRANCH  28  29
ENDBRANCH  27  28
ENDBRANCH  26  27
ENDBRANCH   1  26
TORSDOF 9
ENDMDL
MODEL 3
REMARK VINA RESULT:      -7.8      3.138      5.031
REMARK  Name = 
REMARK  9 active torsions:
REMARK  status: ('A' for Active; 'I' for Inactive)
REMARK    1  A    between atoms: N_1  and  C_2
REMARK    2  A    between atoms: C_2  and  C_3
REMARK    3  A    between atoms: C_3  and  C_4
REMARK    4  A    between atoms: C_4  and  C_5
REMARK    5  A    between atoms: C_5  and  N_6
REMARK    6  A    between atoms: C_9  and  C_10
REMARK    7  A    between atoms: C_14  and  N_15
REMARK    8  A    between atoms: N_15  and  C_16
REMARK    9  A    between atoms: C_16  and  C_17
REMARK                            x       y       z     vdW  Elec       q    Type
REMARK                         _______ _______ _______ _____ _____    ______ ____
ROOT
ATOM      1  N   UNL     1       5.079   3.981  14.189  0.00  0.00    +0.000 N 
ATOM      2  C   UNL     1       5.430   4.374  15.491  0.00  0.00    +0.000 A 
ATOM      3  C   UNL     1       4.472   4.297  16.502  0.00  0.00    +0.000 A 
ATOM      4  C   UNL     1       4.770   4.655  17.837  0.00  0.00    +0.000 A 
ATOM      5  C   UNL     1       6.078   5.118  18.068  0.00  0.00    +0.000 A 
ATOM      6 CL   UNL     1       6.747   5.486  19.619  0.00  0.00    +0.000 Cl
ATOM      7  C   UNL     1       6.948   5.238  16.990  0.00  0.00    +0.000 A 
ATOM      8  N   UNL     1       6.652   4.880  15.725  0.00  0.00    +0.000 NA
ATOM      9  H   UNL     1       4.477   3.163  14.230  0.00  0.00    +0.000 HD
ENDROOT
BRANCH   4  10
ATOM     10  C   UNL     1       3.714   4.497  18.873  0.00  0.00    +0.000 A 
ATOM     11  C   UNL     1       3.208   3.262  19.268  0.00  0.00    +0.000 A 
ATOM     12  C   UNL     1       2.175   3.209  20.195  0.00  0.00    +0.000 A 
ATOM     13  C   UNL     1       1.715   4.388  20.762  0.00  0.00    +0.000 A 
ATOM     14  C   UNL     1       2.298   5.594  20.394  0.00  0.00    +0.000 A 
ATOM     15  N   UNL     1       3.272   5.652  19.457  0.00  0.00    +0.000 NA
BRANCH  14  16
ATOM     16  N   UNL     1       1.958   6.791  21.014  0.00  0.00    +0.000 N 
ATOM     17  H   UNL     1       2.562   6.943  21.811  0.00  0.00    +0.000 HD
BRANCH  16  18
ATOM     18  C   UNL     1       1.638   7.942  20.183  0.00  0.00    +0.000 C 
BRANCH  18  19
ATOM     19  C   UNL     1       0.752   8.964  20.867  0.00  0.00    +0.000 A 
ATOM     20  C   UNL     1       0.466   8.924  22.241  0.00  0.00    +0.000 A 
ATOM     21  C   UNL     1      -0.292   9.935  22.849  0.00  0.00    +0.000 A 
ATOM     22  C   UNL     1      -0.746  11.016  22.100  0.00  0.00    +0.000 A 
ATOM     23  C   UNL     1      -0.438  11.080  20.749  0.00  0.00    +0.000 A 
ATOM     24  F   UNL     1      -0.843  12.139  20.029  0.00  0.00    +0.000 F 
ATOM     25  C   UNL     1       0.300  10.075  20.128  0.00  0.00    +0.000 A 
ENDBRANCH  18  19
ENDBRANCH  16  18
ENDBRANCH  14  16
ENDBRANCH   4  10
BRANCH   1  26
ATOM     26  C   UNL     1       6.238   3.739  13.326  0.00  0.00    +0.000 C 
BRANCH  26  27
ATOM     27  C   UNL     1       5.790   3.094  12.016  0.00  0.00    +0.000 C 
BRANCH  27  28
ATOM     28  C   UNL     1       4.700   3.916  11.322  0.00  0.00    +0.000 C 
BRANCH  28  29
ATOM     29  C   UNL     1       3.541   3.055  10.824  0.00  0.00    +0.000 C 
BRANCH  29  30
ATOM     30  N   UNL     1       2.961   3.592   9.598  0.00  0.00    +0.000 NA
ATOM     31  H   UNL     1       2.142   4.153   9.827  0.00  0.00    +0.000 HD
ATOM     32  H   UNL     1       2.625   2.820   9.020  0.00  0.00    +0.000 HD
ENDBRANCH  29  30
ENDBRANCH  28  29
ENDBRANCH  27  28
ENDBRANCH  26  27
ENDBRANCH   1  26
TORSDOF 9
ENDMDL
MODEL 4
REMARK VINA RESULT:      -7.7      4.434      6.307
REMARK  Name = 
REMARK  9 active torsions:
REMARK  status: ('A' for Active; 'I' for Inactive)
REMARK    1  A    between atoms: N_1  and  C_2
REMARK    2  A    between atoms: C_2  and  C_3
REMARK    3  A    between atoms: C_3  and  C_4
REMARK    4  A    between atoms: C_4  and  C_5
REMARK    5  A    between atoms: C_5  and  N_6
REMARK    6  A    between atoms: C_9  and  C_10
REMARK    7  A    between atoms: C_14  and  N_15
REMARK    8  A    between atoms: N_15  and  C_16
REMARK    9  A    between atoms: C_16  and  C_17
REMARK                            x       y       z     vdW  Elec       q    Type
REMARK                         _______ _______ _______ _____ _____    ______ ____
ROOT
ATOM      1  N   UNL     1       5.313   5.596  16.454  0.00  0.00    +0.000 N 
ATOM      2  C   UNL     1       4.503   5.356  17.575  0.00  0.00    +0.000 A 
ATOM      3  C   UNL     1       3.764   6.410  18.114  0.00  0.00    +0.000 A 
ATOM      4  C   UNL     1       2.911   6.228  19.227  0.00  0.00    +0.000 A 
ATOM      5  C   UNL     1       2.881   4.929  19.767  0.00  0.00    +0.000 A 
ATOM      6 CL   UNL     1       1.827   4.399  21.030  0.00  0.00    +0.000 Cl
ATOM      7  C   UNL     1       3.707   3.955  19.219  0.00  0.00    +0.000 A 
ATOM      8  N   UNL     1       4.505   4.142  18.150  0.00  0.00    +0.000 NA
ATOM      9  H   UNL     1       4.839   6.234  15.820  0.00  0.00    +0.000 HD
ENDROOT
BRANCH   4  10
ATOM     10  C   UNL     1       2.114   7.385  19.714  0.00  0.00    +0.000 A 
ATOM     11  C   UNL     1       1.690   7.523  21.033  0.00  0.00    +0.000 A 
ATOM     12  C   UNL     1       0.892   8.602  21.388  0.00  0.00    +0.000 A 
ATOM     13  C   UNL     1       0.589   9.562  20.433  0.00  0.00    +0.000 A 
ATOM     14  C   UNL     1       1.094   9.426  19.147  0.00  0.00    +0.000 A 
ATOM     15  N   UNL     1       1.833   8.351  18.787  0.00  0.00    +0.000 NA
BRANCH  14  16
ATOM     16  N   UNL     1       0.921  10.413  18.183  0.00  0.00    +0.000 N 
ATOM     17  H   UNL     1       0.895   9.989  17.266  0.00  0.00    +0.000 HD
BRANCH  16  18
ATOM     18  C   UNL     1      -0.013  11.496  18.451  0.00  0.00    +0.000 C 
BRANCH  18  19
ATOM     19  C   UNL     1      -1.444  11.181  18.063  0.00  0.00    +0.000 A 
ATOM     20  C   UNL     1      -1.785  10.107  17.225  0.00  0.00    +0.000 A 
ATOM     21  C   UNL     1      -3.127   9.801  16.957  0.00  0.00    +0.000 A 
ATOM     22  C   UNL     1      -4.146  10.543  17.547  0.00  0.00    +0.000 A 
ATOM     23  C   UNL     1      -3.816  11.583  18.403  0.00  0.00    +0.000 A 
ATOM     24  F   UNL     1      -4.796  12.279  19.003  0.00  0.00    +0.000 F 
ATOM     25  C   UNL     1      -2.487  11.909  18.666  0.00  0.00    +0.000 A 
ENDBRANCH  18  19
ENDBRANCH  16  18
ENDBRANCH  14  16
ENDBRANCH   4  10
BRANCH   1  26
ATOM     26  C   UNL     1       5.718   4.370  15.761  0.00  0.00    +0.000 C 
BRANCH  26  27
ATOM     27  C   UNL     1       6.124   4.691  14.324  0.00  0.00    +0.000 C 
BRANCH  27  28
ATOM     28  C   UNL     1       5.475   3.731  13.323  0.00  0.00    +0.000 C 
BRANCH  28  29
ATOM     29  C   UNL     1       6.432   3.303  12.212  0.00  0.00    +0.000 C 
BRANCH  29  30
ATOM     30  N   UNL     1       6.036   2.031  11.620  0.00  0.00    +0.000 NA
ATOM     31  H   UNL     1       6.097   1.296  12.323  0.00  0.00    +0.000 HD
ATOM     32  H   UNL     1       6.701   1.780  10.887  0.00  0.00    +0.000 HD
ENDBRANCH  29  30
ENDBRANCH  28  29
ENDBRANCH  27  28
ENDBRANCH  26  27
ENDBRANCH   1  26
TORSDOF 9
ENDMDL
MODEL 5
REMARK VINA RESULT:      -7.7      3.063      7.508
REMARK  Name = 
REMARK  9 active torsions:
REMARK  status: ('A' for Active; 'I' for Inactive)
REMARK    1  A    between atoms: N_1  and  C_2
REMARK    2  A    between atoms: C_2  and  C_3
REMARK    3  A    between atoms: C_3  and  C_4
REMARK    4  A    between atoms: C_4  and  C_5
REMARK    5  A    between atoms: C_5  and  N_6
REMARK    6  A    between atoms: C_9  and  C_10
REMARK    7  A    between atoms: C_14  and  N_15
REMARK    8  A    between atoms: N_15  and  C_16
REMARK    9  A    between atoms: C_16  and  C_17
REMARK                            x       y       z     vdW  Elec       q    Type
REMARK                         _______ _______ _______ _____ _____    ______ ____
ROOT
ATOM      1  N   UNL     1       1.791   9.920  18.002  0.00  0.00    +0.000 N 
ATOM      2  C   UNL     1       1.834   8.744  18.768  0.00  0.00    +0.000 A 
ATOM      3  C   UNL     1       2.219   7.551  18.156  0.00  0.00    +0.000 A 
ATOM      4  C   UNL     1       2.306   6.339  18.877  0.00  0.00    +0.000 A 
ATOM      5  C   UNL     1       1.953   6.410  20.237  0.00  0.00    +0.000 A 
ATOM      6 CL   UNL     1       2.103   5.119  21.376  0.00  0.00    +0.000 Cl
ATOM      7  C   UNL     1       1.506   7.622  20.751  0.00  0.00    +0.000 A 
ATOM      8  N   UNL     1       1.441   8.772  20.053  0.00  0.00    +0.000 NA
ATOM      9  H   UNL     1       2.574   9.934  17.354  0.00  0.00    +0.000 HD
ENDROOT
BRANCH   4  10
ATOM     10  C   UNL     1       2.774   5.116  18.170  0.00  0.00    +0.000 A 
ATOM     11  C   UNL     1       1.939   4.049  17.850  0.00  0.00    +0.000 A 
ATOM     12  C   UNL     1       2.473   2.918  17.248  0.00  0.00    +0.000 A 
ATOM     13  C   UNL     1       3.819   2.902  16.913  0.00  0.00    +0.000 A 
ATOM     14  C   UNL     1       4.602   4.017  17.182  0.00  0.00    +0.000 A 
ATOM     15  N   UNL     1       4.094   5.102  17.811  0.00  0.00    +0.000 NA
BRANCH  14  16
ATOM     16  N   UNL     1       5.925   4.103  16.764  0.00  0.00    +0.000 N 
ATOM     17  H   UNL     1       6.252   3.186  16.488  0.00  0.00    +0.000 HD
BRANCH  16  18
ATOM     18  C   UNL     1       6.328   5.236  15.946  0.00  0.00    +0.000 C 
BRANCH  18  19
ATOM     19  C   UNL     1       6.578   4.884  14.492  0.00  0.00    +0.000 A 
ATOM     20  C   UNL     1       7.629   5.440  13.746  0.00  0.00    +0.000 A 
ATOM     21  C   UNL     1       7.876   5.027  12.429  0.00  0.00    +0.000 A 
ATOM     22  C   UNL     1       7.097   4.029  11.852  0.00  0.00    +0.000 A 
ATOM     23  C   UNL     1       6.079   3.450  12.595  0.00  0.00    +0.000 A 
ATOM     24  F   UNL     1       5.347   2.462  12.055  0.00  0.00    +0.000 F 
ATOM     25  C   UNL     1       5.812   3.863  13.899  0.00  0.00    +0.000 A 
ENDBRANCH  18  19
ENDBRANCH  16  18
ENDBRANCH  14  16
ENDBRANCH   4  10
BRANCH   1  26
ATOM     26  C   UNL     1       1.758  11.138  18.815  0.00  0.00    +0.000 C 
BRANCH  26  27
ATOM     27  C   UNL     1       0.503  11.947  18.497  0.00  0.00    +0.000 C 
BRANCH  27  28
ATOM     28  C   UNL     1      -0.730  11.386  19.210  0.00  0.00    +0.000 C 
BRANCH  28  29
ATOM     29  C   UNL     1      -1.828  10.958  18.238  0.00  0.00    +0.000 C 
BRANCH  29  30
ATOM     30  N   UNL     1      -1.300  10.129  17.161  0.00  0.00    +0.000 NA
ATOM     31  H   UNL     1      -0.951   9.253  17.547  0.00  0.00    +0.000 HD
ATOM     32  H   UNL     1      -0.495  10.597  16.741  0.00  0.00    +0.000 HD
ENDBRANCH  29  30
ENDBRANCH  28  29
ENDBRANCH  27  28
ENDBRANCH  26  27
ENDBRANCH   1  26
TORSDOF 9
ENDMDL
MODEL 6
REMARK VINA RESULT:      -7.7      4.734      7.259
REMARK  Name = 
REMARK  9 active torsions:
REMARK  status: ('A' for Active; 'I' for Inactive)
REMARK    1  A    between atoms: N_1  and  C_2
REMARK    2  A    between atoms: C_2  and  C_3
REMARK    3  A    between atoms: C_3  and  C_4
REMARK    4  A    between atoms: C_4  and  C_5
REMARK    5  A    between atoms: C_5  and  N_6
REMARK    6  A    between atoms: C_9  and  C_10
REMARK    7  A    between atoms: C_14  and  N_15
REMARK    8  A    between atoms: N_15  and  C_16
REMARK    9  A    between atoms: C_16  and  C_17
REMARK                            x       y       z     vdW  Elec       q    Type
REMARK                         _______ _______ _______ _____ _____    ______ ____
ROOT
ATOM      1  N   UNL     1       5.199   6.532  16.749  0.00  0.00    +0.000 N 
ATOM      2  C   UNL     1       4.242   6.208  17.724  0.00  0.00    +0.000 A 
ATOM      3  C   UNL     1       3.455   7.226  18.264  0.00  0.00    +0.000 A 
ATOM      4  C   UNL     1       2.459   6.961  19.232  0.00  0.00    +0.000 A 
ATOM      5  C   UNL     1       2.336   5.618  19.631  0.00  0.00    +0.000 A 
ATOM      6 CL   UNL     1       1.116   4.998  20.686  0.00  0.00    +0.000 Cl
ATOM      7  C   UNL     1       3.213   4.678  19.102  0.00  0.00    +0.000 A 
ATOM      8  N   UNL     1       4.149   4.944  18.170  0.00  0.00    +0.000 NA
ATOM      9  H   UNL     1       4.824   7.242  16.125  0.00  0.00    +0.000 HD
ENDROOT
BRANCH   4  10
ATOM     10  C   UNL     1       1.622   8.089  19.724  0.00  0.00    +0.000 A 
ATOM     11  C   UNL     1       1.196   8.207  21.044  0.00  0.00    +0.000 A 
ATOM     12  C   UNL     1       0.361   9.256  21.403  0.00  0.00    +0.000 A 
ATOM     13  C   UNL     1       0.023  10.208  20.451  0.00  0.00    +0.000 A 
ATOM     14  C   UNL     1       0.530  10.093  19.164  0.00  0.00    +0.000 A 
ATOM     15  N   UNL     1       1.306   9.046  18.800  0.00  0.00    +0.000 NA
BRANCH  14  16
ATOM     16  N   UNL     1       0.322  11.077  18.203  0.00  0.00    +0.000 N 
ATOM     17  H   UNL     1       0.354  10.661  17.282  0.00  0.00    +0.000 HD
BRANCH  16  18
ATOM     18  C   UNL     1      -0.692  12.091  18.450  0.00  0.00    +0.000 C 
BRANCH  18  19
ATOM     19  C   UNL     1      -2.085  11.684  18.014  0.00  0.00    +0.000 A 
ATOM     20  C   UNL     1      -3.218  11.862  18.824  0.00  0.00    +0.000 A 
ATOM     21  C   UNL     1      -4.499  11.547  18.352  0.00  0.00    +0.000 A 
ATOM     22  C   UNL     1      -4.671  11.081  17.051  0.00  0.00    +0.000 A 
ATOM     23  C   UNL     1      -3.560  10.935  16.233  0.00  0.00    +0.000 A 
ATOM     24  F   UNL     1      -3.724  10.520  14.967  0.00  0.00    +0.000 F 
ATOM     25  C   UNL     1      -2.279  11.229  16.696  0.00  0.00    +0.000 A 
ENDBRANCH  18  19
ENDBRANCH  16  18
ENDBRANCH  14  16
ENDBRANCH   4  10
BRANCH   1  26
ATOM     26  C   UNL     1       5.673   5.368  15.996  0.00  0.00    +0.000 C 
BRANCH  26  27
ATOM     27  C   UNL     1       7.173   5.179  16.213  0.00  0.00    +0.000 C 
BRANCH  27  28
ATOM     28  C   UNL     1       7.484   4.682  17.627  0.00  0.00    +0.000 C 
BRANCH  28  29
ATOM     29  C   UNL     1       7.814   5.819  18.593  0.00  0.00    +0.000 C 
BRANCH  29  30
ATOM     30  N   UNL     1       7.924   5.343  19.967  0.00  0.00    +0.000 NA
ATOM     31  H   UNL     1       7.551   4.398  20.030  0.00  0.00    +0.000 HD
ATOM     32  H   UNL     1       7.338   5.922  20.570  0.00  0.00    +0.000 HD
ENDBRANCH  29  30
ENDBRANCH  28  29
ENDBRANCH  27  28
ENDBRANCH  26  27
ENDBRANCH   1  26
TORSDOF 9
ENDMDL
MODEL 7
REMARK VINA RESULT:      -7.6      2.317      4.336
REMARK  Name = 
REMARK  9 active torsions:
REMARK  status: ('A' for Active; 'I' for Inactive)
REMARK    1  A    between atoms: N_1  and  C_2
REMARK    2  A    between atoms: C_2  and  C_3
REMARK    3  A    between atoms: C_3  and  C_4
REMARK    4  A    between atoms: C_4  and  C_5
REMARK    5  A    between atoms: C_5  and  N_6
REMARK    6  A    between atoms: C_9  and  C_10
REMARK    7  A    between atoms: C_14  and  N_15
REMARK    8  A    between atoms: N_15  and  C_16
REMARK    9  A    between atoms: C_16  and  C_17
REMARK                            x       y       z     vdW  Elec       q    Type
REMARK                         _______ _______ _______ _____ _____    ______ ____
ROOT
ATOM      1  N   UNL     1       5.788   4.623  14.221  0.00  0.00    +0.000 N 
ATOM      2  C   UNL     1       6.087   4.880  15.569  0.00  0.00    +0.000 A 
ATOM      3  C   UNL     1       5.194   4.455  16.553  0.00  0.00    +0.000 A 
ATOM      4  C   UNL     1       5.448   4.662  17.928  0.00  0.00    +0.000 A 
ATOM      5  C   UNL     1       6.640   5.345  18.232  0.00  0.00    +0.000 A 
ATOM      6 CL   UNL     1       7.262   5.605  19.824  0.00  0.00    +0.000 Cl
ATOM      7  C   UNL     1       7.436   5.803  17.189  0.00  0.00    +0.000 A 
ATOM      8  N   UNL     1       7.186   5.586  15.883  0.00  0.00    +0.000 NA
ATOM      9  H   UNL     1       5.368   3.702  14.134  0.00  0.00    +0.000 HD
ENDROOT
BRANCH   4  10
ATOM     10  C   UNL     1       4.476   4.135  18.923  0.00  0.00    +0.000 A 
ATOM     11  C   UNL     1       4.616   2.900  19.550  0.00  0.00    +0.000 A 
ATOM     12  C   UNL     1       3.626   2.455  20.416  0.00  0.00    +0.000 A 
ATOM     13  C   UNL     1       2.549   3.284  20.695  0.00  0.00    +0.000 A 
ATOM     14  C   UNL     1       2.486   4.540  20.106  0.00  0.00    +0.000 A 
ATOM     15  N   UNL     1       3.425   4.956  19.225  0.00  0.00    +0.000 NA
BRANCH  14  16
ATOM     16  N   UNL     1       1.495   5.456  20.438  0.00  0.00    +0.000 N 
ATOM     17  H   UNL     1       0.685   4.964  20.792  0.00  0.00    +0.000 HD
BRANCH  16  18
ATOM     18  C   UNL     1       1.878   6.690  21.106  0.00  0.00    +0.000 C 
BRANCH  18  19
ATOM     19  C   UNL     1       1.403   7.944  20.399  0.00  0.00    +0.000 A 
ATOM     20  C   UNL     1       0.581   8.900  21.017  0.00  0.00    +0.000 A 
ATOM     21  C   UNL     1       0.231  10.085  20.355  0.00  0.00    +0.000 A 
ATOM     22  C   UNL     1       0.724  10.347  19.080  0.00  0.00    +0.000 A 
ATOM     23  C   UNL     1       1.564   9.423  18.477  0.00  0.00    +0.000 A 
ATOM     24  F   UNL     1       2.071   9.687  17.262  0.00  0.00    +0.000 F 
ATOM     25  C   UNL     1       1.907   8.234  19.117  0.00  0.00    +0.000 A 
ENDBRANCH  18  19
ENDBRANCH  16  18
ENDBRANCH  14  16
ENDBRANCH   4  10
BRANCH   1  26
ATOM     26  C   UNL     1       6.948   4.759  13.336  0.00  0.00    +0.000 C 
BRANCH  26  27
ATOM     27  C   UNL     1       6.872   3.728  12.212  0.00  0.00    +0.000 C 
BRANCH  27  28
ATOM     28  C   UNL     1       5.536   2.979  12.217  0.00  0.00    +0.000 C 
BRANCH  28  29
ATOM     29  C   UNL     1       5.450   1.921  11.118  0.00  0.00    +0.000 C 
BRANCH  29  30
ATOM     30  N   UNL     1       6.302   0.774  11.408  0.00  0.00    +0.000 NA
ATOM     31  H   UNL     1       5.880   0.216  12.148  0.00  0.00    +0.000 HD
ATOM     32  H   UNL     1       7.196   1.104  11.774  0.00  0.00    +0.000 HD
ENDBRANCH  29  30
ENDBRANCH  28  29
ENDBRANCH  27  28
ENDBRANCH  26  27
ENDBRANCH   1  26
TORSDOF 9
ENDMDL
MODEL 8
REMARK VINA RESULT:      -7.6      5.092      7.897
REMARK  Name = 
REMARK  9 active torsions:
REMARK  status: ('A' for Active; 'I' for Inactive)
REMARK    1  A    between atoms: N_1  and  C_2
REMARK    2  A    between atoms: C_2  and  C_3
REMARK    3  A    between atoms: C_3  and  C_4
REMARK    4  A    between atoms: C_4  and  C_5
REMARK    5  A    between atoms: C_5  and  N_6
REMARK    6  A    between atoms: C_9  and  C_10
REMARK    7  A    between atoms: C_14  and  N_15
REMARK    8  A    between atoms: N_15  and  C_16
REMARK    9  A    between atoms: C_16  and  C_17
REMARK                            x       y       z     vdW  Elec       q    Type
REMARK                         _______ _______ _______ _____ _____    ______ ____
ROOT
ATOM      1  N   UNL     1       3.224   5.167  19.745  0.00  0.00    +0.000 N 
ATOM      2  C   UNL     1       2.778   6.447  19.380  0.00  0.00    +0.000 A 
ATOM      3  C   UNL     1       1.985   7.168  20.273  0.00  0.00    +0.000 A 
ATOM      4  C   UNL     1       1.525   8.471  19.974  0.00  0.00    +0.000 A 
ATOM      5  C   UNL     1       1.894   8.975  18.714  0.00  0.00    +0.000 A 
ATOM      6 CL   UNL     1       1.589  10.582  18.154  0.00  0.00    +0.000 Cl
ATOM      7  C   UNL     1       2.620   8.162  17.852  0.00  0.00    +0.000 A 
ATOM      8  N   UNL     1       3.062   6.926  18.157  0.00  0.00    +0.000 NA
ATOM      9  H   UNL     1       3.469   5.159  20.731  0.00  0.00    +0.000 HD
ENDROOT
BRANCH   4  10
ATOM     10  C   UNL     1       0.728   9.200  20.997  0.00  0.00    +0.000 A 
ATOM     11  C   UNL     1       0.836   8.963  22.365  0.00  0.00    +0.000 A 
ATOM     12  C   UNL     1       0.005   9.642  23.246  0.00  0.00    +0.000 A 
ATOM     13  C   UNL     1      -0.870  10.597  22.750  0.00  0.00    +0.000 A 
ATOM     14  C   UNL     1      -0.894  10.856  21.386  0.00  0.00    +0.000 A 
ATOM     15  N   UNL     1      -0.119  10.162  20.521  0.00  0.00    +0.000 NA
BRANCH  14  16
ATOM     16  N   UNL     1      -1.665  11.881  20.848  0.00  0.00    +0.000 N 
ATOM     17  H   UNL     1      -1.792  12.607  21.540  0.00  0.00    +0.000 HD
BRANCH  16  18
ATOM     18  C   UNL     1      -1.416  12.295  19.476  0.00  0.00    +0.000 C 
BRANCH  18  19
ATOM     19  C   UNL     1      -2.453  11.798  18.488  0.00  0.00    +0.000 A 
ATOM     20  C   UNL     1      -3.832  11.826  18.753  0.00  0.00    +0.000 A 
ATOM     21  C   UNL     1      -4.761  11.433  17.781  0.00  0.00    +0.000 A 
ATOM     22  C   UNL     1      -4.328  11.036  16.519  0.00  0.00    +0.000 A 
ATOM     23  C   UNL     1      -2.970  11.038  16.238  0.00  0.00    +0.000 A 
ATOM     24  F   UNL     1      -2.550  10.690  15.011  0.00  0.00    +0.000 F 
ATOM     25  C   UNL     1      -2.034  11.411  17.200  0.00  0.00    +0.000 A 
ENDBRANCH  18  19
ENDBRANCH  16  18
ENDBRANCH  14  16
ENDBRANCH   4  10
BRANCH   1  26
ATOM     26  C   UNL     1       4.337   4.685  18.922  0.00  0.00    +0.000 C 
BRANCH  26  27
ATOM     27  C   UNL     1       3.971   3.352  18.275  0.00  0.00    +0.000 C 
BRANCH  27  28
ATOM     28  C   UNL     1       2.954   2.573  19.114  0.00  0.00    +0.000 C 
BRANCH  28  29
ATOM     29  C   UNL     1       1.621   2.379  18.394  0.00  0.00    +0.000 C 
BRANCH  29  30
ATOM     30  N   UNL     1       1.196   3.596  17.713  0.00  0.00    +0.000 NA
ATOM     31  H   UNL     1       2.013   4.152  17.470  0.00  0.00    +0.000 HD
ATOM     32  H   UNL     1       0.645   4.165  18.357  0.00  0.00    +0.000 HD
ENDBRANCH  29  30
ENDBRANCH  28  29
ENDBRANCH  27  28
ENDBRANCH  26  27
ENDBRANCH   1  26
TORSDOF 9
ENDMDL
MODEL 9
REMARK VINA RESULT:      -7.5      4.834      7.141
REMARK  Name = 
REMARK  9 active torsions:
REMARK  status: ('A' for Active; 'I' for Inactive)
REMARK    1  A    between atoms: N_1  and  C_2
REMARK    2  A    between atoms: C_2  and  C_3
REMARK    3  A    between atoms: C_3  and  C_4
REMARK    4  A    between atoms: C_4  and  C_5
REMARK    5  A    between atoms: C_5  and  N_6
REMARK    6  A    between atoms: C_9  and  C_10
REMARK    7  A    between atoms: C_14  and  N_15
REMARK    8  A    between atoms: N_15  and  C_16
REMARK    9  A    between atoms: C_16  and  C_17
REMARK                            x       y       z     vdW  Elec       q    Type
REMARK                         _______ _______ _______ _____ _____    ______ ____
ROOT
ATOM      1  N   UNL     1       5.013   6.754  16.274  0.00  0.00    +0.000 N 
ATOM      2  C   UNL     1       4.192   6.364  17.345  0.00  0.00    +0.000 A 
ATOM      3  C   UNL     1       3.416   7.328  17.988  0.00  0.00    +0.000 A 
ATOM      4  C   UNL     1       2.551   6.995  19.056  0.00  0.00    +0.000 A 
ATOM      5  C   UNL     1       2.549   5.642  19.441  0.00  0.00    +0.000 A 
ATOM      6 CL   UNL     1       1.491   4.940  20.614  0.00  0.00    +0.000 Cl
ATOM      7  C   UNL     1       3.411   4.761  18.799  0.00  0.00    +0.000 A 
ATOM      8  N   UNL     1       4.220   5.091  17.774  0.00  0.00    +0.000 NA
ATOM      9  H   UNL     1       4.532   7.449  15.710  0.00  0.00    +0.000 HD
ENDROOT
BRANCH   4  10
ATOM     10  C   UNL     1       1.713   8.067  19.659  0.00  0.00    +0.000 A 
ATOM     11  C   UNL     1       1.366   8.100  21.007  0.00  0.00    +0.000 A 
ATOM     12  C   UNL     1       0.525   9.101  21.473  0.00  0.00    +0.000 A 
ATOM     13  C   UNL     1       0.102  10.090  20.598  0.00  0.00    +0.000 A 
ATOM     14  C   UNL     1       0.531  10.062  19.278  0.00  0.00    +0.000 A 
ATOM     15  N   UNL     1       1.313   9.062  18.811  0.00  0.00    +0.000 NA
BRANCH  14  16
ATOM     16  N   UNL     1       0.236  11.089  18.388  0.00  0.00    +0.000 N 
ATOM     17  H   UNL     1       0.200  10.720  17.447  0.00  0.00    +0.000 HD
BRANCH  16  18
ATOM     18  C   UNL     1      -0.768  12.072  18.765  0.00  0.00    +0.000 C 
BRANCH  18  19
ATOM     19  C   UNL     1      -2.154  11.770  18.231  0.00  0.00    +0.000 A 
ATOM     20  C   UNL     1      -2.371  11.113  17.009  0.00  0.00    +0.000 A 
ATOM     21  C   UNL     1      -3.667  10.779  16.591  0.00  0.00    +0.000 A 
ATOM     22  C   UNL     1      -4.760  11.067  17.402  0.00  0.00    +0.000 A 
ATOM     23  C   UNL     1      -4.551  11.685  18.626  0.00  0.00    +0.000 A 
ATOM     24  F   UNL     1      -5.598  11.933  19.428  0.00  0.00    +0.000 F 
ATOM     25  C   UNL     1      -3.270  12.037  19.046  0.00  0.00    +0.000 A 
ENDBRANCH  18  19
ENDBRANCH  16  18
ENDBRANCH  14  16
ENDBRANCH   4  10
BRANCH   1  26
ATOM     26  C   UNL     1       5.464   5.629  15.452  0.00  0.00    +0.000 C 
BRANCH  26  27
ATOM     27  C   UNL     1       6.948   5.363  15.694  0.00  0.00    +0.000 C 
BRANCH  27  28
ATOM     28  C   UNL     1       7.164   4.223  16.694  0.00  0.00    +0.000 C 
BRANCH  28  29
ATOM     29  C   UNL     1       7.857   4.686  17.974  0.00  0.00    +0.000 C 
BRANCH  29  30
ATOM     30  N   UNL     1       7.461   6.040  18.341  0.00  0.00    +0.000 NA
ATOM     31  H   UNL     1       7.222   6.068  19.330  0.00  0.00    +0.000 HD
ATOM     32  H   UNL     1       6.609   6.289  17.835  0.00  0.00    +0.000 HD
ENDBRANCH  29  30
ENDBRANCH  28  29
ENDBRANCH  27  28
ENDBRANCH  26  27
ENDBRANCH   1  26
TORSDOF 9
ENDMDL
