MODEL 1
REMARK VINA RESULT:      -6.2      0.000      0.000
REMARK  Name = 
REMARK  15 active torsions:
REMARK  status: ('A' for Active; 'I' for Inactive)
REMARK    1  A    between atoms: C_1  and  C_2
REMARK    2  A    between atoms: C_5  and  C_6
REMARK    3  A    between atoms: C_6  and  C_22
REMARK    4  A    between atoms: C_7  and  C_8
REMARK    5  A    between atoms: C_7  and  C_12
REMARK    6  A    between atoms: C_8  and  C_9
REMARK    7  A    between atoms: C_9  and  C_10
REMARK    8  A    between atoms: C_10  and  O_11
REMARK    9  A    between atoms: N_18  and  C_19
REMARK   10  A    between atoms: C_25  and  O_26
REMARK   11  A    between atoms: O_26  and  C_27
REMARK   12  A    between atoms: C_27  and  C_28
REMARK   13  A    between atoms: C_28  and  N_29
REMARK   14  A    between atoms: N_29  and  C_30
REMARK   15  A    between atoms: N_29  and  C_31
REMARK                            x       y       z     vdW  Elec       q    Type
REMARK                         _______ _______ _______ _____ _____    ______ ____
ROOT
ATOM      1  C   UNL     1       1.062  12.784  19.526  0.00  0.00    +0.000 C 
ATOM      2  C   UNL     1      -0.093  13.475  19.237  0.00  0.00    +0.000 C 
ENDROOT
BRANCH   2   3
ATOM      3  C   UNL     1      -1.502  12.877  19.203  0.00  0.00    +0.000 A 
ATOM      4  C   UNL     1      -2.440  13.120  20.228  0.00  0.00    +0.000 A 
ATOM      5  C   UNL     1      -3.749  12.584  20.227  0.00  0.00    +0.000 A 
ATOM      6  C   UNL     1      -4.179  11.846  19.120  0.00  0.00    +0.000 A 
ATOM      7  C   UNL     1      -5.364  11.202  18.701  0.00  0.00    +0.000 A 
ATOM      8  N   UNL     1      -5.267  10.691  17.470  0.00  0.00    +0.000 NA
ATOM      9  N   UNL     1      -4.012  11.019  17.095  0.00  0.00    +0.000 N 
ATOM     10  C   UNL     1      -3.660  10.968  15.693  0.00  0.00    +0.000 C 
ATOM     11  C   UNL     1      -3.279  11.619  18.091  0.00  0.00    +0.000 A 
ATOM     12  C   UNL     1      -1.938  12.037  18.162  0.00  0.00    +0.000 A 
ENDBRANCH   2   3
BRANCH   1  17
ATOM     13  C   UNL     1       6.107  15.644  19.448  0.00  0.00    +0.000 C 
ATOM     14  C   UNL     1       4.820  14.876  19.469  0.00  0.00    +0.000 A 
ATOM     15  C   UNL     1       4.247  14.399  18.280  0.00  0.00    +0.000 A 
ATOM     16  C   UNL     1       3.041  13.704  18.302  0.00  0.00    +0.000 A 
ATOM     17  C   UNL     1       2.379  13.480  19.516  0.00  0.00    +0.000 A 
ATOM     18  C   UNL     1       2.943  13.965  20.703  0.00  0.00    +0.000 A 
ATOM     19  C   UNL     1       4.152  14.655  20.683  0.00  0.00    +0.000 A 
ENDBRANCH   1  17
BRANCH   1  20
ATOM     20  C   UNL     1       1.117  11.311  19.735  0.00  0.00    +0.000 A 
ATOM     21  C   UNL     1       0.855  10.809  21.008  0.00  0.00    +0.000 A 
ATOM     22  C   UNL     1       0.973   9.445  21.262  0.00  0.00    +0.000 A 
ATOM     23  C   UNL     1       1.386   8.561  20.260  0.00  0.00    +0.000 A 
ATOM     24  C   UNL     1       1.558   9.045  18.962  0.00  0.00    +0.000 A 
ATOM     25  C   UNL     1       1.396  10.412  18.690  0.00  0.00    +0.000 A 
BRANCH  23  26
ATOM     26  O   UNL     1       1.673   7.228  20.463  0.00  0.00    +0.000 OA
BRANCH  26  27
ATOM     27  C   UNL     1       2.536   6.677  19.459  0.00  0.00    +0.000 C 
BRANCH  27  28
ATOM     28  C   UNL     1       2.810   5.180  19.650  0.00  0.00    +0.000 C 
BRANCH  28  29
ATOM     29  N   UNL     1       1.672   4.497  20.311  0.00  0.00    +0.000 NA
ATOM     30  C   UNL     1       1.008   3.532  19.429  0.00  0.00    +0.000 C 
ATOM     31  C   UNL     1       2.112   3.825  21.532  0.00  0.00    +0.000 C 
ENDBRANCH  28  29
ENDBRANCH  27  28
ENDBRANCH  26  27
ENDBRANCH  23  26
ENDBRANCH   1  20
BRANCH   2  32
ATOM     32  C   UNL     1      -0.003  14.948  18.775  0.00  0.00    +0.000 C 
BRANCH  32  33
ATOM     33  C   UNL     1      -0.474  15.993  19.796  0.00  0.00    +0.000 C 
BRANCH  33  34
ATOM     34  C   UNL     1      -1.037  17.235  19.104  0.00  0.00    +0.000 C 
BRANCH  34  35
ATOM     35  O   UNL     1      -1.501  18.196  20.045  0.00  0.00    +0.000 OA
ATOM     36  H   UNL     1      -2.191  18.729  19.613  0.00  0.00    +0.000 HD
ENDBRANCH  34  35
ENDBRANCH  33  34
ENDBRANCH  32  33
ENDBRANCH   2  32
TORSDOF 11
ENDMDL
MODEL 2
REMARK VINA RESULT:      -6.1      1.090      1.843
REMARK  Name = 
REMARK  15 active torsions:
REMARK  status: ('A' for Active; 'I' for Inactive)
REMARK    1  A    between atoms: C_1  and  C_2
REMARK    2  A    between atoms: C_5  and  C_6
REMARK    3  A    between atoms: C_6  and  C_22
REMARK    4  A    between atoms: C_7  and  C_8
REMARK    5  A    between atoms: C_7  and  C_12
REMARK    6  A    between atoms: C_8  and  C_9
REMARK    7  A    between atoms: C_9  and  C_10
REMARK    8  A    between atoms: C_10  and  O_11
REMARK    9  A    between atoms: N_18  and  C_19
REMARK   10  A    between atoms: C_25  and  O_26
REMARK   11  A    between atoms: O_26  and  C_27
REMARK   12  A    between atoms: C_27  and  C_28
REMARK   13  A    between atoms: C_28  and  N_29
REMARK   14  A    between atoms: N_29  and  C_30
REMARK   15  A    between atoms: N_29  and  C_31
REMARK                            x       y       z     vdW  Elec       q    Type
REMARK                         _______ _______ _______ _____ _____    ______ ____
ROOT
ATOM      1  C   UNL     1       0.965  12.398  19.128  0.00  0.00    +0.000 C 
ATOM      2  C   UNL     1      -0.228  12.976  18.762  0.00  0.00    +0.000 C 
ENDROOT
BRANCH   2   3
ATOM      3  C   UNL     1      -1.532  12.225  18.481  0.00  0.00    +0.000 A 
ATOM      4  C   UNL     1      -1.578  11.106  17.623  0.00  0.00    +0.000 A 
ATOM      5  C   UNL     1      -2.765  10.390  17.342  0.00  0.00    +0.000 A 
ATOM      6  C   UNL     1      -3.943  10.742  18.007  0.00  0.00    +0.000 A 
ATOM      7  C   UNL     1      -5.278  10.285  18.062  0.00  0.00    +0.000 A 
ATOM      8  N   UNL     1      -6.015  10.948  18.957  0.00  0.00    +0.000 NA
ATOM      9  N   UNL     1      -5.143  11.832  19.486  0.00  0.00    +0.000 N 
ATOM     10  C   UNL     1      -5.462  12.472  20.743  0.00  0.00    +0.000 C 
ATOM     11  C   UNL     1      -3.911  11.823  18.874  0.00  0.00    +0.000 A 
ATOM     12  C   UNL     1      -2.762  12.615  19.042  0.00  0.00    +0.000 A 
ENDBRANCH   2   3
BRANCH   1  17
ATOM     13  C   UNL     1       5.753  15.531  20.075  0.00  0.00    +0.000 C 
ATOM     14  C   UNL     1       4.498  14.749  19.832  0.00  0.00    +0.000 A 
ATOM     15  C   UNL     1       3.694  14.326  20.901  0.00  0.00    +0.000 A 
ATOM     16  C   UNL     1       2.539  13.583  20.671  0.00  0.00    +0.000 A 
ATOM     17  C   UNL     1       2.171  13.240  19.363  0.00  0.00    +0.000 A 
ATOM     18  C   UNL     1       2.978  13.651  18.294  0.00  0.00    +0.000 A 
ATOM     19  C   UNL     1       4.130  14.400  18.523  0.00  0.00    +0.000 A 
ENDBRANCH   1  17
BRANCH   1  20
ATOM     20  C   UNL     1       1.189  10.928  19.191  0.00  0.00    +0.000 A 
ATOM     21  C   UNL     1       0.838  10.249  20.356  0.00  0.00    +0.000 A 
ATOM     22  C   UNL     1       1.104   8.888  20.482  0.00  0.00    +0.000 A 
ATOM     23  C   UNL     1       1.754   8.185  19.462  0.00  0.00    +0.000 A 
ATOM     24  C   UNL     1       2.022   8.838  18.258  0.00  0.00    +0.000 A 
ATOM     25  C   UNL     1       1.715  10.199  18.108  0.00  0.00    +0.000 A 
BRANCH  23  26
ATOM     26  O   UNL     1       2.188   6.881  19.566  0.00  0.00    +0.000 OA
BRANCH  26  27
ATOM     27  C   UNL     1       2.495   6.286  18.298  0.00  0.00    +0.000 C 
BRANCH  27  28
ATOM     28  C   UNL     1       2.289   4.766  18.276  0.00  0.00    +0.000 C 
BRANCH  28  29
ATOM     29  N   UNL     1       2.258   4.199  19.645  0.00  0.00    +0.000 NA
ATOM     30  C   UNL     1       0.977   3.560  19.960  0.00  0.00    +0.000 C 
ATOM     31  C   UNL     1       3.345   3.240  19.832  0.00  0.00    +0.000 C 
ENDBRANCH  28  29
ENDBRANCH  27  28
ENDBRANCH  26  27
ENDBRANCH  23  26
ENDBRANCH   1  20
BRANCH   2  32
ATOM     32  C   UNL     1      -0.280  14.494  18.469  0.00  0.00    +0.000 C 
BRANCH  32  33
ATOM     33  C   UNL     1      -0.663  15.387  19.658  0.00  0.00    +0.000 C 
BRANCH  33  34
ATOM     34  C   UNL     1      -0.921  16.827  19.215  0.00  0.00    +0.000 C 
BRANCH  34  35
ATOM     35  O   UNL     1      -2.310  17.129  19.193  0.00  0.00    +0.000 OA
ATOM     36  H   UNL     1      -2.491  17.652  18.392  0.00  0.00    +0.000 HD
ENDBRANCH  34  35
ENDBRANCH  33  34
ENDBRANCH  32  33
ENDBRANCH   2  32
TORSDOF 11
ENDMDL
MODEL 3
REMARK VINA RESULT:      -6.1      1.180      1.603
REMARK  Name = 
REMARK  15 active torsions:
REMARK  status: ('A' for Active; 'I' for Inactive)
REMARK    1  A    between atoms: C_1  and  C_2
REMARK    2  A    between atoms: C_5  and  C_6
REMARK    3  A    between atoms: C_6  and  C_22
REMARK    4  A    between atoms: C_7  and  C_8
REMARK    5  A    between atoms: C_7  and  C_12
REMARK    6  A    between atoms: C_8  and  C_9
REMARK    7  A    between atoms: C_9  and  C_10
REMARK    8  A    between atoms: C_10  and  O_11
REMARK    9  A    between atoms: N_18  and  C_19
REMARK   10  A    between atoms: C_25  and  O_26
REMARK   11  A    between atoms: O_26  and  C_27
REMARK   12  A    between atoms: C_27  and  C_28
REMARK   13  A    between atoms: C_28  and  N_29
REMARK   14  A    between atoms: N_29  and  C_30
REMARK   15  A    between atoms: N_29  and  C_31
REMARK                            x       y       z     vdW  Elec       q    Type
REMARK                         _______ _______ _______ _____ _____    ______ ____
ROOT
ATOM      1  C   UNL     1       1.058  12.851  19.427  0.00  0.00    +0.000 C 
ATOM      2  C   UNL     1      -0.115  13.526  19.178  0.00  0.00    +0.000 C 
ENDROOT
BRANCH   2   3
ATOM      3  C   UNL     1      -1.507  12.894  19.104  0.00  0.00    +0.000 A 
ATOM      4  C   UNL     1      -2.474  13.099  20.110  0.00  0.00    +0.000 A 
ATOM      5  C   UNL     1      -3.768  12.531  20.073  0.00  0.00    +0.000 A 
ATOM      6  C   UNL     1      -4.155  11.798  18.946  0.00  0.00    +0.000 A 
ATOM      7  C   UNL     1      -5.313  11.130  18.492  0.00  0.00    +0.000 A 
ATOM      8  N   UNL     1      -5.176  10.639  17.258  0.00  0.00    +0.000 NA
ATOM      9  N   UNL     1      -3.922  11.003  16.915  0.00  0.00    +0.000 N 
ATOM     10  C   UNL     1      -3.538  10.980  15.521  0.00  0.00    +0.000 C 
ATOM     11  C   UNL     1      -3.226  11.608  17.935  0.00  0.00    +0.000 A 
ATOM     12  C   UNL     1      -1.899  12.057  18.042  0.00  0.00    +0.000 A 
ENDBRANCH   2   3
BRANCH   1  17
ATOM     13  C   UNL     1       6.195  15.539  19.585  0.00  0.00    +0.000 C 
ATOM     14  C   UNL     1       4.852  14.874  19.547  0.00  0.00    +0.000 A 
ATOM     15  C   UNL     1       4.180  14.541  20.733  0.00  0.00    +0.000 A 
ATOM     16  C   UNL     1       2.942  13.905  20.692  0.00  0.00    +0.000 A 
ATOM     17  C   UNL     1       2.357  13.581  19.462  0.00  0.00    +0.000 A 
ATOM     18  C   UNL     1       3.031  13.901  18.276  0.00  0.00    +0.000 A 
ATOM     19  C   UNL     1       4.266  14.543  18.316  0.00  0.00    +0.000 A 
ENDBRANCH   1  17
BRANCH   1  20
ATOM     20  C   UNL     1       1.153  11.370  19.547  0.00  0.00    +0.000 A 
ATOM     21  C   UNL     1       0.866  10.782  20.776  0.00  0.00    +0.000 A 
ATOM     22  C   UNL     1       1.018   9.409  20.950  0.00  0.00    +0.000 A 
ATOM     23  C   UNL     1       1.491   8.601  19.910  0.00  0.00    +0.000 A 
ATOM     24  C   UNL     1       1.690   9.171  18.651  0.00  0.00    +0.000 A 
ATOM     25  C   UNL     1       1.494  10.547  18.459  0.00  0.00    +0.000 A 
BRANCH  23  26
ATOM     26  O   UNL     1       1.813   7.268  20.041  0.00  0.00    +0.000 OA
BRANCH  26  27
ATOM     27  C   UNL     1       2.771   6.821  19.071  0.00  0.00    +0.000 C 
BRANCH  27  28
ATOM     28  C   UNL     1       2.319   5.571  18.304  0.00  0.00    +0.000 C 
BRANCH  28  29
ATOM     29  N   UNL     1       3.458   4.897  17.639  0.00  0.00    +0.000 NA
ATOM     30  C   UNL     1       4.454   5.845  17.131  0.00  0.00    +0.000 C 
ATOM     31  C   UNL     1       4.101   3.951  18.549  0.00  0.00    +0.000 C 
ENDBRANCH  28  29
ENDBRANCH  27  28
ENDBRANCH  26  27
ENDBRANCH  23  26
ENDBRANCH   1  20
BRANCH   2  32
ATOM     32  C   UNL     1      -0.064  15.027  18.805  0.00  0.00    +0.000 C 
BRANCH  32  33
ATOM     33  C   UNL     1      -0.409  16.003  19.938  0.00  0.00    +0.000 C 
BRANCH  33  34
ATOM     34  C   UNL     1       0.810  16.826  20.358  0.00  0.00    +0.000 C 
BRANCH  34  35
ATOM     35  O   UNL     1       1.676  17.080  19.260  0.00  0.00    +0.000 OA
ATOM     36  H   UNL     1       2.248  17.830  19.497  0.00  0.00    +0.000 HD
ENDBRANCH  34  35
ENDBRANCH  33  34
ENDBRANCH  32  33
ENDBRANCH   2  32
TORSDOF 11
ENDMDL
MODEL 4
REMARK VINA RESULT:      -6.1      3.279      6.988
REMARK  Name = 
REMARK  15 active torsions:
REMARK  status: ('A' for Active; 'I' for Inactive)
REMARK    1  A    between atoms: C_1  and  C_2
REMARK    2  A    between atoms: C_5  and  C_6
REMARK    3  A    between atoms: C_6  and  C_22
REMARK    4  A    between atoms: C_7  and  C_8
REMARK    5  A    between atoms: C_7  and  C_12
REMARK    6  A    between atoms: C_8  and  C_9
REMARK    7  A    between atoms: C_9  and  C_10
REMARK    8  A    between atoms: C_10  and  O_11
REMARK    9  A    between atoms: N_18  and  C_19
REMARK   10  A    between atoms: C_25  and  O_26
REMARK   11  A    between atoms: O_26  and  C_27
REMARK   12  A    between atoms: C_27  and  C_28
REMARK   13  A    between atoms: C_28  and  N_29
REMARK   14  A    between atoms: N_29  and  C_30
REMARK   15  A    between atoms: N_29  and  C_31
REMARK                            x       y       z     vdW  Elec       q    Type
REMARK                         _______ _______ _______ _____ _____    ______ ____
ROOT
ATOM      1  C   UNL     1      -0.172  11.512  19.377  0.00  0.00    +0.000 C 
ATOM      2  C   UNL     1       0.396  12.641  19.922  0.00  0.00    +0.000 C 
ENDROOT
BRANCH   2   3
ATOM      3  C   UNL     1      -0.293  13.999  20.072  0.00  0.00    +0.000 A 
ATOM      4  C   UNL     1      -0.900  14.399  21.281  0.00  0.00    +0.000 A 
ATOM      5  C   UNL     1      -1.545  15.645  21.453  0.00  0.00    +0.000 A 
ATOM      6  C   UNL     1      -1.512  16.576  20.410  0.00  0.00    +0.000 A 
ATOM      7  C   UNL     1      -1.962  17.895  20.184  0.00  0.00    +0.000 A 
ATOM      8  N   UNL     1      -1.584  18.373  18.995  0.00  0.00    +0.000 NA
ATOM      9  N   UNL     1      -0.879  17.355  18.459  0.00  0.00    +0.000 N 
ATOM     10  C   UNL     1       0.002  17.618  17.343  0.00  0.00    +0.000 C 
ATOM     11  C   UNL     1      -0.896  16.212  19.223  0.00  0.00    +0.000 A 
ATOM     12  C   UNL     1      -0.381  14.921  19.012  0.00  0.00    +0.000 A 
ENDBRANCH   2   3
BRANCH   1  17
ATOM     13  C   UNL     1       3.020   6.681  19.032  0.00  0.00    +0.000 C 
ATOM     14  C   UNL     1       2.170   7.914  19.106  0.00  0.00    +0.000 A 
ATOM     15  C   UNL     1       2.114   8.815  18.032  0.00  0.00    +0.000 A 
ATOM     16  C   UNL     1       1.338   9.969  18.113  0.00  0.00    +0.000 A 
ATOM     17  C   UNL     1       0.611  10.248  19.276  0.00  0.00    +0.000 A 
ATOM     18  C   UNL     1       0.675   9.356  20.355  0.00  0.00    +0.000 A 
ATOM     19  C   UNL     1       1.445   8.199  20.273  0.00  0.00    +0.000 A 
ENDBRANCH   1  17
BRANCH   1  20
ATOM     20  C   UNL     1      -1.517  11.484  18.743  0.00  0.00    +0.000 A 
ATOM     21  C   UNL     1      -1.621  11.059  17.420  0.00  0.00    +0.000 A 
ATOM     22  C   UNL     1      -2.851  11.093  16.767  0.00  0.00    +0.000 A 
ATOM     23  C   UNL     1      -3.993  11.581  17.410  0.00  0.00    +0.000 A 
ATOM     24  C   UNL     1      -3.913  11.919  18.762  0.00  0.00    +0.000 A 
ATOM     25  C   UNL     1      -2.686  11.844  19.438  0.00  0.00    +0.000 A 
BRANCH  23  26
ATOM     26  O   UNL     1      -5.208  11.790  16.794  0.00  0.00    +0.000 OA
BRANCH  26  27
ATOM     27  C   UNL     1      -6.116  12.569  17.585  0.00  0.00    +0.000 C 
BRANCH  27  28
ATOM     28  C   UNL     1      -7.252  11.739  18.196  0.00  0.00    +0.000 C 
BRANCH  28  29
ATOM     29  N   UNL     1      -7.667  12.270  19.516  0.00  0.00    +0.000 NA
ATOM     30  C   UNL     1      -7.271  11.394  20.623  0.00  0.00    +0.000 C 
ATOM     31  C   UNL     1      -7.121  13.609  19.729  0.00  0.00    +0.000 C 
ENDBRANCH  28  29
ENDBRANCH  27  28
ENDBRANCH  26  27
ENDBRANCH  23  26
ENDBRANCH   1  20
BRANCH   2  32
ATOM     32  C   UNL     1       1.894  12.628  20.310  0.00  0.00    +0.000 C 
BRANCH  32  33
ATOM     33  C   UNL     1       2.759  13.713  19.654  0.00  0.00    +0.000 C 
BRANCH  33  34
ATOM     34  C   UNL     1       2.992  13.422  18.171  0.00  0.00    +0.000 C 
BRANCH  34  35
ATOM     35  O   UNL     1       3.428  14.579  17.470  0.00  0.00    +0.000 OA
ATOM     36  H   UNL     1       2.688  15.210  17.442  0.00  0.00    +0.000 HD
ENDBRANCH  34  35
ENDBRANCH  33  34
ENDBRANCH  32  33
ENDBRANCH   2  32
TORSDOF 11
ENDMDL
MODEL 5
REMARK VINA RESULT:      -6.1      1.396      2.047
REMARK  Name = 
REMARK  15 active torsions:
REMARK  status: ('A' for Active; 'I' for Inactive)
REMARK    1  A    between atoms: C_1  and  C_2
REMARK    2  A    between atoms: C_5  and  C_6
REMARK    3  A    between atoms: C_6  and  C_22
REMARK    4  A    between atoms: C_7  and  C_8
REMARK    5  A    between atoms: C_7  and  C_12
REMARK    6  A    between atoms: C_8  and  C_9
REMARK    7  A    between atoms: C_9  and  C_10
REMARK    8  A    between atoms: C_10  and  O_11
REMARK    9  A    between atoms: N_18  and  C_19
REMARK   10  A    between atoms: C_25  and  O_26
REMARK   11  A    between atoms: O_26  and  C_27
REMARK   12  A    between atoms: C_27  and  C_28
REMARK   13  A    between atoms: C_28  and  N_29
REMARK   14  A    between atoms: N_29  and  C_30
REMARK   15  A    between atoms: N_29  and  C_31
REMARK                            x       y       z     vdW  Elec       q    Type
REMARK                         _______ _______ _______ _____ _____    ______ ____
ROOT
ATOM      1  C   UNL     1       1.017  12.799  19.505  0.00  0.00    +0.000 C 
ATOM      2  C   UNL     1      -0.119  13.499  19.167  0.00  0.00    +0.000 C 
ENDROOT
BRANCH   2   3
ATOM      3  C   UNL     1      -1.530  12.914  19.075  0.00  0.00    +0.000 A 
ATOM      4  C   UNL     1      -1.904  12.027  18.044  0.00  0.00    +0.000 A 
ATOM      5  C   UNL     1      -3.198  11.468  17.929  0.00  0.00    +0.000 A 
ATOM      6  C   UNL     1      -4.140  11.729  18.930  0.00  0.00    +0.000 A 
ATOM      7  C   UNL     1      -5.470  11.354  19.224  0.00  0.00    +0.000 A 
ATOM      8  N   UNL     1      -5.895  11.838  20.394  0.00  0.00    +0.000 NA
ATOM      9  N   UNL     1      -4.827  12.521  20.857  0.00  0.00    +0.000 N 
ATOM     10  C   UNL     1      -4.769  12.873  22.258  0.00  0.00    +0.000 C 
ATOM     11  C   UNL     1      -3.782  12.577  19.965  0.00  0.00    +0.000 A 
ATOM     12  C   UNL     1      -2.542  13.238  19.997  0.00  0.00    +0.000 A 
ENDBRANCH   2   3
BRANCH   1  17
ATOM     13  C   UNL     1       6.086  15.615  19.633  0.00  0.00    +0.000 C 
ATOM     14  C   UNL     1       4.792  14.858  19.601  0.00  0.00    +0.000 A 
ATOM     15  C   UNL     1       4.258  14.397  18.388  0.00  0.00    +0.000 A 
ATOM     16  C   UNL     1       3.046  13.712  18.361  0.00  0.00    +0.000 A 
ATOM     17  C   UNL     1       2.340  13.483  19.548  0.00  0.00    +0.000 A 
ATOM     18  C   UNL     1       2.865  13.954  20.759  0.00  0.00    +0.000 A 
ATOM     19  C   UNL     1       4.080  14.633  20.788  0.00  0.00    +0.000 A 
ENDBRANCH   1  17
BRANCH   1  20
ATOM     20  C   UNL     1       1.051  11.327  19.719  0.00  0.00    +0.000 A 
ATOM     21  C   UNL     1       0.781  10.832  20.993  0.00  0.00    +0.000 A 
ATOM     22  C   UNL     1       0.878   9.467  21.251  0.00  0.00    +0.000 A 
ATOM     23  C   UNL     1       1.279   8.574  20.253  0.00  0.00    +0.000 A 
ATOM     24  C   UNL     1       1.460   9.051  18.953  0.00  0.00    +0.000 A 
ATOM     25  C   UNL     1       1.318  10.420  18.677  0.00  0.00    +0.000 A 
BRANCH  23  26
ATOM     26  O   UNL     1       1.547   7.238  20.460  0.00  0.00    +0.000 OA
BRANCH  26  27
ATOM     27  C   UNL     1       2.594   6.734  19.619  0.00  0.00    +0.000 C 
BRANCH  27  28
ATOM     28  C   UNL     1       2.273   5.365  19.007  0.00  0.00    +0.000 C 
BRANCH  28  29
ATOM     29  N   UNL     1       3.458   4.475  19.009  0.00  0.00    +0.000 NA
ATOM     30  C   UNL     1       3.575   3.693  17.775  0.00  0.00    +0.000 C 
ATOM     31  C   UNL     1       4.682   5.245  19.220  0.00  0.00    +0.000 C 
ENDBRANCH  28  29
ENDBRANCH  27  28
ENDBRANCH  26  27
ENDBRANCH  23  26
ENDBRANCH   1  20
BRANCH   2  32
ATOM     32  C   UNL     1       0.004  14.970  18.706  0.00  0.00    +0.000 C 
BRANCH  32  33
ATOM     33  C   UNL     1      -0.171  16.027  19.806  0.00  0.00    +0.000 C 
BRANCH  33  34
ATOM     34  C   UNL     1       0.980  17.033  19.803  0.00  0.00    +0.000 C 
BRANCH  34  35
ATOM     35  O   UNL     1       1.761  16.935  18.619  0.00  0.00    +0.000 OA
ATOM     36  H   UNL     1       2.003  16.000  18.496  0.00  0.00    +0.000 HD
ENDBRANCH  34  35
ENDBRANCH  33  34
ENDBRANCH  32  33
ENDBRANCH   2  32
TORSDOF 11
ENDMDL
MODEL 6
REMARK VINA RESULT:      -6.1      1.243      1.760
REMARK  Name = 
REMARK  15 active torsions:
REMARK  status: ('A' for Active; 'I' for Inactive)
REMARK    1  A    between atoms: C_1  and  C_2
REMARK    2  A    between atoms: C_5  and  C_6
REMARK    3  A    between atoms: C_6  and  C_22
REMARK    4  A    between atoms: C_7  and  C_8
REMARK    5  A    between atoms: C_7  and  C_12
REMARK    6  A    between atoms: C_8  and  C_9
REMARK    7  A    between atoms: C_9  and  C_10
REMARK    8  A    between atoms: C_10  and  O_11
REMARK    9  A    between atoms: N_18  and  C_19
REMARK   10  A    between atoms: C_25  and  O_26
REMARK   11  A    between atoms: O_26  and  C_27
REMARK   12  A    between atoms: C_27  and  C_28
REMARK   13  A    between atoms: C_28  and  N_29
REMARK   14  A    between atoms: N_29  and  C_30
REMARK   15  A    between atoms: N_29  and  C_31
REMARK                            x       y       z     vdW  Elec       q    Type
REMARK                         _______ _______ _______ _____ _____    ______ ____
ROOT
ATOM      1  C   UNL     1       0.932  12.366  19.181  0.00  0.00    +0.000 C 
ATOM      2  C   UNL     1      -0.242  12.958  18.774  0.00  0.00    +0.000 C 
ENDROOT
BRANCH   2   3
ATOM      3  C   UNL     1      -1.561  12.228  18.511  0.00  0.00    +0.000 A 
ATOM      4  C   UNL     1      -1.644  11.131  17.628  0.00  0.00    +0.000 A 
ATOM      5  C   UNL     1      -2.845  10.434  17.362  0.00  0.00    +0.000 A 
ATOM      6  C   UNL     1      -4.002  10.783  18.068  0.00  0.00    +0.000 A 
ATOM      7  C   UNL     1      -5.340  10.339  18.148  0.00  0.00    +0.000 A 
ATOM      8  N   UNL     1      -6.044  10.989  19.078  0.00  0.00    +0.000 NA
ATOM      9  N   UNL     1      -5.148  11.849  19.605  0.00  0.00    +0.000 N 
ATOM     10  C   UNL     1      -5.426  12.462  20.885  0.00  0.00    +0.000 C 
ATOM     11  C   UNL     1      -3.933  11.842  18.959  0.00  0.00    +0.000 A 
ATOM     12  C   UNL     1      -2.772  12.618  19.114  0.00  0.00    +0.000 A 
ENDBRANCH   2   3
BRANCH   1  17
ATOM     13  C   UNL     1       5.603  15.711  19.976  0.00  0.00    +0.000 C 
ATOM     14  C   UNL     1       4.416  14.819  19.770  0.00  0.00    +0.000 A 
ATOM     15  C   UNL     1       4.022  14.432  18.480  0.00  0.00    +0.000 A 
ATOM     16  C   UNL     1       2.906  13.620  18.292  0.00  0.00    +0.000 A 
ATOM     17  C   UNL     1       2.157  13.188  19.393  0.00  0.00    +0.000 A 
ATOM     18  C   UNL     1       2.540  13.584  20.682  0.00  0.00    +0.000 A 
ATOM     19  C   UNL     1       3.659  14.390  20.871  0.00  0.00    +0.000 A 
ENDBRANCH   1  17
BRANCH   1  20
ATOM     20  C   UNL     1       1.117  10.895  19.312  0.00  0.00    +0.000 A 
ATOM     21  C   UNL     1       0.746  10.281  20.505  0.00  0.00    +0.000 A 
ATOM     22  C   UNL     1       0.975   8.920  20.695  0.00  0.00    +0.000 A 
ATOM     23  C   UNL     1       1.609   8.154  19.712  0.00  0.00    +0.000 A 
ATOM     24  C   UNL     1       1.898   8.744  18.480  0.00  0.00    +0.000 A 
ATOM     25  C   UNL     1       1.627  10.104  18.266  0.00  0.00    +0.000 A 
BRANCH  23  26
ATOM     26  O   UNL     1       2.009   6.846  19.877  0.00  0.00    +0.000 OA
BRANCH  26  27
ATOM     27  C   UNL     1       2.790   6.351  18.780  0.00  0.00    +0.000 C 
BRANCH  27  28
ATOM     28  C   UNL     1       3.686   5.166  19.160  0.00  0.00    +0.000 C 
BRANCH  28  29
ATOM     29  N   UNL     1       2.943   3.884  19.114  0.00  0.00    +0.000 NA
ATOM     30  C   UNL     1       1.996   3.823  17.997  0.00  0.00    +0.000 C 
ATOM     31  C   UNL     1       3.867   2.754  19.037  0.00  0.00    +0.000 C 
ENDBRANCH  28  29
ENDBRANCH  27  28
ENDBRANCH  26  27
ENDBRANCH  23  26
ENDBRANCH   1  20
BRANCH   2  32
ATOM     32  C   UNL     1      -0.251  14.462  18.413  0.00  0.00    +0.000 C 
BRANCH  32  33
ATOM     33  C   UNL     1      -0.588  15.419  19.565  0.00  0.00    +0.000 C 
BRANCH  33  34
ATOM     34  C   UNL     1      -0.306  16.873  19.186  0.00  0.00    +0.000 C 
BRANCH  34  35
ATOM     35  O   UNL     1      -0.804  17.184  17.891  0.00  0.00    +0.000 OA
ATOM     36  H   UNL     1      -1.223  18.062  17.934  0.00  0.00    +0.000 HD
ENDBRANCH  34  35
ENDBRANCH  33  34
ENDBRANCH  32  33
ENDBRANCH   2  32
TORSDOF 11
ENDMDL
MODEL 7
REMARK VINA RESULT:      -6.0      1.026      1.395
REMARK  Name = 
REMARK  15 active torsions:
REMARK  status: ('A' for Active; 'I' for Inactive)
REMARK    1  A    between atoms: C_1  and  C_2
REMARK    2  A    between atoms: C_5  and  C_6
REMARK    3  A    between atoms: C_6  and  C_22
REMARK    4  A    between atoms: C_7  and  C_8
REMARK    5  A    between atoms: C_7  and  C_12
REMARK    6  A    between atoms: C_8  and  C_9
REMARK    7  A    between atoms: C_9  and  C_10
REMARK    8  A    between atoms: C_10  and  O_11
REMARK    9  A    between atoms: N_18  and  C_19
REMARK   10  A    between atoms: C_25  and  O_26
REMARK   11  A    between atoms: O_26  and  C_27
REMARK   12  A    between atoms: C_27  and  C_28
REMARK   13  A    between atoms: C_28  and  N_29
REMARK   14  A    between atoms: N_29  and  C_30
REMARK   15  A    between atoms: N_29  and  C_31
REMARK                            x       y       z     vdW  Elec       q    Type
REMARK                         _______ _______ _______ _____ _____    ______ ____
ROOT
ATOM      1  C   UNL     1       1.163  12.925  19.746  0.00  0.00    +0.000 C 
ATOM      2  C   UNL     1      -0.035  13.602  19.723  0.00  0.00    +0.000 C 
ENDROOT
BRANCH   2   3
ATOM      3  C   UNL     1      -1.408  12.974  19.470  0.00  0.00    +0.000 A 
ATOM      4  C   UNL     1      -2.499  13.189  20.338  0.00  0.00    +0.000 A 
ATOM      5  C   UNL     1      -3.779  12.624  20.135  0.00  0.00    +0.000 A 
ATOM      6  C   UNL     1      -4.016  11.883  18.972  0.00  0.00    +0.000 A 
ATOM      7  C   UNL     1      -5.107  11.215  18.374  0.00  0.00    +0.000 A 
ATOM      8  N   UNL     1      -4.809  10.715  17.172  0.00  0.00    +0.000 NA
ATOM      9  N   UNL     1      -3.520  11.072  16.995  0.00  0.00    +0.000 N 
ATOM     10  C   UNL     1      -2.955  11.037  15.664  0.00  0.00    +0.000 C 
ATOM     11  C   UNL     1      -2.963  11.683  18.094  0.00  0.00    +0.000 A 
ATOM     12  C   UNL     1      -1.659  12.130  18.372  0.00  0.00    +0.000 A 
ENDBRANCH   2   3
BRANCH   1  17
ATOM     13  C   UNL     1       6.210  15.615  20.709  0.00  0.00    +0.000 C 
ATOM     14  C   UNL     1       4.889  14.948  20.466  0.00  0.00    +0.000 A 
ATOM     15  C   UNL     1       4.135  14.435  21.532  0.00  0.00    +0.000 A 
ATOM     16  C   UNL     1       2.918  13.799  21.299  0.00  0.00    +0.000 A 
ATOM     17  C   UNL     1       2.437  13.656  19.992  0.00  0.00    +0.000 A 
ATOM     18  C   UNL     1       3.195  14.156  18.924  0.00  0.00    +0.000 A 
ATOM     19  C   UNL     1       4.409  14.798  19.157  0.00  0.00    +0.000 A 
ENDBRANCH   1  17
BRANCH   1  20
ATOM     20  C   UNL     1       1.306  11.483  19.408  0.00  0.00    +0.000 A 
ATOM     21  C   UNL     1       0.912  10.536  20.350  0.00  0.00    +0.000 A 
ATOM     22  C   UNL     1       1.103   9.179  20.103  0.00  0.00    +0.000 A 
ATOM     23  C   UNL     1       1.719   8.742  18.925  0.00  0.00    +0.000 A 
ATOM     24  C   UNL     1       2.030   9.680  17.939  0.00  0.00    +0.000 A 
ATOM     25  C   UNL     1       1.798  11.046  18.164  0.00  0.00    +0.000 A 
BRANCH  23  26
ATOM     26  O   UNL     1       2.082   7.437  18.670  0.00  0.00    +0.000 OA
BRANCH  26  27
ATOM     27  C   UNL     1       2.313   6.672  19.861  0.00  0.00    +0.000 C 
BRANCH  27  28
ATOM     28  C   UNL     1       2.731   5.224  19.579  0.00  0.00    +0.000 C 
BRANCH  28  29
ATOM     29  N   UNL     1       1.639   4.456  18.933  0.00  0.00    +0.000 NA
ATOM     30  C   UNL     1       2.090   3.735  17.740  0.00  0.00    +0.000 C 
ATOM     31  C   UNL     1       1.040   3.516  19.878  0.00  0.00    +0.000 C 
ENDBRANCH  28  29
ENDBRANCH  27  28
ENDBRANCH  26  27
ENDBRANCH  23  26
ENDBRANCH   1  20
BRANCH   2  32
ATOM     32  C   UNL     1      -0.039  15.146  19.825  0.00  0.00    +0.000 C 
BRANCH  32  33
ATOM     33  C   UNL     1      -0.185  15.899  18.496  0.00  0.00    +0.000 C 
BRANCH  33  34
ATOM     34  C   UNL     1       0.888  16.978  18.343  0.00  0.00    +0.000 C 
BRANCH  34  35
ATOM     35  O   UNL     1       1.565  17.222  19.569  0.00  0.00    +0.000 OA
ATOM     36  H   UNL     1       2.369  16.674  19.582  0.00  0.00    +0.000 HD
ENDBRANCH  34  35
ENDBRANCH  33  34
ENDBRANCH  32  33
ENDBRANCH   2  32
TORSDOF 11
ENDMDL
MODEL 8
REMARK VINA RESULT:      -6.0      0.794      1.287
REMARK  Name = 
REMARK  15 active torsions:
REMARK  status: ('A' for Active; 'I' for Inactive)
REMARK    1  A    between atoms: C_1  and  C_2
REMARK    2  A    between atoms: C_5  and  C_6
REMARK    3  A    between atoms: C_6  and  C_22
REMARK    4  A    between atoms: C_7  and  C_8
REMARK    5  A    between atoms: C_7  and  C_12
REMARK    6  A    between atoms: C_8  and  C_9
REMARK    7  A    between atoms: C_9  and  C_10
REMARK    8  A    between atoms: C_10  and  O_11
REMARK    9  A    between atoms: N_18  and  C_19
REMARK   10  A    between atoms: C_25  and  O_26
REMARK   11  A    between atoms: O_26  and  C_27
REMARK   12  A    between atoms: C_27  and  C_28
REMARK   13  A    between atoms: C_28  and  N_29
REMARK   14  A    between atoms: N_29  and  C_30
REMARK   15  A    between atoms: N_29  and  C_31
REMARK                            x       y       z     vdW  Elec       q    Type
REMARK                         _______ _______ _______ _____ _____    ______ ____
ROOT
ATOM      1  C   UNL     1       1.170  12.813  19.312  0.00  0.00    +0.000 C 
ATOM      2  C   UNL     1      -0.021  13.478  19.128  0.00  0.00    +0.000 C 
ENDROOT
BRANCH   2   3
ATOM      3  C   UNL     1      -1.395  12.819  18.987  0.00  0.00    +0.000 A 
ATOM      4  C   UNL     1      -2.398  12.967  19.968  0.00  0.00    +0.000 A 
ATOM      5  C   UNL     1      -3.677  12.372  19.869  0.00  0.00    +0.000 A 
ATOM      6  C   UNL     1      -4.011  11.672  18.705  0.00  0.00    +0.000 A 
ATOM      7  C   UNL     1      -5.139  10.996  18.190  0.00  0.00    +0.000 A 
ATOM      8  N   UNL     1      -4.951  10.554  16.944  0.00  0.00    +0.000 NA
ATOM      9  N   UNL     1      -3.696  10.957  16.655  0.00  0.00    +0.000 N 
ATOM     10  C   UNL     1      -3.268  10.992  15.275  0.00  0.00    +0.000 C 
ATOM     11  C   UNL     1      -3.047  11.539  17.719  0.00  0.00    +0.000 A 
ATOM     12  C   UNL     1      -1.734  12.013  17.884  0.00  0.00    +0.000 A 
ENDBRANCH   2   3
BRANCH   1  17
ATOM     13  C   UNL     1       6.230  15.611  19.768  0.00  0.00    +0.000 C 
ATOM     14  C   UNL     1       4.907  14.917  19.653  0.00  0.00    +0.000 A 
ATOM     15  C   UNL     1       4.201  14.518  20.799  0.00  0.00    +0.000 A 
ATOM     16  C   UNL     1       2.981  13.856  20.688  0.00  0.00    +0.000 A 
ATOM     17  C   UNL     1       2.448  13.571  19.424  0.00  0.00    +0.000 A 
ATOM     18  C   UNL     1       3.156  13.956  18.278  0.00  0.00    +0.000 A 
ATOM     19  C   UNL     1       4.373  14.624  18.389  0.00  0.00    +0.000 A 
ENDBRANCH   1  17
BRANCH   1  20
ATOM     20  C   UNL     1       1.305  11.331  19.282  0.00  0.00    +0.000 A 
ATOM     21  C   UNL     1       0.967  10.609  20.424  0.00  0.00    +0.000 A 
ATOM     22  C   UNL     1       1.153   9.229  20.462  0.00  0.00    +0.000 A 
ATOM     23  C   UNL     1       1.710   8.549  19.374  0.00  0.00    +0.000 A 
ATOM     24  C   UNL     1       1.963   9.253  18.196  0.00  0.00    +0.000 A 
ATOM     25  C   UNL     1       1.734  10.637  18.137  0.00  0.00    +0.000 A 
BRANCH  23  26
ATOM     26  O   UNL     1       2.067   7.218  19.385  0.00  0.00    +0.000 OA
BRANCH  26  27
ATOM     27  C   UNL     1       1.736   6.553  20.612  0.00  0.00    +0.000 C 
BRANCH  27  28
ATOM     28  C   UNL     1       1.430   5.061  20.430  0.00  0.00    +0.000 C 
BRANCH  28  29
ATOM     29  N   UNL     1       2.170   4.488  19.281  0.00  0.00    +0.000 NA
ATOM     30  C   UNL     1       3.513   4.031  19.650  0.00  0.00    +0.000 C 
ATOM     31  C   UNL     1       1.422   3.384  18.684  0.00  0.00    +0.000 C 
ENDBRANCH  28  29
ENDBRANCH  27  28
ENDBRANCH  26  27
ENDBRANCH  23  26
ENDBRANCH   1  20
BRANCH   2  32
ATOM     32  C   UNL     1      -0.011  15.010  18.910  0.00  0.00    +0.000 C 
BRANCH  32  33
ATOM     33  C   UNL     1      -0.068  15.862  20.185  0.00  0.00    +0.000 C 
BRANCH  33  34
ATOM     34  C   UNL     1      -1.496  16.320  20.487  0.00  0.00    +0.000 C 
BRANCH  34  35
ATOM     35  O   UNL     1      -2.146  16.814  19.323  0.00  0.00    +0.000 OA
ATOM     36  H   UNL     1      -1.518  17.386  18.849  0.00  0.00    +0.000 HD
ENDBRANCH  34  35
ENDBRANCH  33  34
ENDBRANCH  32  33
ENDBRANCH   2  32
TORSDOF 11
ENDMDL
MODEL 9
REMARK VINA RESULT:      -6.0      2.760      6.222
REMARK  Name = 
REMARK  15 active torsions:
REMARK  status: ('A' for Active; 'I' for Inactive)
REMARK    1  A    between atoms: C_1  and  C_2
REMARK    2  A    between atoms: C_5  and  C_6
REMARK    3  A    between atoms: C_6  and  C_22
REMARK    4  A    between atoms: C_7  and  C_8
REMARK    5  A    between atoms: C_7  and  C_12
REMARK    6  A    between atoms: C_8  and  C_9
REMARK    7  A    between atoms: C_9  and  C_10
REMARK    8  A    between atoms: C_10  and  O_11
REMARK    9  A    between atoms: N_18  and  C_19
REMARK   10  A    between atoms: C_25  and  O_26
REMARK   11  A    between atoms: O_26  and  C_27
REMARK   12  A    between atoms: C_27  and  C_28
REMARK   13  A    between atoms: C_28  and  N_29
REMARK   14  A    between atoms: N_29  and  C_30
REMARK   15  A    between atoms: N_29  and  C_31
REMARK                            x       y       z     vdW  Elec       q    Type
REMARK                         _______ _______ _______ _____ _____    ______ ____
ROOT
ATOM      1  C   UNL     1      -0.268  12.400  18.994  0.00  0.00    +0.000 C 
ATOM      2  C   UNL     1       0.288  13.653  19.108  0.00  0.00    +0.000 C 
ENDROOT
BRANCH   2   3
ATOM      3  C   UNL     1       1.783  13.954  19.243  0.00  0.00    +0.000 A 
ATOM      4  C   UNL     1       2.618  14.105  18.116  0.00  0.00    +0.000 A 
ATOM      5  C   UNL     1       4.002  14.383  18.204  0.00  0.00    +0.000 A 
ATOM      6  C   UNL     1       4.569  14.609  19.463  0.00  0.00    +0.000 A 
ATOM      7  C   UNL     1       5.837  14.950  19.981  0.00  0.00    +0.000 A 
ATOM      8  N   UNL     1       5.823  15.133  21.304  0.00  0.00    +0.000 NA
ATOM      9  N   UNL     1       4.532  14.916  21.635  0.00  0.00    +0.000 N 
ATOM     10  C   UNL     1       4.044  15.381  22.914  0.00  0.00    +0.000 C 
ATOM     11  C   UNL     1       3.758  14.492  20.580  0.00  0.00    +0.000 A 
ATOM     12  C   UNL     1       2.417  14.079  20.493  0.00  0.00    +0.000 A 
ENDBRANCH   2   3
BRANCH   1  17
ATOM     13  C   UNL     1      -6.000  11.601  18.605  0.00  0.00    +0.000 C 
ATOM     14  C   UNL     1      -4.522  11.836  18.689  0.00  0.00    +0.000 A 
ATOM     15  C   UNL     1      -3.673  11.473  17.632  0.00  0.00    +0.000 A 
ATOM     16  C   UNL     1      -2.298  11.676  17.723  0.00  0.00    +0.000 A 
ATOM     17  C   UNL     1      -1.745  12.238  18.881  0.00  0.00    +0.000 A 
ATOM     18  C   UNL     1      -2.588  12.590  19.943  0.00  0.00    +0.000 A 
ATOM     19  C   UNL     1      -3.964  12.393  19.850  0.00  0.00    +0.000 A 
ENDBRANCH   1  17
BRANCH   1  20
ATOM     20  C   UNL     1       0.508  11.135  19.102  0.00  0.00    +0.000 A 
ATOM     21  C   UNL     1       1.286  10.736  18.017  0.00  0.00    +0.000 A 
ATOM     22  C   UNL     1       1.965   9.520  18.051  0.00  0.00    +0.000 A 
ATOM     23  C   UNL     1       1.855   8.666  19.153  0.00  0.00    +0.000 A 
ATOM     24  C   UNL     1       1.155   9.103  20.278  0.00  0.00    +0.000 A 
ATOM     25  C   UNL     1       0.506  10.347  20.268  0.00  0.00    +0.000 A 
BRANCH  23  26
ATOM     26  O   UNL     1       2.367   7.387  19.204  0.00  0.00    +0.000 OA
BRANCH  26  27
ATOM     27  C   UNL     1       1.891   6.633  20.328  0.00  0.00    +0.000 C 
BRANCH  27  28
ATOM     28  C   UNL     1       2.500   5.228  20.416  0.00  0.00    +0.000 C 
BRANCH  28  29
ATOM     29  N   UNL     1       1.493   4.222  20.831  0.00  0.00    +0.000 NA
ATOM     30  C   UNL     1       0.880   3.537  19.689  0.00  0.00    +0.000 C 
ATOM     31  C   UNL     1       2.088   3.237  21.732  0.00  0.00    +0.000 C 
ENDBRANCH  28  29
ENDBRANCH  27  28
ENDBRANCH  26  27
ENDBRANCH  23  26
ENDBRANCH   1  20
BRANCH   2  32
ATOM     32  C   UNL     1      -0.636  14.886  19.250  0.00  0.00    +0.000 C 
BRANCH  32  33
ATOM     33  C   UNL     1      -0.050  16.215  18.753  0.00  0.00    +0.000 C 
BRANCH  33  34
ATOM     34  C   UNL     1      -1.144  17.260  18.532  0.00  0.00    +0.000 C 
BRANCH  34  35
ATOM     35  O   UNL     1      -2.327  16.944  19.254  0.00  0.00    +0.000 OA
ATOM     36  H   UNL     1      -2.685  16.115  18.894  0.00  0.00    +0.000 HD
ENDBRANCH  34  35
ENDBRANCH  33  34
ENDBRANCH  32  33
ENDBRANCH   2  32
TORSDOF 11
ENDMDL
