MODEL 1
REMARK VINA RESULT:      -7.7      0.000      0.000
REMARK  Name = 
REMARK  11 active torsions:
REMARK  status: ('A' for Active; 'I' for Inactive)
REMARK    1  A    between atoms: C_1  and  O_2
REMARK    2  A    between atoms: O_2  and  C_3
REMARK    3  A    between atoms: C_6  and  C_7
REMARK    4  A    between atoms: C_7  and  O_8
REMARK    5  A    between atoms: C_7  and  C_9
REMARK    6  A    between atoms: C_7  and  C_17
REMARK    7  A    between atoms: C_12  and  O_13
REMARK    8  A    between atoms: O_13  and  C_14
REMARK    9  A    between atoms: C_21  and  O_23
REMARK   10  A    between atoms: O_23  and  C_24
REMARK   11  A    between atoms: C_27  and  N_28
REMARK                            x       y       z     vdW  Elec       q    Type
REMARK                         _______ _______ _______ _____ _____    ______ ____
ROOT
ATOM      1  C   UNL     1      -2.117  12.634  20.009  0.00  0.00    +0.000 C 
ENDROOT
BRANCH   1   2
ATOM      2  C   UNL     1      -0.819  12.123  20.770  0.00  0.00    +0.000 C 
ATOM      3  C   UNL     1       0.520  12.744  20.330  0.00  0.00    +0.000 C 
ATOM      4  C   UNL     1       1.148  12.064  19.129  0.00  0.00    +0.000 C 
ATOM      5  N   UNL     1       1.229  10.613  19.232  0.00  0.00    +0.000 N 
ATOM      6  C   UNL     1       1.924   9.994  18.180  0.00  0.00    +0.000 C 
ATOM      7  O   UNL     1       2.726  10.576  17.460  0.00  0.00    +0.000 OA
ATOM      8  C   UNL     1       0.132   9.886  19.845  0.00  0.00    +0.000 C 
ATOM      9  C   UNL     1      -0.598  10.612  20.961  0.00  0.00    +0.000 C 
BRANCH   6  10
ATOM     10  O   UNL     1       1.516   8.679  17.962  0.00  0.00    +0.000 OA
BRANCH  10  11
ATOM     11  C   UNL     1       2.486   7.707  18.264  0.00  0.00    +0.000 A 
ATOM     12  C   UNL     1       2.313   6.975  19.440  0.00  0.00    +0.000 A 
ATOM     13  C   UNL     1       3.200   5.936  19.739  0.00  0.00    +0.000 A 
ATOM     14  C   UNL     1       4.243   5.624  18.850  0.00  0.00    +0.000 A 
ATOM     15  C   UNL     1       4.394   6.344  17.655  0.00  0.00    +0.000 A 
ATOM     16  C   UNL     1       3.509   7.382  17.369  0.00  0.00    +0.000 A 
BRANCH  14  17
ATOM     17  N   UNL     1       5.174   4.536  19.154  0.00  0.00    +0.000 N 
ATOM     18  O   UNL     1       6.314   4.845  19.526  0.00  0.00    +0.000 OA
ATOM     19  O   UNL     1       4.770   3.371  19.026  0.00  0.00    +0.000 OA
ENDBRANCH  14  17
ENDBRANCH  10  11
ENDBRANCH   6  10
ENDBRANCH   1   2
BRANCH   1  23
ATOM     20  C   UNL     1      -3.000  10.196  16.466  0.00  0.00    +0.000 A 
ATOM     21  C   UNL     1      -3.756  10.033  17.622  0.00  0.00    +0.000 A 
ATOM     22  C   UNL     1      -3.526  10.852  18.742  0.00  0.00    +0.000 A 
ATOM     23  C   UNL     1      -2.513  11.836  18.744  0.00  0.00    +0.000 A 
ATOM     24  C   UNL     1      -1.742  11.949  17.577  0.00  0.00    +0.000 A 
ATOM     25  C   UNL     1      -1.992  11.156  16.454  0.00  0.00    +0.000 A 
BRANCH  20  27
ATOM     26  C   UNL     1      -3.861  10.109  14.249  0.00  0.00    +0.000 C 
ATOM     27  O   UNL     1      -3.127   9.496  15.300  0.00  0.00    +0.000 OA
ENDBRANCH  20  27
ENDBRANCH   1  23
BRANCH   1  28
ATOM     28  C   UNL     1      -3.358  12.839  20.926  0.00  0.00    +0.000 A 
ATOM     29  C   UNL     1      -4.607  13.259  20.437  0.00  0.00    +0.000 A 
ATOM     30  C   UNL     1      -5.670  13.544  21.302  0.00  0.00    +0.000 A 
ATOM     31  C   UNL     1      -5.542  13.351  22.672  0.00  0.00    +0.000 A 
ATOM     32  C   UNL     1      -4.337  12.885  23.182  0.00  0.00    +0.000 A 
ATOM     33  C   UNL     1      -3.268  12.615  22.319  0.00  0.00    +0.000 A 
BRANCH  31  34
ATOM     34  O   UNL     1      -6.640  13.675  23.418  0.00  0.00    +0.000 OA
ATOM     35  C   UNL     1      -7.635  12.660  23.491  0.00  0.00    +0.000 C 
ENDBRANCH  31  34
ENDBRANCH   1  28
BRANCH   1  36
ATOM     36  O   UNL     1      -1.765  13.971  19.587  0.00  0.00    +0.000 OA
ATOM     37  H   UNL     1      -2.489  14.294  19.026  0.00  0.00    +0.000 HD
ENDBRANCH   1  36
TORSDOF 9
ENDMDL
MODEL 2
REMARK VINA RESULT:      -7.4      0.748      1.129
REMARK  Name = 
REMARK  11 active torsions:
REMARK  status: ('A' for Active; 'I' for Inactive)
REMARK    1  A    between atoms: C_1  and  O_2
REMARK    2  A    between atoms: O_2  and  C_3
REMARK    3  A    between atoms: C_6  and  C_7
REMARK    4  A    between atoms: C_7  and  O_8
REMARK    5  A    between atoms: C_7  and  C_9
REMARK    6  A    between atoms: C_7  and  C_17
REMARK    7  A    between atoms: C_12  and  O_13
REMARK    8  A    between atoms: O_13  and  C_14
REMARK    9  A    between atoms: C_21  and  O_23
REMARK   10  A    between atoms: O_23  and  C_24
REMARK   11  A    between atoms: C_27  and  N_28
REMARK                            x       y       z     vdW  Elec       q    Type
REMARK                         _______ _______ _______ _____ _____    ______ ____
ROOT
ATOM      1  C   UNL     1      -2.023  12.943  20.079  0.00  0.00    +0.000 C 
ENDROOT
BRANCH   1   2
ATOM      2  C   UNL     1      -0.771  12.361  20.864  0.00  0.00    +0.000 C 
ATOM      3  C   UNL     1       0.607  12.915  20.457  0.00  0.00    +0.000 C 
ATOM      4  C   UNL     1       1.226  12.211  19.265  0.00  0.00    +0.000 C 
ATOM      5  N   UNL     1       1.230  10.757  19.358  0.00  0.00    +0.000 N 
ATOM      6  C   UNL     1       1.915  10.111  18.317  0.00  0.00    +0.000 C 
ATOM      7  O   UNL     1       2.761  10.655  17.618  0.00  0.00    +0.000 OA
ATOM      8  C   UNL     1       0.084  10.084  19.942  0.00  0.00    +0.000 C 
ATOM      9  C   UNL     1      -0.631  10.839  21.048  0.00  0.00    +0.000 C 
BRANCH   6  10
ATOM     10  O   UNL     1       1.445   8.819  18.079  0.00  0.00    +0.000 OA
BRANCH  10  11
ATOM     11  C   UNL     1       2.363   7.798  18.376  0.00  0.00    +0.000 A 
ATOM     12  C   UNL     1       2.107   7.014  19.504  0.00  0.00    +0.000 A 
ATOM     13  C   UNL     1       2.941   5.930  19.790  0.00  0.00    +0.000 A 
ATOM     14  C   UNL     1       4.014   5.623  18.936  0.00  0.00    +0.000 A 
ATOM     15  C   UNL     1       4.250   6.396  17.789  0.00  0.00    +0.000 A 
ATOM     16  C   UNL     1       3.418   7.479  17.515  0.00  0.00    +0.000 A 
BRANCH  14  17
ATOM     17  N   UNL     1       4.891   4.486  19.228  0.00  0.00    +0.000 N 
ATOM     18  O   UNL     1       6.112   4.675  19.168  0.00  0.00    +0.000 OA
ATOM     19  O   UNL     1       4.361   3.404  19.520  0.00  0.00    +0.000 OA
ENDBRANCH  14  17
ENDBRANCH  10  11
ENDBRANCH   6  10
ENDBRANCH   1   2
BRANCH   1  23
ATOM     20  C   UNL     1      -3.564  10.810  16.565  0.00  0.00    +0.000 A 
ATOM     21  C   UNL     1      -2.261  11.297  16.560  0.00  0.00    +0.000 A 
ATOM     22  C   UNL     1      -1.735  11.925  17.702  0.00  0.00    +0.000 A 
ATOM     23  C   UNL     1      -2.508  12.108  18.870  0.00  0.00    +0.000 A 
ATOM     24  C   UNL     1      -3.830  11.640  18.828  0.00  0.00    +0.000 A 
ATOM     25  C   UNL     1      -4.343  10.989  17.704  0.00  0.00    +0.000 A 
BRANCH  20  27
ATOM     26  C   UNL     1      -3.524  10.095  14.295  0.00  0.00    +0.000 C 
ATOM     27  O   UNL     1      -4.198  10.160  15.544  0.00  0.00    +0.000 OA
ENDBRANCH  20  27
ENDBRANCH   1  23
BRANCH   1  28
ATOM     28  C   UNL     1      -3.229  13.321  20.988  0.00  0.00    +0.000 A 
ATOM     29  C   UNL     1      -4.104  14.381  20.694  0.00  0.00    +0.000 A 
ATOM     30  C   UNL     1      -5.109  14.768  21.588  0.00  0.00    +0.000 A 
ATOM     31  C   UNL     1      -5.316  14.066  22.770  0.00  0.00    +0.000 A 
ATOM     32  C   UNL     1      -4.502  12.979  23.065  0.00  0.00    +0.000 A 
ATOM     33  C   UNL     1      -3.487  12.602  22.178  0.00  0.00    +0.000 A 
BRANCH  31  34
ATOM     34  O   UNL     1      -6.315  14.542  23.571  0.00  0.00    +0.000 OA
ATOM     35  C   UNL     1      -6.104  15.858  24.073  0.00  0.00    +0.000 C 
ENDBRANCH  31  34
ENDBRANCH   1  28
BRANCH   1  36
ATOM     36  O   UNL     1      -1.552  14.212  19.571  0.00  0.00    +0.000 OA
ATOM     37  H   UNL     1      -0.610  14.278  19.797  0.00  0.00    +0.000 HD
ENDBRANCH   1  36
TORSDOF 9
ENDMDL
MODEL 3
REMARK VINA RESULT:      -6.9      0.725      1.455
REMARK  Name = 
REMARK  11 active torsions:
REMARK  status: ('A' for Active; 'I' for Inactive)
REMARK    1  A    between atoms: C_1  and  O_2
REMARK    2  A    between atoms: O_2  and  C_3
REMARK    3  A    between atoms: C_6  and  C_7
REMARK    4  A    between atoms: C_7  and  O_8
REMARK    5  A    between atoms: C_7  and  C_9
REMARK    6  A    between atoms: C_7  and  C_17
REMARK    7  A    between atoms: C_12  and  O_13
REMARK    8  A    between atoms: O_13  and  C_14
REMARK    9  A    between atoms: C_21  and  O_23
REMARK   10  A    between atoms: O_23  and  C_24
REMARK   11  A    between atoms: C_27  and  N_28
REMARK                            x       y       z     vdW  Elec       q    Type
REMARK                         _______ _______ _______ _____ _____    ______ ____
ROOT
ATOM      1  C   UNL     1      -2.065  12.942  19.923  0.00  0.00    +0.000 C 
ENDROOT
BRANCH   1   2
ATOM      2  C   UNL     1      -0.857  12.319  20.745  0.00  0.00    +0.000 C 
ATOM      3  C   UNL     1       0.549  12.842  20.394  0.00  0.00    +0.000 C 
ATOM      4  C   UNL     1       1.192  12.135  19.216  0.00  0.00    +0.000 C 
ATOM      5  N   UNL     1       1.156  10.681  19.292  0.00  0.00    +0.000 N 
ATOM      6  C   UNL     1       1.861  10.029  18.268  0.00  0.00    +0.000 C 
ATOM      7  O   UNL     1       2.745  10.559  17.607  0.00  0.00    +0.000 OA
ATOM      8  C   UNL     1      -0.027  10.031  19.827  0.00  0.00    +0.000 C 
ATOM      9  C   UNL     1      -0.763  10.792  20.916  0.00  0.00    +0.000 C 
BRANCH   6  10
ATOM     10  O   UNL     1       1.367   8.753  17.999  0.00  0.00    +0.000 OA
BRANCH  10  11
ATOM     11  C   UNL     1       2.254   7.705  18.302  0.00  0.00    +0.000 A 
ATOM     12  C   UNL     1       3.284   7.456  17.394  0.00  0.00    +0.000 A 
ATOM     13  C   UNL     1       4.245   6.485  17.695  0.00  0.00    +0.000 A 
ATOM     14  C   UNL     1       4.179   5.785  18.911  0.00  0.00    +0.000 A 
ATOM     15  C   UNL     1       3.158   6.060  19.833  0.00  0.00    +0.000 A 
ATOM     16  C   UNL     1       2.202   7.024  19.522  0.00  0.00    +0.000 A 
BRANCH  14  17
ATOM     17  N   UNL     1       5.184   4.769  19.235  0.00  0.00    +0.000 N 
ATOM     18  O   UNL     1       4.860   3.581  19.102  0.00  0.00    +0.000 OA
ATOM     19  O   UNL     1       6.298   5.154  19.618  0.00  0.00    +0.000 OA
ENDBRANCH  14  17
ENDBRANCH  10  11
ENDBRANCH   6  10
ENDBRANCH   1   2
BRANCH   1  23
ATOM     20  C   UNL     1      -3.585  10.839  16.382  0.00  0.00    +0.000 A 
ATOM     21  C   UNL     1      -2.241  11.189  16.452  0.00  0.00    +0.000 A 
ATOM     22  C   UNL     1      -1.728  11.805  17.608  0.00  0.00    +0.000 A 
ATOM     23  C   UNL     1      -2.553  12.113  18.712  0.00  0.00    +0.000 A 
ATOM     24  C   UNL     1      -3.912  11.782  18.593  0.00  0.00    +0.000 A 
ATOM     25  C   UNL     1      -4.415  11.143  17.457  0.00  0.00    +0.000 A 
BRANCH  20  27
ATOM     26  C   UNL     1      -3.481  10.061  14.135  0.00  0.00    +0.000 C 
ATOM     27  O   UNL     1      -4.214  10.216  15.342  0.00  0.00    +0.000 OA
ENDBRANCH  20  27
ENDBRANCH   1  23
BRANCH   1  28
ATOM     28  C   UNL     1      -3.277  13.379  20.798  0.00  0.00    +0.000 A 
ATOM     29  C   UNL     1      -3.426  14.685  21.296  0.00  0.00    +0.000 A 
ATOM     30  C   UNL     1      -4.465  15.017  22.172  0.00  0.00    +0.000 A 
ATOM     31  C   UNL     1      -5.426  14.076  22.523  0.00  0.00    +0.000 A 
ATOM     32  C   UNL     1      -5.337  12.790  22.005  0.00  0.00    +0.000 A 
ATOM     33  C   UNL     1      -4.288  12.453  21.141  0.00  0.00    +0.000 A 
BRANCH  31  34
ATOM     34  O   UNL     1      -6.384  14.509  23.396  0.00  0.00    +0.000 OA
ATOM     35  C   UNL     1      -7.127  13.474  24.032  0.00  0.00    +0.000 C 
ENDBRANCH  31  34
ENDBRANCH   1  28
BRANCH   1  36
ATOM     36  O   UNL     1      -1.531  14.185  19.413  0.00  0.00    +0.000 OA
ATOM     37  H   UNL     1      -1.728  14.212  18.462  0.00  0.00    +0.000 HD
ENDBRANCH   1  36
TORSDOF 9
ENDMDL
MODEL 4
REMARK VINA RESULT:      -6.8      2.831      8.986
REMARK  Name = 
REMARK  11 active torsions:
REMARK  status: ('A' for Active; 'I' for Inactive)
REMARK    1  A    between atoms: C_1  and  O_2
REMARK    2  A    between atoms: O_2  and  C_3
REMARK    3  A    between atoms: C_6  and  C_7
REMARK    4  A    between atoms: C_7  and  O_8
REMARK    5  A    between atoms: C_7  and  C_9
REMARK    6  A    between atoms: C_7  and  C_17
REMARK    7  A    between atoms: C_12  and  O_13
REMARK    8  A    between atoms: O_13  and  C_14
REMARK    9  A    between atoms: C_21  and  O_23
REMARK   10  A    between atoms: O_23  and  C_24
REMARK   11  A    between atoms: C_27  and  N_28
REMARK                            x       y       z     vdW  Elec       q    Type
REMARK                         _______ _______ _______ _____ _____    ______ ____
ROOT
ATOM      1  C   UNL     1       0.285  10.886  19.503  0.00  0.00    +0.000 C 
ENDROOT
BRANCH   1   2
ATOM      2  C   UNL     1       1.147  12.185  19.194  0.00  0.00    +0.000 C 
ATOM      3  C   UNL     1       1.855  12.837  20.396  0.00  0.00    +0.000 C 
ATOM      4  C   UNL     1       0.980  13.796  21.180  0.00  0.00    +0.000 C 
ATOM      5  N   UNL     1       0.280  14.778  20.364  0.00  0.00    +0.000 N 
ATOM      6  C   UNL     1      -0.429  15.743  21.097  0.00  0.00    +0.000 C 
ATOM      7  O   UNL     1      -0.194  16.016  22.268  0.00  0.00    +0.000 OA
ATOM      8  C   UNL     1      -0.253  14.374  19.075  0.00  0.00    +0.000 C 
ATOM      9  C   UNL     1       0.541  13.310  18.337  0.00  0.00    +0.000 C 
BRANCH   6  10
ATOM     10  O   UNL     1      -1.509  16.274  20.392  0.00  0.00    +0.000 OA
BRANCH  10  11
ATOM     11  C   UNL     1      -2.765  16.028  20.973  0.00  0.00    +0.000 A 
ATOM     12  C   UNL     1      -3.224  14.709  20.971  0.00  0.00    +0.000 A 
ATOM     13  C   UNL     1      -4.426  14.400  21.616  0.00  0.00    +0.000 A 
ATOM     14  C   UNL     1      -5.149  15.408  22.276  0.00  0.00    +0.000 A 
ATOM     15  C   UNL     1      -4.668  16.726  22.300  0.00  0.00    +0.000 A 
ATOM     16  C   UNL     1      -3.474  17.026  21.648  0.00  0.00    +0.000 A 
BRANCH  14  17
ATOM     17  N   UNL     1      -6.407  15.090  22.958  0.00  0.00    +0.000 N 
ATOM     18  O   UNL     1      -7.071  14.142  22.520  0.00  0.00    +0.000 OA
ATOM     19  O   UNL     1      -6.732  15.785  23.931  0.00  0.00    +0.000 OA
ENDBRANCH  14  17
ENDBRANCH  10  11
ENDBRANCH   6  10
ENDBRANCH   1   2
BRANCH   1  23
ATOM     20  C   UNL     1      -3.562  10.933  17.390  0.00  0.00    +0.000 A 
ATOM     21  C   UNL     1      -2.493  10.217  16.861  0.00  0.00    +0.000 A 
ATOM     22  C   UNL     1      -1.276  10.142  17.560  0.00  0.00    +0.000 A 
ATOM     23  C   UNL     1      -1.086  10.804  18.793  0.00  0.00    +0.000 A 
ATOM     24  C   UNL     1      -2.172  11.549  19.280  0.00  0.00    +0.000 A 
ATOM     25  C   UNL     1      -3.391  11.599  18.601  0.00  0.00    +0.000 A 
BRANCH  20  27
ATOM     26  C   UNL     1      -5.531  12.250  17.164  0.00  0.00    +0.000 C 
ATOM     27  O   UNL     1      -4.805  11.073  16.841  0.00  0.00    +0.000 OA
ENDBRANCH  20  27
ENDBRANCH   1  23
BRANCH   1  28
ATOM     28  C   UNL     1       1.061   9.547  19.331  0.00  0.00    +0.000 A 
ATOM     29  C   UNL     1       1.154   8.583  20.350  0.00  0.00    +0.000 A 
ATOM     30  C   UNL     1       1.953   7.443  20.205  0.00  0.00    +0.000 A 
ATOM     31  C   UNL     1       2.626   7.196  19.014  0.00  0.00    +0.000 A 
ATOM     32  C   UNL     1       2.511   8.103  17.968  0.00  0.00    +0.000 A 
ATOM     33  C   UNL     1       1.726   9.251  18.119  0.00  0.00    +0.000 A 
BRANCH  31  34
ATOM     34  O   UNL     1       3.386   6.060  18.992  0.00  0.00    +0.000 OA
ATOM     35  C   UNL     1       3.543   5.470  17.706  0.00  0.00    +0.000 C 
ENDBRANCH  31  34
ENDBRANCH   1  28
BRANCH   1  36
ATOM     36  O   UNL     1       0.035  10.970  20.925  0.00  0.00    +0.000 OA
ATOM     37  H   UNL     1      -0.305  10.104  21.206  0.00  0.00    +0.000 HD
ENDBRANCH   1  36
TORSDOF 9
ENDMDL
MODEL 5
REMARK VINA RESULT:      -6.8      2.779      4.212
REMARK  Name = 
REMARK  11 active torsions:
REMARK  status: ('A' for Active; 'I' for Inactive)
REMARK    1  A    between atoms: C_1  and  O_2
REMARK    2  A    between atoms: O_2  and  C_3
REMARK    3  A    between atoms: C_6  and  C_7
REMARK    4  A    between atoms: C_7  and  O_8
REMARK    5  A    between atoms: C_7  and  C_9
REMARK    6  A    between atoms: C_7  and  C_17
REMARK    7  A    between atoms: C_12  and  O_13
REMARK    8  A    between atoms: O_13  and  C_14
REMARK    9  A    between atoms: C_21  and  O_23
REMARK   10  A    between atoms: O_23  and  C_24
REMARK   11  A    between atoms: C_27  and  N_28
REMARK                            x       y       z     vdW  Elec       q    Type
REMARK                         _______ _______ _______ _____ _____    ______ ____
ROOT
ATOM      1  C   UNL     1      -0.110  11.871  20.983  0.00  0.00    +0.000 C 
ENDROOT
BRANCH   1   2
ATOM      2  C   UNL     1      -0.711  10.594  20.254  0.00  0.00    +0.000 C 
ATOM      3  C   UNL     1      -0.587   9.256  21.008  0.00  0.00    +0.000 C 
ATOM      4  C   UNL     1       0.741   8.554  20.802  0.00  0.00    +0.000 C 
ATOM      5  N   UNL     1       1.150   8.434  19.409  0.00  0.00    +0.000 N 
ATOM      6  C   UNL     1       2.314   7.675  19.210  0.00  0.00    +0.000 C 
ATOM      7  O   UNL     1       2.742   6.859  20.018  0.00  0.00    +0.000 OA
ATOM      8  C   UNL     1       0.889   9.534  18.499  0.00  0.00    +0.000 C 
ATOM      9  C   UNL     1      -0.371  10.335  18.776  0.00  0.00    +0.000 C 
BRANCH   6  10
ATOM     10  O   UNL     1       3.002   8.032  18.050  0.00  0.00    +0.000 OA
BRANCH  10  11
ATOM     11  C   UNL     1       3.979   7.109  17.641  0.00  0.00    +0.000 A 
ATOM     12  C   UNL     1       3.561   5.797  17.404  0.00  0.00    +0.000 A 
ATOM     13  C   UNL     1       4.477   4.864  16.909  0.00  0.00    +0.000 A 
ATOM     14  C   UNL     1       5.800   5.253  16.635  0.00  0.00    +0.000 A 
ATOM     15  C   UNL     1       6.206   6.579  16.847  0.00  0.00    +0.000 A 
ATOM     16  C   UNL     1       5.288   7.501  17.347  0.00  0.00    +0.000 A 
BRANCH  14  17
ATOM     17  N   UNL     1       6.764   4.282  16.113  0.00  0.00    +0.000 N 
ATOM     18  O   UNL     1       7.910   4.306  16.580  0.00  0.00    +0.000 OA
ATOM     19  O   UNL     1       6.378   3.492  15.239  0.00  0.00    +0.000 OA
ENDBRANCH  14  17
ENDBRANCH  10  11
ENDBRANCH   6  10
ENDBRANCH   1   2
BRANCH   1  23
ATOM     20  C   UNL     1       2.005  14.913  18.628  0.00  0.00    +0.000 A 
ATOM     21  C   UNL     1       2.723  13.885  19.232  0.00  0.00    +0.000 A 
ATOM     22  C   UNL     1       2.051  12.870  19.935  0.00  0.00    +0.000 A 
ATOM     23  C   UNL     1       0.646  12.871  20.077  0.00  0.00    +0.000 A 
ATOM     24  C   UNL     1      -0.045  13.942  19.489  0.00  0.00    +0.000 A 
ATOM     25  C   UNL     1       0.620  14.934  18.766  0.00  0.00    +0.000 A 
BRANCH  20  27
ATOM     26  C   UNL     1       3.841  15.804  17.404  0.00  0.00    +0.000 C 
ATOM     27  O   UNL     1       2.516  15.947  17.897  0.00  0.00    +0.000 OA
ENDBRANCH  20  27
ENDBRANCH   1  23
BRANCH   1  28
ATOM     28  C   UNL     1      -1.126  12.628  21.888  0.00  0.00    +0.000 A 
ATOM     29  C   UNL     1      -2.518  12.491  21.753  0.00  0.00    +0.000 A 
ATOM     30  C   UNL     1      -3.405  13.271  22.505  0.00  0.00    +0.000 A 
ATOM     31  C   UNL     1      -2.931  14.159  23.463  0.00  0.00    +0.000 A 
ATOM     32  C   UNL     1      -1.561  14.279  23.659  0.00  0.00    +0.000 A 
ATOM     33  C   UNL     1      -0.674  13.511  22.896  0.00  0.00    +0.000 A 
BRANCH  31  34
ATOM     34  O   UNL     1      -3.887  14.876  24.126  0.00  0.00    +0.000 OA
ATOM     35  C   UNL     1      -3.389  15.748  25.135  0.00  0.00    +0.000 C 
ENDBRANCH  31  34
ENDBRANCH   1  28
BRANCH   1  36
ATOM     36  O   UNL     1       0.848  11.318  21.915  0.00  0.00    +0.000 OA
ATOM     37  H   UNL     1       1.677  11.811  21.799  0.00  0.00    +0.000 HD
ENDBRANCH   1  36
TORSDOF 9
ENDMDL
MODEL 6
REMARK VINA RESULT:      -6.8      2.886      4.359
REMARK  Name = 
REMARK  11 active torsions:
REMARK  status: ('A' for Active; 'I' for Inactive)
REMARK    1  A    between atoms: C_1  and  O_2
REMARK    2  A    between atoms: O_2  and  C_3
REMARK    3  A    between atoms: C_6  and  C_7
REMARK    4  A    between atoms: C_7  and  O_8
REMARK    5  A    between atoms: C_7  and  C_9
REMARK    6  A    between atoms: C_7  and  C_17
REMARK    7  A    between atoms: C_12  and  O_13
REMARK    8  A    between atoms: O_13  and  C_14
REMARK    9  A    between atoms: C_21  and  O_23
REMARK   10  A    between atoms: O_23  and  C_24
REMARK   11  A    between atoms: C_27  and  N_28
REMARK                            x       y       z     vdW  Elec       q    Type
REMARK                         _______ _______ _______ _____ _____    ______ ____
ROOT
ATOM      1  C   UNL     1       0.032  11.936  21.081  0.00  0.00    +0.000 C 
ENDROOT
BRANCH   1   2
ATOM      2  C   UNL     1      -0.606  10.725  20.274  0.00  0.00    +0.000 C 
ATOM      3  C   UNL     1      -0.549   9.345  20.955  0.00  0.00    +0.000 C 
ATOM      4  C   UNL     1       0.754   8.602  20.732  0.00  0.00    +0.000 C 
ATOM      5  N   UNL     1       1.183   8.540  19.342  0.00  0.00    +0.000 N 
ATOM      6  C   UNL     1       2.319   7.746  19.119  0.00  0.00    +0.000 C 
ATOM      7  O   UNL     1       2.699   6.872  19.889  0.00  0.00    +0.000 OA
ATOM      8  C   UNL     1       0.982   9.697  18.489  0.00  0.00    +0.000 C 
ATOM      9  C   UNL     1      -0.250  10.533  18.789  0.00  0.00    +0.000 C 
BRANCH   6  10
ATOM     10  O   UNL     1       3.041   8.137  17.992  0.00  0.00    +0.000 OA
BRANCH  10  11
ATOM     11  C   UNL     1       3.902   7.153  17.477  0.00  0.00    +0.000 A 
ATOM     12  C   UNL     1       5.213   7.537  17.189  0.00  0.00    +0.000 A 
ATOM     13  C   UNL     1       6.132   6.573  16.760  0.00  0.00    +0.000 A 
ATOM     14  C   UNL     1       5.738   5.230  16.642  0.00  0.00    +0.000 A 
ATOM     15  C   UNL     1       4.427   4.845  16.961  0.00  0.00    +0.000 A 
ATOM     16  C   UNL     1       3.517   5.812  17.380  0.00  0.00    +0.000 A 
BRANCH  14  17
ATOM     17  N   UNL     1       6.696   4.214  16.197  0.00  0.00    +0.000 N 
ATOM     18  O   UNL     1       7.835   4.253  16.679  0.00  0.00    +0.000 OA
ATOM     19  O   UNL     1       6.312   3.376  15.369  0.00  0.00    +0.000 OA
ENDBRANCH  14  17
ENDBRANCH  10  11
ENDBRANCH   6  10
ENDBRANCH   1   2
BRANCH   1  23
ATOM     20  C   UNL     1       2.221  14.708  18.475  0.00  0.00    +0.000 A 
ATOM     21  C   UNL     1       0.833  14.759  18.525  0.00  0.00    +0.000 A 
ATOM     22  C   UNL     1       0.123  13.921  19.403  0.00  0.00    +0.000 A 
ATOM     23  C   UNL     1       0.783  12.989  20.233  0.00  0.00    +0.000 A 
ATOM     24  C   UNL     1       2.182  12.935  20.130  0.00  0.00    +0.000 A 
ATOM     25  C   UNL     1       2.888  13.788  19.280  0.00  0.00    +0.000 A 
BRANCH  20  27
ATOM     26  C   UNL     1       3.773  16.507  18.338  0.00  0.00    +0.000 C 
ATOM     27  O   UNL     1       3.041  15.473  17.695  0.00  0.00    +0.000 OA
ENDBRANCH  20  27
ENDBRANCH   1  23
BRANCH   1  28
ATOM     28  C   UNL     1      -0.951  12.638  22.064  0.00  0.00    +0.000 A 
ATOM     29  C   UNL     1      -0.609  13.792  22.790  0.00  0.00    +0.000 A 
ATOM     30  C   UNL     1      -1.473  14.333  23.749  0.00  0.00    +0.000 A 
ATOM     31  C   UNL     1      -2.731  13.781  23.963  0.00  0.00    +0.000 A 
ATOM     32  C   UNL     1      -3.120  12.672  23.222  0.00  0.00    +0.000 A 
ATOM     33  C   UNL     1      -2.250  12.122  22.274  0.00  0.00    +0.000 A 
BRANCH  31  34
ATOM     34  O   UNL     1      -3.481  14.384  24.933  0.00  0.00    +0.000 OA
ATOM     35  C   UNL     1      -3.048  15.689  25.301  0.00  0.00    +0.000 C 
ENDBRANCH  31  34
ENDBRANCH   1  28
BRANCH   1  36
ATOM     36  O   UNL     1       1.002  11.301  21.946  0.00  0.00    +0.000 OA
ATOM     37  H   UNL     1       1.376  11.995  22.514  0.00  0.00    +0.000 HD
ENDBRANCH   1  36
TORSDOF 9
ENDMDL
MODEL 7
REMARK VINA RESULT:      -6.8      4.657      7.055
REMARK  Name = 
REMARK  11 active torsions:
REMARK  status: ('A' for Active; 'I' for Inactive)
REMARK    1  A    between atoms: C_1  and  O_2
REMARK    2  A    between atoms: O_2  and  C_3
REMARK    3  A    between atoms: C_6  and  C_7
REMARK    4  A    between atoms: C_7  and  O_8
REMARK    5  A    between atoms: C_7  and  C_9
REMARK    6  A    between atoms: C_7  and  C_17
REMARK    7  A    between atoms: C_12  and  O_13
REMARK    8  A    between atoms: O_13  and  C_14
REMARK    9  A    between atoms: C_21  and  O_23
REMARK   10  A    between atoms: O_23  and  C_24
REMARK   11  A    between atoms: C_27  and  N_28
REMARK                            x       y       z     vdW  Elec       q    Type
REMARK                         _______ _______ _______ _____ _____    ______ ____
ROOT
ATOM      1  C   UNL     1      -0.852  12.111  19.071  0.00  0.00    +0.000 C 
ENDROOT
BRANCH   1   2
ATOM      2  C   UNL     1      -0.504  13.315  20.049  0.00  0.00    +0.000 C 
ATOM      3  C   UNL     1      -0.581  14.729  19.445  0.00  0.00    +0.000 C 
ATOM      4  C   UNL     1       0.680  15.159  18.721  0.00  0.00    +0.000 C 
ATOM      5  N   UNL     1       1.908  14.957  19.477  0.00  0.00    +0.000 N 
ATOM      6  C   UNL     1       3.060  15.471  18.861  0.00  0.00    +0.000 C 
ATOM      7  O   UNL     1       3.040  16.340  17.997  0.00  0.00    +0.000 OA
ATOM      8  C   UNL     1       2.046  13.766  20.295  0.00  0.00    +0.000 C 
ATOM      9  C   UNL     1       0.764  13.242  20.918  0.00  0.00    +0.000 C 
BRANCH   6  10
ATOM     10  O   UNL     1       4.223  14.803  19.244  0.00  0.00    +0.000 OA
BRANCH  10  11
ATOM     11  C   UNL     1       5.416  15.467  18.912  0.00  0.00    +0.000 A 
ATOM     12  C   UNL     1       5.747  16.600  19.659  0.00  0.00    +0.000 A 
ATOM     13  C   UNL     1       6.967  17.243  19.428  0.00  0.00    +0.000 A 
ATOM     14  C   UNL     1       7.857  16.736  18.465  0.00  0.00    +0.000 A 
ATOM     15  C   UNL     1       7.533  15.580  17.739  0.00  0.00    +0.000 A 
ATOM     16  C   UNL     1       6.312  14.951  17.971  0.00  0.00    +0.000 A 
BRANCH  14  17
ATOM     17  N   UNL     1       9.139  17.402  18.220  0.00  0.00    +0.000 N 
ATOM     18  O   UNL     1       9.125  18.631  18.066  0.00  0.00    +0.000 OA
ATOM     19  O   UNL     1      10.160  16.702  18.183  0.00  0.00    +0.000 OA
ENDBRANCH  14  17
ENDBRANCH  10  11
ENDBRANCH   6  10
ENDBRANCH   1   2
BRANCH   1  23
ATOM     20  C   UNL     1       1.388   8.458  20.024  0.00  0.00    +0.000 A 
ATOM     21  C   UNL     1       0.398   8.907  20.892  0.00  0.00    +0.000 A 
ATOM     22  C   UNL     1      -0.370  10.038  20.567  0.00  0.00    +0.000 A 
ATOM     23  C   UNL     1      -0.149  10.769  19.379  0.00  0.00    +0.000 A 
ATOM     24  C   UNL     1       0.884  10.313  18.544  0.00  0.00    +0.000 A 
ATOM     25  C   UNL     1       1.626   9.171  18.853  0.00  0.00    +0.000 A 
BRANCH  20  27
ATOM     26  C   UNL     1       2.589   6.663  19.025  0.00  0.00    +0.000 C 
ATOM     27  O   UNL     1       2.191   7.366  20.194  0.00  0.00    +0.000 OA
ENDBRANCH  20  27
ENDBRANCH   1  23
BRANCH   1  28
ATOM     28  C   UNL     1      -2.377  11.882  18.856  0.00  0.00    +0.000 A 
ATOM     29  C   UNL     1      -3.357  12.431  19.700  0.00  0.00    +0.000 A 
ATOM     30  C   UNL     1      -4.712  12.114  19.547  0.00  0.00    +0.000 A 
ATOM     31  C   UNL     1      -5.137  11.297  18.506  0.00  0.00    +0.000 A 
ATOM     32  C   UNL     1      -4.197  10.782  17.621  0.00  0.00    +0.000 A 
ATOM     33  C   UNL     1      -2.841  11.086  17.784  0.00  0.00    +0.000 A 
BRANCH  31  34
ATOM     34  O   UNL     1      -6.479  11.046  18.464  0.00  0.00    +0.000 OA
ATOM     35  C   UNL     1      -7.308  12.193  18.619  0.00  0.00    +0.000 C 
ENDBRANCH  31  34
ENDBRANCH   1  28
BRANCH   1  36
ATOM     36  O   UNL     1      -0.378  12.566  17.783  0.00  0.00    +0.000 OA
ATOM     37  H   UNL     1      -0.234  13.524  17.853  0.00  0.00    +0.000 HD
ENDBRANCH   1  36
TORSDOF 9
ENDMDL
MODEL 8
REMARK VINA RESULT:      -6.7      0.998      1.082
REMARK  Name = 
REMARK  11 active torsions:
REMARK  status: ('A' for Active; 'I' for Inactive)
REMARK    1  A    between atoms: C_1  and  O_2
REMARK    2  A    between atoms: O_2  and  C_3
REMARK    3  A    between atoms: C_6  and  C_7
REMARK    4  A    between atoms: C_7  and  O_8
REMARK    5  A    between atoms: C_7  and  C_9
REMARK    6  A    between atoms: C_7  and  C_17
REMARK    7  A    between atoms: C_12  and  O_13
REMARK    8  A    between atoms: O_13  and  C_14
REMARK    9  A    between atoms: C_21  and  O_23
REMARK   10  A    between atoms: O_23  and  C_24
REMARK   11  A    between atoms: C_27  and  N_28
REMARK                            x       y       z     vdW  Elec       q    Type
REMARK                         _______ _______ _______ _____ _____    ______ ____
ROOT
ATOM      1  C   UNL     1      -1.560  12.223  20.079  0.00  0.00    +0.000 C 
ENDROOT
BRANCH   1   2
ATOM      2  C   UNL     1      -0.241  11.598  20.707  0.00  0.00    +0.000 C 
ATOM      3  C   UNL     1       1.089  12.004  20.046  0.00  0.00    +0.000 C 
ATOM      4  C   UNL     1       1.457  11.165  18.837  0.00  0.00    +0.000 C 
ATOM      5  N   UNL     1       1.373   9.727  19.053  0.00  0.00    +0.000 N 
ATOM      6  C   UNL     1       1.833   8.951  17.977  0.00  0.00    +0.000 C 
ATOM      7  O   UNL     1       2.592   9.371  17.111  0.00  0.00    +0.000 OA
ATOM      8  C   UNL     1       0.292   9.196  19.863  0.00  0.00    +0.000 C 
ATOM      9  C   UNL     1      -0.182  10.088  20.997  0.00  0.00    +0.000 C 
BRANCH   6  10
ATOM     10  O   UNL     1       1.241   7.689  17.927  0.00  0.00    +0.000 OA
BRANCH  10  11
ATOM     11  C   UNL     1       2.081   6.633  18.318  0.00  0.00    +0.000 A 
ATOM     12  C   UNL     1       1.731   5.348  17.898  0.00  0.00    +0.000 A 
ATOM     13  C   UNL     1       2.582   4.276  18.185  0.00  0.00    +0.000 A 
ATOM     14  C   UNL     1       3.787   4.499  18.873  0.00  0.00    +0.000 A 
ATOM     15  C   UNL     1       4.148   5.797  19.267  0.00  0.00    +0.000 A 
ATOM     16  C   UNL     1       3.290   6.857  18.983  0.00  0.00    +0.000 A 
BRANCH  14  17
ATOM     17  N   UNL     1       4.685   3.382  19.174  0.00  0.00    +0.000 N 
ATOM     18  O   UNL     1       5.868   3.649  19.418  0.00  0.00    +0.000 OA
ATOM     19  O   UNL     1       4.209   2.237  19.171  0.00  0.00    +0.000 OA
ENDBRANCH  14  17
ENDBRANCH  10  11
ENDBRANCH   6  10
ENDBRANCH   1   2
BRANCH   1  23
ATOM     20  C   UNL     1      -2.880  10.052  16.499  0.00  0.00    +0.000 A 
ATOM     21  C   UNL     1      -3.220   9.574  17.760  0.00  0.00    +0.000 A 
ATOM     22  C   UNL     1      -2.859  10.295  18.912  0.00  0.00    +0.000 A 
ATOM     23  C   UNL     1      -2.122  11.497  18.835  0.00  0.00    +0.000 A 
ATOM     24  C   UNL     1      -1.761  11.931  17.549  0.00  0.00    +0.000 A 
ATOM     25  C   UNL     1      -2.146  11.231  16.404  0.00  0.00    +0.000 A 
BRANCH  20  27
ATOM     26  C   UNL     1      -3.682  10.329  14.276  0.00  0.00    +0.000 C 
ATOM     27  O   UNL     1      -3.183   9.478  15.298  0.00  0.00    +0.000 OA
ENDBRANCH  20  27
ENDBRANCH   1  23
BRANCH   1  28
ATOM     28  C   UNL     1      -2.698  12.484  21.109  0.00  0.00    +0.000 A 
ATOM     29  C   UNL     1      -3.962  12.974  20.741  0.00  0.00    +0.000 A 
ATOM     30  C   UNL     1      -4.924  13.306  21.702  0.00  0.00    +0.000 A 
ATOM     31  C   UNL     1      -4.680  13.093  23.054  0.00  0.00    +0.000 A 
ATOM     32  C   UNL     1      -3.459  12.558  23.446  0.00  0.00    +0.000 A 
ATOM     33  C   UNL     1      -2.491  12.242  22.486  0.00  0.00    +0.000 A 
BRANCH  31  34
ATOM     34  O   UNL     1      -5.685  13.467  23.900  0.00  0.00    +0.000 OA
ATOM     35  C   UNL     1      -6.993  13.404  23.342  0.00  0.00    +0.000 C 
ENDBRANCH  31  34
ENDBRANCH   1  28
BRANCH   1  36
ATOM     36  O   UNL     1      -1.150  13.546  19.663  0.00  0.00    +0.000 OA
ATOM     37  H   UNL     1      -1.948  14.099  19.642  0.00  0.00    +0.000 HD
ENDBRANCH   1  36
TORSDOF 9
ENDMDL
MODEL 9
REMARK VINA RESULT:      -6.6      2.732      8.755
REMARK  Name = 
REMARK  11 active torsions:
REMARK  status: ('A' for Active; 'I' for Inactive)
REMARK    1  A    between atoms: C_1  and  O_2
REMARK    2  A    between atoms: O_2  and  C_3
REMARK    3  A    between atoms: C_6  and  C_7
REMARK    4  A    between atoms: C_7  and  O_8
REMARK    5  A    between atoms: C_7  and  C_9
REMARK    6  A    between atoms: C_7  and  C_17
REMARK    7  A    between atoms: C_12  and  O_13
REMARK    8  A    between atoms: O_13  and  C_14
REMARK    9  A    between atoms: C_21  and  O_23
REMARK   10  A    between atoms: O_23  and  C_24
REMARK   11  A    between atoms: C_27  and  N_28
REMARK                            x       y       z     vdW  Elec       q    Type
REMARK                         _______ _______ _______ _____ _____    ______ ____
ROOT
ATOM      1  C   UNL     1      -0.284  10.931  19.332  0.00  0.00    +0.000 C 
ENDROOT
BRANCH   1   2
ATOM      2  C   UNL     1       0.452  12.326  19.525  0.00  0.00    +0.000 C 
ATOM      3  C   UNL     1       1.077  12.582  20.909  0.00  0.00    +0.000 C 
ATOM      4  C   UNL     1       0.103  13.133  21.932  0.00  0.00    +0.000 C 
ATOM      5  N   UNL     1      -0.678  14.272  21.469  0.00  0.00    +0.000 N 
ATOM      6  C   UNL     1      -1.487  14.860  22.454  0.00  0.00    +0.000 C 
ATOM      7  O   UNL     1      -1.295  14.732  23.658  0.00  0.00    +0.000 OA
ATOM      8  C   UNL     1      -1.152  14.292  20.097  0.00  0.00    +0.000 C 
ATOM      9  C   UNL     1      -0.248  13.621  19.077  0.00  0.00    +0.000 C 
BRANCH   6  10
ATOM     10  O   UNL     1      -2.604  15.506  21.924  0.00  0.00    +0.000 OA
BRANCH  10  11
ATOM     11  C   UNL     1      -3.833  14.900  22.234  0.00  0.00    +0.000 A 
ATOM     12  C   UNL     1      -4.267  13.869  21.398  0.00  0.00    +0.000 A 
ATOM     13  C   UNL     1      -5.438  13.174  21.716  0.00  0.00    +0.000 A 
ATOM     14  C   UNL     1      -6.157  13.502  22.878  0.00  0.00    +0.000 A 
ATOM     15  C   UNL     1      -5.700  14.520  23.730  0.00  0.00    +0.000 A 
ATOM     16  C   UNL     1      -4.536  15.211  23.401  0.00  0.00    +0.000 A 
BRANCH  14  17
ATOM     17  N   UNL     1      -7.383  12.777  23.220  0.00  0.00    +0.000 N 
ATOM     18  O   UNL     1      -7.817  11.966  22.391  0.00  0.00    +0.000 OA
ATOM     19  O   UNL     1      -7.912  13.013  24.316  0.00  0.00    +0.000 OA
ENDBRANCH  14  17
ENDBRANCH  10  11
ENDBRANCH   6  10
ENDBRANCH   1   2
BRANCH   1  23
ATOM     20  C   UNL     1      -3.452  10.550  16.318  0.00  0.00    +0.000 A 
ATOM     21  C   UNL     1      -3.597  11.460  17.359  0.00  0.00    +0.000 A 
ATOM     22  C   UNL     1      -2.562  11.638  18.294  0.00  0.00    +0.000 A 
ATOM     23  C   UNL     1      -1.367  10.888  18.229  0.00  0.00    +0.000 A 
ATOM     24  C   UNL     1      -1.269   9.950  17.189  0.00  0.00    +0.000 A 
ATOM     25  C   UNL     1      -2.285   9.796  16.243  0.00  0.00    +0.000 A 
BRANCH  20  27
ATOM     26  C   UNL     1      -3.847  10.094  14.015  0.00  0.00    +0.000 C 
ATOM     27  O   UNL     1      -4.356  10.290  15.327  0.00  0.00    +0.000 OA
ENDBRANCH  20  27
ENDBRANCH   1  23
BRANCH   1  28
ATOM     28  C   UNL     1       0.677   9.714  19.190  0.00  0.00    +0.000 A 
ATOM     29  C   UNL     1       0.910   8.800  20.231  0.00  0.00    +0.000 A 
ATOM     30  C   UNL     1       1.864   7.784  20.110  0.00  0.00    +0.000 A 
ATOM     31  C   UNL     1       2.565   7.606  18.922  0.00  0.00    +0.000 A 
ATOM     32  C   UNL     1       2.319   8.461  17.855  0.00  0.00    +0.000 A 
ATOM     33  C   UNL     1       1.376   9.487  17.982  0.00  0.00    +0.000 A 
BRANCH  31  34
ATOM     34  O   UNL     1       3.481   6.592  18.925  0.00  0.00    +0.000 OA
ATOM     35  C   UNL     1       3.114   5.456  19.700  0.00  0.00    +0.000 C 
ENDBRANCH  31  34
ENDBRANCH   1  28
BRANCH   1  36
ATOM     36  O   UNL     1      -0.945  10.712  20.599  0.00  0.00    +0.000 OA
ATOM     37  H   UNL     1      -0.269  10.795  21.292  0.00  0.00    +0.000 HD
ENDBRANCH   1  36
TORSDOF 9
ENDMDL
