MODEL 1
REMARK VINA RESULT:      -8.1      0.000      0.000
REMARK  Name = 
REMARK  6 active torsions:
REMARK  status: ('A' for Active; 'I' for Inactive)
REMARK    1  A    between atoms: C_1  and  O_2
REMARK    2  A    between atoms: O_2  and  C_3
REMARK    3  A    between atoms: C_3  and  C_4
REMARK    4  A    between atoms: C_9  and  C_11
REMARK    5  A    between atoms: C_16  and  C_17
REMARK    6  A    between atoms: C_17  and  C_18
REMARK                            x       y       z     vdW  Elec       q    Type
REMARK                         _______ _______ _______ _____ _____    ______ ____
ROOT
ATOM      1  C   UNL     1       2.509   6.898  19.398  0.00  0.00    +0.000 A 
ATOM      2  C   UNL     1       2.540   7.426  18.091  0.00  0.00    +0.000 A 
ATOM      3  C   UNL     1       1.936   8.655  17.774  0.00  0.00    +0.000 A 
ATOM      4  C   UNL     1       1.345   9.319  18.841  0.00  0.00    +0.000 A 
ATOM      5  O   UNL     1       0.765  10.556  18.849  0.00  0.00    +0.000 OA
ATOM      6  C   UNL     1       0.365  10.724  20.154  0.00  0.00    +0.000 A 
ATOM      7  N   UNL     1       0.602   9.692  20.942  0.00  0.00    +0.000 NA
ATOM      8  C   UNL     1       1.237   8.801  20.120  0.00  0.00    +0.000 A 
ATOM      9  C   UNL     1       1.756   7.535  20.393  0.00  0.00    +0.000 A 
ENDROOT
BRANCH   1  15
ATOM     10  C   UNL     1       2.844   2.171  19.143  0.00  0.00    +0.000 C 
ATOM     11  C   UNL     1       1.313   2.001  19.255  0.00  0.00    +0.000 C 
ATOM     12  C   UNL     1       0.566   3.340  19.248  0.00  0.00    +0.000 C 
ATOM     13  C   UNL     1       1.155   4.281  20.301  0.00  0.00    +0.000 C 
ATOM     14  N   UNL     1       2.583   4.465  20.037  0.00  0.00    +0.000 N 
ATOM     15  C   UNL     1       3.255   5.638  19.671  0.00  0.00    +0.000 C 
ATOM     16  O   UNL     1       4.480   5.700  19.578  0.00  0.00    +0.000 OA
ATOM     17  C   UNL     1       3.351   3.223  20.149  0.00  0.00    +0.000 C 
BRANCH  10  18
ATOM     18  C   UNL     1       3.264   2.516  17.707  0.00  0.00    +0.000 C 
BRANCH  18  20
ATOM     19  C   UNL     1       4.790   3.922  16.588  0.00  0.00    +0.000 C 
ATOM     20  O   UNL     1       4.566   3.095  17.721  0.00  0.00    +0.000 OA
ENDBRANCH  18  20
ENDBRANCH  10  18
ENDBRANCH   1  15
BRANCH   6  21
ATOM     21  C   UNL     1      -0.357  11.979  20.489  0.00  0.00    +0.000 C 
BRANCH  21  22
ATOM     22  C   UNL     1      -1.775  12.042  19.963  0.00  0.00    +0.000 A 
ATOM     23  C   UNL     1      -2.106  11.430  18.747  0.00  0.00    +0.000 A 
ATOM     24  C   UNL     1      -3.425  11.447  18.278  0.00  0.00    +0.000 A 
ATOM     25  C   UNL     1      -4.418  12.078  19.025  0.00  0.00    +0.000 A 
ATOM     26 CL   UNL     1      -6.044  12.074  18.464  0.00  0.00    +0.000 Cl
ATOM     27  C   UNL     1      -4.102  12.710  20.226  0.00  0.00    +0.000 A 
ATOM     28  C   UNL     1      -2.786  12.694  20.694  0.00  0.00    +0.000 A 
ENDBRANCH  21  22
ENDBRANCH   6  21
TORSDOF 5
ENDMDL
MODEL 2
REMARK VINA RESULT:      -8.0      2.351      2.891
REMARK  Name = 
REMARK  6 active torsions:
REMARK  status: ('A' for Active; 'I' for Inactive)
REMARK    1  A    between atoms: C_1  and  O_2
REMARK    2  A    between atoms: O_2  and  C_3
REMARK    3  A    between atoms: C_3  and  C_4
REMARK    4  A    between atoms: C_9  and  C_11
REMARK    5  A    between atoms: C_16  and  C_17
REMARK    6  A    between atoms: C_17  and  C_18
REMARK                            x       y       z     vdW  Elec       q    Type
REMARK                         _______ _______ _______ _____ _____    ______ ____
ROOT
ATOM      1  C   UNL     1       2.513   6.894  19.462  0.00  0.00    +0.000 A 
ATOM      2  C   UNL     1       2.425   7.434  18.163  0.00  0.00    +0.000 A 
ATOM      3  C   UNL     1       1.785   8.660  17.912  0.00  0.00    +0.000 A 
ATOM      4  C   UNL     1       1.285   9.310  19.033  0.00  0.00    +0.000 A 
ATOM      5  O   UNL     1       0.698  10.541  19.104  0.00  0.00    +0.000 OA
ATOM      6  C   UNL     1       0.413  10.694  20.441  0.00  0.00    +0.000 A 
ATOM      7  N   UNL     1       0.727   9.657  21.195  0.00  0.00    +0.000 NA
ATOM      8  C   UNL     1       1.295   8.779  20.312  0.00  0.00    +0.000 A 
ATOM      9  C   UNL     1       1.846   7.516  20.526  0.00  0.00    +0.000 A 
ENDROOT
BRANCH   1  15
ATOM     10  C   UNL     1       2.905   2.184  19.039  0.00  0.00    +0.000 C 
ATOM     11  C   UNL     1       1.384   1.985  19.222  0.00  0.00    +0.000 C 
ATOM     12  C   UNL     1       0.619   3.312  19.297  0.00  0.00    +0.000 C 
ATOM     13  C   UNL     1       1.246   4.228  20.348  0.00  0.00    +0.000 C 
ATOM     14  N   UNL     1       2.657   4.444  20.018  0.00  0.00    +0.000 N 
ATOM     15  C   UNL     1       3.291   5.638  19.657  0.00  0.00    +0.000 C 
ATOM     16  O   UNL     1       4.509   5.724  19.504  0.00  0.00    +0.000 OA
ATOM     17  C   UNL     1       3.447   3.212  20.051  0.00  0.00    +0.000 C 
BRANCH  10  18
ATOM     18  C   UNL     1       3.246   2.581  17.595  0.00  0.00    +0.000 C 
BRANCH  18  20
ATOM     19  C   UNL     1       4.709   4.050  16.472  0.00  0.00    +0.000 C 
ATOM     20  O   UNL     1       4.555   3.144  17.556  0.00  0.00    +0.000 OA
ENDBRANCH  18  20
ENDBRANCH  10  18
ENDBRANCH   1  15
BRANCH   6  21
ATOM     21  C   UNL     1      -0.287  11.940  20.850  0.00  0.00    +0.000 C 
BRANCH  21  22
ATOM     22  C   UNL     1       0.255  13.199  20.209  0.00  0.00    +0.000 A 
ATOM     23  C   UNL     1       1.603  13.548  20.367  0.00  0.00    +0.000 A 
ATOM     24  C   UNL     1       2.121  14.688  19.739  0.00  0.00    +0.000 A 
ATOM     25  C   UNL     1       1.290  15.482  18.952  0.00  0.00    +0.000 A 
ATOM     26 CL   UNL     1       1.931  16.866  18.157  0.00  0.00    +0.000 Cl
ATOM     27  C   UNL     1      -0.058  15.160  18.802  0.00  0.00    +0.000 A 
ATOM     28  C   UNL     1      -0.575  14.025  19.429  0.00  0.00    +0.000 A 
ENDBRANCH  21  22
ENDBRANCH   6  21
TORSDOF 5
ENDMDL
MODEL 3
REMARK VINA RESULT:      -8.0      1.110      1.557
REMARK  Name = 
REMARK  6 active torsions:
REMARK  status: ('A' for Active; 'I' for Inactive)
REMARK    1  A    between atoms: C_1  and  O_2
REMARK    2  A    between atoms: O_2  and  C_3
REMARK    3  A    between atoms: C_3  and  C_4
REMARK    4  A    between atoms: C_9  and  C_11
REMARK    5  A    between atoms: C_16  and  C_17
REMARK    6  A    between atoms: C_17  and  C_18
REMARK                            x       y       z     vdW  Elec       q    Type
REMARK                         _______ _______ _______ _____ _____    ______ ____
ROOT
ATOM      1  C   UNL     1       2.435   6.824  19.924  0.00  0.00    +0.000 A 
ATOM      2  C   UNL     1       1.788   7.120  21.141  0.00  0.00    +0.000 A 
ATOM      3  C   UNL     1       0.964   8.249  21.288  0.00  0.00    +0.000 A 
ATOM      4  C   UNL     1       0.808   9.022  20.144  0.00  0.00    +0.000 A 
ATOM      5  O   UNL     1       0.007  10.115  19.967  0.00  0.00    +0.000 OA
ATOM      6  C   UNL     1       0.224  10.472  18.656  0.00  0.00    +0.000 A 
ATOM      7  N   UNL     1       1.113   9.732  18.020  0.00  0.00    +0.000 NA
ATOM      8  C   UNL     1       1.478   8.800  18.954  0.00  0.00    +0.000 A 
ATOM      9  C   UNL     1       2.369   7.730  18.858  0.00  0.00    +0.000 A 
ENDROOT
BRANCH   1  15
ATOM     10  C   UNL     1       2.761   2.286  18.576  0.00  0.00    +0.000 C 
ATOM     11  C   UNL     1       1.252   2.049  18.812  0.00  0.00    +0.000 C 
ATOM     12  C   UNL     1       0.504   3.334  19.189  0.00  0.00    +0.000 C 
ATOM     13  C   UNL     1       1.203   4.033  20.356  0.00  0.00    +0.000 C 
ATOM     14  N   UNL     1       2.592   4.314  19.986  0.00  0.00    +0.000 N 
ATOM     15  C   UNL     1       3.213   5.557  19.824  0.00  0.00    +0.000 C 
ATOM     16  O   UNL     1       4.420   5.676  19.614  0.00  0.00    +0.000 OA
ATOM     17  C   UNL     1       3.373   3.101  19.732  0.00  0.00    +0.000 C 
BRANCH  10  18
ATOM     18  C   UNL     1       3.015   2.955  17.218  0.00  0.00    +0.000 C 
BRANCH  18  20
ATOM     19  C   UNL     1       4.611   4.468  16.370  0.00  0.00    +0.000 C 
ATOM     20  O   UNL     1       4.401   3.266  17.096  0.00  0.00    +0.000 OA
ENDBRANCH  18  20
ENDBRANCH  10  18
ENDBRANCH   1  15
BRANCH   6  21
ATOM     21  C   UNL     1      -0.482  11.681  18.154  0.00  0.00    +0.000 C 
BRANCH  21  22
ATOM     22  C   UNL     1      -1.990  11.554  18.122  0.00  0.00    +0.000 A 
ATOM     23  C   UNL     1      -2.618  10.849  17.086  0.00  0.00    +0.000 A 
ATOM     24  C   UNL     1      -4.009  10.690  17.077  0.00  0.00    +0.000 A 
ATOM     25  C   UNL     1      -4.776  11.238  18.103  0.00  0.00    +0.000 A 
ATOM     26 CL   UNL     1      -6.482  11.019  18.106  0.00  0.00    +0.000 Cl
ATOM     27  C   UNL     1      -4.169  11.960  19.128  0.00  0.00    +0.000 A 
ATOM     28  C   UNL     1      -2.782  12.119  19.138  0.00  0.00    +0.000 A 
ENDBRANCH  21  22
ENDBRANCH   6  21
TORSDOF 5
ENDMDL
MODEL 4
REMARK VINA RESULT:      -7.8      3.710      9.441
REMARK  Name = 
REMARK  6 active torsions:
REMARK  status: ('A' for Active; 'I' for Inactive)
REMARK    1  A    between atoms: C_1  and  O_2
REMARK    2  A    between atoms: O_2  and  C_3
REMARK    3  A    between atoms: C_3  and  C_4
REMARK    4  A    between atoms: C_9  and  C_11
REMARK    5  A    between atoms: C_16  and  C_17
REMARK    6  A    between atoms: C_17  and  C_18
REMARK                            x       y       z     vdW  Elec       q    Type
REMARK                         _______ _______ _______ _____ _____    ______ ____
ROOT
ATOM      1  C   UNL     1       1.268   9.426  19.231  0.00  0.00    +0.000 A 
ATOM      2  C   UNL     1       0.996   8.776  20.452  0.00  0.00    +0.000 A 
ATOM      3  C   UNL     1       1.519   7.506  20.749  0.00  0.00    +0.000 A 
ATOM      4  C   UNL     1       2.344   6.961  19.774  0.00  0.00    +0.000 A 
ATOM      5  O   UNL     1       3.053   5.794  19.824  0.00  0.00    +0.000 OA
ATOM      6  C   UNL     1       3.703   5.752  18.612  0.00  0.00    +0.000 A 
ATOM      7  N   UNL     1       3.430   6.759  17.803  0.00  0.00    +0.000 NA
ATOM      8  C   UNL     1       2.579   7.538  18.538  0.00  0.00    +0.000 A 
ATOM      9  C   UNL     1       1.971   8.754  18.223  0.00  0.00    +0.000 A 
ENDROOT
BRANCH   1  15
ATOM     10  C   UNL     1      -2.361  12.462  18.873  0.00  0.00    +0.000 C 
ATOM     11  C   UNL     1      -3.271  11.387  18.238  0.00  0.00    +0.000 C 
ATOM     12  C   UNL     1      -2.611  10.003  18.197  0.00  0.00    +0.000 C 
ATOM     13  C   UNL     1      -1.228  10.092  17.551  0.00  0.00    +0.000 C 
ATOM     14  N   UNL     1      -0.410  11.051  18.297  0.00  0.00    +0.000 N 
ATOM     15  C   UNL     1       0.755  10.810  19.034  0.00  0.00    +0.000 C 
ATOM     16  O   UNL     1       1.423  11.714  19.535  0.00  0.00    +0.000 OA
ATOM     17  C   UNL     1      -0.948  12.413  18.260  0.00  0.00    +0.000 C 
BRANCH  10  18
ATOM     18  C   UNL     1      -2.318  12.324  20.401  0.00  0.00    +0.000 C 
BRANCH  18  20
ATOM     19  C   UNL     1      -3.614  13.521  21.965  0.00  0.00    +0.000 C 
ATOM     20  O   UNL     1      -3.621  12.544  20.934  0.00  0.00    +0.000 OA
ENDBRANCH  18  20
ENDBRANCH  10  18
ENDBRANCH   1  15
BRANCH   6  21
ATOM     21  C   UNL     1       4.540   4.557  18.330  0.00  0.00    +0.000 C 
BRANCH  21  22
ATOM     22  C   UNL     1       5.349   4.649  17.054  0.00  0.00    +0.000 A 
ATOM     23  C   UNL     1       4.811   4.196  15.842  0.00  0.00    +0.000 A 
ATOM     24  C   UNL     1       5.537   4.321  14.651  0.00  0.00    +0.000 A 
ATOM     25  C   UNL     1       6.805   4.899  14.670  0.00  0.00    +0.000 A 
ATOM     26 CL   UNL     1       7.685   5.078  13.203  0.00  0.00    +0.000 Cl
ATOM     27  C   UNL     1       7.363   5.335  15.870  0.00  0.00    +0.000 A 
ATOM     28  C   UNL     1       6.639   5.210  17.058  0.00  0.00    +0.000 A 
ENDBRANCH  21  22
ENDBRANCH   6  21
TORSDOF 5
ENDMDL
MODEL 5
REMARK VINA RESULT:      -7.8      1.564      1.952
REMARK  Name = 
REMARK  6 active torsions:
REMARK  status: ('A' for Active; 'I' for Inactive)
REMARK    1  A    between atoms: C_1  and  O_2
REMARK    2  A    between atoms: O_2  and  C_3
REMARK    3  A    between atoms: C_3  and  C_4
REMARK    4  A    between atoms: C_9  and  C_11
REMARK    5  A    between atoms: C_16  and  C_17
REMARK    6  A    between atoms: C_17  and  C_18
REMARK                            x       y       z     vdW  Elec       q    Type
REMARK                         _______ _______ _______ _____ _____    ______ ____
ROOT
ATOM      1  C   UNL     1       2.462   7.010  19.339  0.00  0.00    +0.000 A 
ATOM      2  C   UNL     1       2.373   7.373  17.980  0.00  0.00    +0.000 A 
ATOM      3  C   UNL     1       1.781   8.582  17.573  0.00  0.00    +0.000 A 
ATOM      4  C   UNL     1       1.329   9.398  18.602  0.00  0.00    +0.000 A 
ATOM      5  O   UNL     1       0.797  10.653  18.513  0.00  0.00    +0.000 OA
ATOM      6  C   UNL     1       0.542  10.996  19.820  0.00  0.00    +0.000 A 
ATOM      7  N   UNL     1       0.826  10.057  20.704  0.00  0.00    +0.000 NA
ATOM      8  C   UNL     1       1.339   9.044  19.940  0.00  0.00    +0.000 A 
ATOM      9  C   UNL     1       1.841   7.798  20.316  0.00  0.00    +0.000 A 
ENDROOT
BRANCH   1  15
ATOM     10  C   UNL     1       2.749   2.273  19.342  0.00  0.00    +0.000 C 
ATOM     11  C   UNL     1       1.214   2.125  19.435  0.00  0.00    +0.000 C 
ATOM     12  C   UNL     1       0.483   3.470  19.344  0.00  0.00    +0.000 C 
ATOM     13  C   UNL     1       1.064   4.459  20.356  0.00  0.00    +0.000 C 
ATOM     14  N   UNL     1       2.498   4.614  20.107  0.00  0.00    +0.000 N 
ATOM     15  C   UNL     1       3.189   5.759  19.692  0.00  0.00    +0.000 C 
ATOM     16  O   UNL     1       4.417   5.804  19.617  0.00  0.00    +0.000 OA
ATOM     17  C   UNL     1       3.250   3.372  20.299  0.00  0.00    +0.000 C 
BRANCH  10  18
ATOM     18  C   UNL     1       3.197   2.537  17.898  0.00  0.00    +0.000 C 
BRANCH  18  20
ATOM     19  C   UNL     1       4.774   3.894  16.790  0.00  0.00    +0.000 C 
ATOM     20  O   UNL     1       4.530   3.043  17.900  0.00  0.00    +0.000 OA
ENDBRANCH  18  20
ENDBRANCH  10  18
ENDBRANCH   1  15
BRANCH   6  21
ATOM     21  C   UNL     1      -0.097  12.316  20.065  0.00  0.00    +0.000 C 
BRANCH  21  22
ATOM     22  C   UNL     1      -1.133  12.311  21.168  0.00  0.00    +0.000 A 
ATOM     23  C   UNL     1      -2.461  12.663  20.892  0.00  0.00    +0.000 A 
ATOM     24  C   UNL     1      -3.433  12.617  21.899  0.00  0.00    +0.000 A 
ATOM     25  C   UNL     1      -3.078  12.219  23.186  0.00  0.00    +0.000 A 
ATOM     26 CL   UNL     1      -4.277  12.135  24.417  0.00  0.00    +0.000 Cl
ATOM     27  C   UNL     1      -1.758  11.886  23.483  0.00  0.00    +0.000 A 
ATOM     28  C   UNL     1      -0.788  11.933  22.479  0.00  0.00    +0.000 A 
ENDBRANCH  21  22
ENDBRANCH   6  21
TORSDOF 5
ENDMDL
MODEL 6
REMARK VINA RESULT:      -7.7      0.517      1.037
REMARK  Name = 
REMARK  6 active torsions:
REMARK  status: ('A' for Active; 'I' for Inactive)
REMARK    1  A    between atoms: C_1  and  O_2
REMARK    2  A    between atoms: O_2  and  C_3
REMARK    3  A    between atoms: C_3  and  C_4
REMARK    4  A    between atoms: C_9  and  C_11
REMARK    5  A    between atoms: C_16  and  C_17
REMARK    6  A    between atoms: C_17  and  C_18
REMARK                            x       y       z     vdW  Elec       q    Type
REMARK                         _______ _______ _______ _____ _____    ______ ____
ROOT
ATOM      1  C   UNL     1       2.496   6.873  19.375  0.00  0.00    +0.000 A 
ATOM      2  C   UNL     1       2.478   7.359  18.051  0.00  0.00    +0.000 A 
ATOM      3  C   UNL     1       1.932   8.614  17.729  0.00  0.00    +0.000 A 
ATOM      4  C   UNL     1       1.451   9.346  18.806  0.00  0.00    +0.000 A 
ATOM      5  O   UNL     1       0.950  10.617  18.807  0.00  0.00    +0.000 OA
ATOM      6  C   UNL     1       0.643  10.849  20.128  0.00  0.00    +0.000 A 
ATOM      7  N   UNL     1       0.865   9.828  20.935  0.00  0.00    +0.000 NA
ATOM      8  C   UNL     1       1.391   8.875  20.106  0.00  0.00    +0.000 A 
ATOM      9  C   UNL     1       1.847   7.587  20.391  0.00  0.00    +0.000 A 
ENDROOT
BRANCH   1  15
ATOM     10  C   UNL     1       2.574   2.134  19.152  0.00  0.00    +0.000 C 
ATOM     11  C   UNL     1       1.038   2.046  19.290  0.00  0.00    +0.000 C 
ATOM     12  C   UNL     1       0.365   3.424  19.286  0.00  0.00    +0.000 C 
ATOM     13  C   UNL     1       1.020   4.339  20.321  0.00  0.00    +0.000 C 
ATOM     14  N   UNL     1       2.452   4.445  20.031  0.00  0.00    +0.000 N 
ATOM     15  C   UNL     1       3.178   5.577  19.645  0.00  0.00    +0.000 C 
ATOM     16  O   UNL     1       4.404   5.574  19.531  0.00  0.00    +0.000 OA
ATOM     17  C   UNL     1       3.154   3.164  20.140  0.00  0.00    +0.000 C 
BRANCH  10  18
ATOM     18  C   UNL     1       2.988   2.446  17.706  0.00  0.00    +0.000 C 
BRANCH  18  20
ATOM     19  C   UNL     1       4.696   3.759  16.749  0.00  0.00    +0.000 C 
ATOM     20  O   UNL     1       4.387   2.714  17.661  0.00  0.00    +0.000 OA
ENDBRANCH  18  20
ENDBRANCH  10  18
ENDBRANCH   1  15
BRANCH   6  21
ATOM     21  C   UNL     1       0.022  12.157  20.462  0.00  0.00    +0.000 C 
BRANCH  21  22
ATOM     22  C   UNL     1      -1.487  12.179  20.349  0.00  0.00    +0.000 A 
ATOM     23  C   UNL     1      -2.277  12.430  21.479  0.00  0.00    +0.000 A 
ATOM     24  C   UNL     1      -3.672  12.496  21.370  0.00  0.00    +0.000 A 
ATOM     25  C   UNL     1      -4.280  12.308  20.131  0.00  0.00    +0.000 A 
ATOM     26 CL   UNL     1      -5.991  12.416  19.992  0.00  0.00    +0.000 Cl
ATOM     27  C   UNL     1      -3.510  12.036  19.002  0.00  0.00    +0.000 A 
ATOM     28  C   UNL     1      -2.120  11.970  19.109  0.00  0.00    +0.000 A 
ENDBRANCH  21  22
ENDBRANCH   6  21
TORSDOF 5
ENDMDL
MODEL 7
REMARK VINA RESULT:      -7.7      3.697      9.296
REMARK  Name = 
REMARK  6 active torsions:
REMARK  status: ('A' for Active; 'I' for Inactive)
REMARK    1  A    between atoms: C_1  and  O_2
REMARK    2  A    between atoms: O_2  and  C_3
REMARK    3  A    between atoms: C_3  and  C_4
REMARK    4  A    between atoms: C_9  and  C_11
REMARK    5  A    between atoms: C_16  and  C_17
REMARK    6  A    between atoms: C_17  and  C_18
REMARK                            x       y       z     vdW  Elec       q    Type
REMARK                         _______ _______ _______ _____ _____    ______ ____
ROOT
ATOM      1  C   UNL     1       1.173   9.473  19.498  0.00  0.00    +0.000 A 
ATOM      2  C   UNL     1       0.927   8.795  20.709  0.00  0.00    +0.000 A 
ATOM      3  C   UNL     1       1.450   7.515  20.961  0.00  0.00    +0.000 A 
ATOM      4  C   UNL     1       2.249   6.991  19.953  0.00  0.00    +0.000 A 
ATOM      5  O   UNL     1       2.954   5.820  19.957  0.00  0.00    +0.000 OA
ATOM      6  C   UNL     1       3.575   5.806  18.730  0.00  0.00    +0.000 A 
ATOM      7  N   UNL     1       3.287   6.834  17.952  0.00  0.00    +0.000 NA
ATOM      8  C   UNL     1       2.457   7.598  18.727  0.00  0.00    +0.000 A 
ATOM      9  C   UNL     1       1.849   8.824  18.457  0.00  0.00    +0.000 A 
ENDROOT
BRANCH   1  15
ATOM     10  C   UNL     1      -2.447  12.502  19.009  0.00  0.00    +0.000 C 
ATOM     11  C   UNL     1      -3.280  11.467  18.221  0.00  0.00    +0.000 C 
ATOM     12  C   UNL     1      -2.602  10.093  18.149  0.00  0.00    +0.000 C 
ATOM     13  C   UNL     1      -1.166  10.236  17.642  0.00  0.00    +0.000 C 
ATOM     14  N   UNL     1      -0.433  11.147  18.523  0.00  0.00    +0.000 N 
ATOM     15  C   UNL     1       0.662  10.865  19.348  0.00  0.00    +0.000 C 
ATOM     16  O   UNL     1       1.269  11.736  19.969  0.00  0.00    +0.000 OA
ATOM     17  C   UNL     1      -0.983  12.505  18.528  0.00  0.00    +0.000 C 
BRANCH  10  18
ATOM     18  C   UNL     1      -2.544  12.261  20.522  0.00  0.00    +0.000 C 
BRANCH  18  20
ATOM     19  C   UNL     1      -1.200  12.448  22.450  0.00  0.00    +0.000 C 
ATOM     20  O   UNL     1      -1.527  13.008  21.186  0.00  0.00    +0.000 OA
ENDBRANCH  18  20
ENDBRANCH  10  18
ENDBRANCH   1  15
BRANCH   6  21
ATOM     21  C   UNL     1       4.399   4.615  18.397  0.00  0.00    +0.000 C 
BRANCH  21  22
ATOM     22  C   UNL     1       5.193   4.744  17.116  0.00  0.00    +0.000 A 
ATOM     23  C   UNL     1       6.475   5.311  17.133  0.00  0.00    +0.000 A 
ATOM     24  C   UNL     1       7.232   5.391  15.957  0.00  0.00    +0.000 A 
ATOM     25  C   UNL     1       6.708   4.907  14.761  0.00  0.00    +0.000 A 
ATOM     26 CL   UNL     1       7.649   4.980  13.323  0.00  0.00    +0.000 Cl
ATOM     27  C   UNL     1       5.427   4.361  14.723  0.00  0.00    +0.000 A 
ATOM     28  C   UNL     1       4.671   4.280  15.894  0.00  0.00    +0.000 A 
ENDBRANCH  21  22
ENDBRANCH   6  21
TORSDOF 5
ENDMDL
MODEL 8
REMARK VINA RESULT:      -7.6      2.614      3.397
REMARK  Name = 
REMARK  6 active torsions:
REMARK  status: ('A' for Active; 'I' for Inactive)
REMARK    1  A    between atoms: C_1  and  O_2
REMARK    2  A    between atoms: O_2  and  C_3
REMARK    3  A    between atoms: C_3  and  C_4
REMARK    4  A    between atoms: C_9  and  C_11
REMARK    5  A    between atoms: C_16  and  C_17
REMARK    6  A    between atoms: C_17  and  C_18
REMARK                            x       y       z     vdW  Elec       q    Type
REMARK                         _______ _______ _______ _____ _____    ______ ____
ROOT
ATOM      1  C   UNL     1       2.507   6.915  19.435  0.00  0.00    +0.000 A 
ATOM      2  C   UNL     1       2.453   7.415  18.118  0.00  0.00    +0.000 A 
ATOM      3  C   UNL     1       1.834   8.639  17.814  0.00  0.00    +0.000 A 
ATOM      4  C   UNL     1       1.318   9.330  18.903  0.00  0.00    +0.000 A 
ATOM      5  O   UNL     1       0.745  10.570  18.922  0.00  0.00    +0.000 OA
ATOM      6  C   UNL     1       0.433  10.768  20.247  0.00  0.00    +0.000 A 
ATOM      7  N   UNL     1       0.718   9.753  21.041  0.00  0.00    +0.000 NA
ATOM      8  C   UNL     1       1.293   8.841  20.197  0.00  0.00    +0.000 A 
ATOM      9  C   UNL     1       1.825   7.579  20.464  0.00  0.00    +0.000 A 
ENDROOT
BRANCH   1  15
ATOM     10  C   UNL     1       2.869   2.194  19.132  0.00  0.00    +0.000 C 
ATOM     11  C   UNL     1       1.340   2.012  19.263  0.00  0.00    +0.000 C 
ATOM     12  C   UNL     1       0.585   3.347  19.279  0.00  0.00    +0.000 C 
ATOM     13  C   UNL     1       1.183   4.282  20.332  0.00  0.00    +0.000 C 
ATOM     14  N   UNL     1       2.606   4.478  20.050  0.00  0.00    +0.000 N 
ATOM     15  C   UNL     1       3.265   5.658  19.687  0.00  0.00    +0.000 C 
ATOM     16  O   UNL     1       4.488   5.729  19.576  0.00  0.00    +0.000 OA
ATOM     17  C   UNL     1       3.383   3.239  20.140  0.00  0.00    +0.000 C 
BRANCH  10  18
ATOM     18  C   UNL     1       3.266   2.554  17.693  0.00  0.00    +0.000 C 
BRANCH  18  20
ATOM     19  C   UNL     1       4.808   3.918  16.544  0.00  0.00    +0.000 C 
ATOM     20  O   UNL     1       4.578   3.112  17.690  0.00  0.00    +0.000 OA
ENDBRANCH  18  20
ENDBRANCH  10  18
ENDBRANCH   1  15
BRANCH   6  21
ATOM     21  C   UNL     1      -0.260  12.035  20.601  0.00  0.00    +0.000 C 
BRANCH  21  22
ATOM     22  C   UNL     1       0.663  13.144  21.057  0.00  0.00    +0.000 A 
ATOM     23  C   UNL     1       2.008  13.151  20.664  0.00  0.00    +0.000 A 
ATOM     24  C   UNL     1       2.855  14.199  21.045  0.00  0.00    +0.000 A 
ATOM     25  C   UNL     1       2.358  15.243  21.823  0.00  0.00    +0.000 A 
ATOM     26 CL   UNL     1       3.391  16.544  22.268  0.00  0.00    +0.000 Cl
ATOM     27  C   UNL     1       1.029  15.240  22.241  0.00  0.00    +0.000 A 
ATOM     28  C   UNL     1       0.184  14.195  21.861  0.00  0.00    +0.000 A 
ENDBRANCH  21  22
ENDBRANCH   6  21
TORSDOF 5
ENDMDL
MODEL 9
REMARK VINA RESULT:      -7.6      3.643      9.406
REMARK  Name = 
REMARK  6 active torsions:
REMARK  status: ('A' for Active; 'I' for Inactive)
REMARK    1  A    between atoms: C_1  and  O_2
REMARK    2  A    between atoms: O_2  and  C_3
REMARK    3  A    between atoms: C_3  and  C_4
REMARK    4  A    between atoms: C_9  and  C_11
REMARK    5  A    between atoms: C_16  and  C_17
REMARK    6  A    between atoms: C_17  and  C_18
REMARK                            x       y       z     vdW  Elec       q    Type
REMARK                         _______ _______ _______ _____ _____    ______ ____
ROOT
ATOM      1  C   UNL     1       1.166   8.828  19.895  0.00  0.00    +0.000 A 
ATOM      2  C   UNL     1       1.464   9.262  18.587  0.00  0.00    +0.000 A 
ATOM      3  C   UNL     1       2.309   8.529  17.736  0.00  0.00    +0.000 A 
ATOM      4  C   UNL     1       2.793   7.338  18.263  0.00  0.00    +0.000 A 
ATOM      5  O   UNL     1       3.556   6.389  17.643  0.00  0.00    +0.000 OA
ATOM      6  C   UNL     1       3.731   5.425  18.608  0.00  0.00    +0.000 A 
ATOM      7  N   UNL     1       3.186   5.708  19.778  0.00  0.00    +0.000 NA
ATOM      8  C   UNL     1       2.577   6.914  19.563  0.00  0.00    +0.000 A 
ATOM      9  C   UNL     1       1.817   7.705  20.424  0.00  0.00    +0.000 A 
ENDROOT
BRANCH   1  15
ATOM     10  C   UNL     1      -1.512  12.699  20.485  0.00  0.00    +0.000 C 
ATOM     11  C   UNL     1      -0.487  13.590  19.749  0.00  0.00    +0.000 C 
ATOM     12  C   UNL     1       0.677  12.785  19.156  0.00  0.00    +0.000 C 
ATOM     13  C   UNL     1       1.301  11.888  20.225  0.00  0.00    +0.000 C 
ATOM     14  N   UNL     1       0.270  11.007  20.777  0.00  0.00    +0.000 N 
ATOM     15  C   UNL     1       0.186   9.612  20.697  0.00  0.00    +0.000 C 
ATOM     16  O   UNL     1      -0.673   8.962  21.292  0.00  0.00    +0.000 OA
ATOM     17  C   UNL     1      -0.803  11.736  21.456  0.00  0.00    +0.000 C 
BRANCH  10  18
ATOM     18  C   UNL     1      -2.407  11.942  19.493  0.00  0.00    +0.000 C 
BRANCH  18  20
ATOM     19  C   UNL     1      -4.602  11.810  18.644  0.00  0.00    +0.000 C 
ATOM     20  O   UNL     1      -3.738  12.446  19.575  0.00  0.00    +0.000 OA
ENDBRANCH  18  20
ENDBRANCH  10  18
ENDBRANCH   1  15
BRANCH   6  21
ATOM     21  C   UNL     1       4.574   4.253  18.256  0.00  0.00    +0.000 C 
BRANCH  21  22
ATOM     22  C   UNL     1       5.375   4.422  16.982  0.00  0.00    +0.000 A 
ATOM     23  C   UNL     1       4.787   4.158  15.738  0.00  0.00    +0.000 A 
ATOM     24  C   UNL     1       5.509   4.356  14.554  0.00  0.00    +0.000 A 
ATOM     25  C   UNL     1       6.822   4.817  14.613  0.00  0.00    +0.000 A 
ATOM     26 CL   UNL     1       7.700   5.086  13.159  0.00  0.00    +0.000 Cl
ATOM     27  C   UNL     1       7.428   5.063  15.843  0.00  0.00    +0.000 A 
ATOM     28  C   UNL     1       6.709   4.865  17.024  0.00  0.00    +0.000 A 
ENDBRANCH  21  22
ENDBRANCH   6  21
TORSDOF 5
ENDMDL
