MODEL 1
REMARK VINA RESULT:      -8.6      0.000      0.000
REMARK  Name = 
REMARK  2 active torsions:
REMARK  status: ('A' for Active; 'I' for Inactive)
REMARK    1  A    between atoms: C_2  and  C_18
REMARK    2  A    between atoms: C_8  and  C_9
REMARK                            x       y       z     vdW  Elec       q    Type
REMARK                         _______ _______ _______ _____ _____    ______ ____
ROOT
ATOM      1  O   UNL     1       7.906  10.513  17.492  0.00  0.00    +0.000 OA
ATOM      2  C   UNL     1       8.750   9.999  18.221  0.00  0.00    +0.000 C 
ATOM      3  N   UNL     1       8.802   8.684  18.628  0.00  0.00    +0.000 N 
ATOM      4  C   UNL     1       7.871   7.764  18.215  0.00  0.00    +0.000 A 
ATOM      5  N   UNL     1       7.711   6.602  18.922  0.00  0.00    +0.000 NA
ATOM      6  C   UNL     1       6.671   6.041  18.330  0.00  0.00    +0.000 A 
ATOM      7  C   UNL     1       5.916   4.863  18.604  0.00  0.00    +0.000 A 
ATOM      8  C   UNL     1       4.872   4.499  17.813  0.00  0.00    +0.000 A 
ATOM      9  C   UNL     1       4.519   5.356  16.664  0.00  0.00    +0.000 A 
ATOM     10  C   UNL     1       5.219   6.470  16.420  0.00  0.00    +0.000 A 
ATOM     11  N   UNL     1       6.277   6.817  17.241  0.00  0.00    +0.000 N 
ATOM     12  N   UNL     1       7.065   7.895  17.167  0.00  0.00    +0.000 NA
ATOM     13  H   UNL     1       9.387   8.383  19.392  0.00  0.00    +0.000 HD
ENDROOT
BRANCH   2  14
ATOM     14  C   UNL     1       9.776  10.911  18.778  0.00  0.00    +0.000 A 
ATOM     15  C   UNL     1       9.869  11.001  20.177  0.00  0.00    +0.000 A 
ATOM     16  C   UNL     1      10.731  11.919  20.772  0.00  0.00    +0.000 A 
ATOM     17  C   UNL     1      11.496  12.761  19.969  0.00  0.00    +0.000 A 
ATOM     18  C   UNL     1      11.400  12.673  18.579  0.00  0.00    +0.000 A 
ATOM     19 CL   UNL     1      12.322  13.749  17.600  0.00  0.00    +0.000 Cl
ATOM     20  C   UNL     1      10.549  11.747  17.971  0.00  0.00    +0.000 A 
ENDBRANCH   2  14
BRANCH   8  21
ATOM     21  C   UNL     1       4.101   3.313  18.066  0.00  0.00    +0.000 A 
ATOM     22  C   UNL     1       2.883   2.899  17.461  0.00  0.00    +0.000 A 
ATOM     23  C   UNL     1       2.545   1.700  18.048  0.00  0.00    +0.000 A 
ATOM     24  O   UNL     1       3.476   1.345  18.970  0.00  0.00    +0.000 OA
ATOM     25  C   UNL     1       4.415   2.325  18.977  0.00  0.00    +0.000 A 
ENDBRANCH   8  21
TORSDOF 2
ENDMDL
MODEL 2
REMARK VINA RESULT:      -8.3      6.807      8.075
REMARK  Name = 
REMARK  2 active torsions:
REMARK  status: ('A' for Active; 'I' for Inactive)
REMARK    1  A    between atoms: C_2  and  C_18
REMARK    2  A    between atoms: C_8  and  C_9
REMARK                            x       y       z     vdW  Elec       q    Type
REMARK                         _______ _______ _______ _____ _____    ______ ____
ROOT
ATOM      1  O   UNL     1       1.185   8.764  22.182  0.00  0.00    +0.000 OA
ATOM      2  C   UNL     1       0.723   9.443  21.268  0.00  0.00    +0.000 C 
ATOM      3  N   UNL     1       0.962   9.287  19.921  0.00  0.00    +0.000 N 
ATOM      4  C   UNL     1       1.770   8.287  19.442  0.00  0.00    +0.000 A 
ATOM      5  N   UNL     1       2.298   8.390  18.182  0.00  0.00    +0.000 NA
ATOM      6  C   UNL     1       3.105   7.346  18.117  0.00  0.00    +0.000 A 
ATOM      7  C   UNL     1       4.028   6.892  17.130  0.00  0.00    +0.000 A 
ATOM      8  C   UNL     1       4.745   5.751  17.313  0.00  0.00    +0.000 A 
ATOM      9  C   UNL     1       4.564   4.991  18.565  0.00  0.00    +0.000 A 
ATOM     10  C   UNL     1       3.710   5.429  19.497  0.00  0.00    +0.000 A 
ATOM     11  N   UNL     1       2.992   6.593  19.285  0.00  0.00    +0.000 N 
ATOM     12  N   UNL     1       2.121   7.191  20.106  0.00  0.00    +0.000 NA
ATOM     13  H   UNL     1       0.729  10.004  19.250  0.00  0.00    +0.000 HD
ENDROOT
BRANCH   2  14
ATOM     14  C   UNL     1      -0.122  10.593  21.668  0.00  0.00    +0.000 A 
ATOM     15  C   UNL     1      -0.834  10.481  22.874  0.00  0.00    +0.000 A 
ATOM     16  C   UNL     1      -1.733  11.473  23.259  0.00  0.00    +0.000 A 
ATOM     17  C   UNL     1      -1.935  12.575  22.431  0.00  0.00    +0.000 A 
ATOM     18  C   UNL     1      -1.228  12.682  21.231  0.00  0.00    +0.000 A 
ATOM     19 CL   UNL     1      -1.518  14.030  20.199  0.00  0.00    +0.000 Cl
ATOM     20  C   UNL     1      -0.313  11.701  20.842  0.00  0.00    +0.000 A 
ENDBRANCH   2  14
BRANCH   8  21
ATOM     21  C   UNL     1       5.677   5.270  16.329  0.00  0.00    +0.000 A 
ATOM     22  C   UNL     1       5.407   4.625  15.091  0.00  0.00    +0.000 A 
ATOM     23  C   UNL     1       6.630   4.357  14.519  0.00  0.00    +0.000 A 
ATOM     24  O   UNL     1       7.635   4.800  15.317  0.00  0.00    +0.000 OA
ATOM     25  C   UNL     1       7.053   5.351  16.412  0.00  0.00    +0.000 A 
ENDBRANCH   8  21
TORSDOF 2
ENDMDL
MODEL 3
REMARK VINA RESULT:      -8.0      1.151      1.503
REMARK  Name = 
REMARK  2 active torsions:
REMARK  status: ('A' for Active; 'I' for Inactive)
REMARK    1  A    between atoms: C_2  and  C_18
REMARK    2  A    between atoms: C_8  and  C_9
REMARK                            x       y       z     vdW  Elec       q    Type
REMARK                         _______ _______ _______ _____ _____    ______ ____
ROOT
ATOM      1  O   UNL     1       8.031  10.672  17.468  0.00  0.00    +0.000 OA
ATOM      2  C   UNL     1       8.840  10.179  18.249  0.00  0.00    +0.000 C 
ATOM      3  N   UNL     1       8.881   8.872  18.682  0.00  0.00    +0.000 N 
ATOM      4  C   UNL     1       7.980   7.937  18.238  0.00  0.00    +0.000 A 
ATOM      5  N   UNL     1       7.793   6.785  18.957  0.00  0.00    +0.000 NA
ATOM      6  C   UNL     1       6.790   6.205  18.322  0.00  0.00    +0.000 A 
ATOM      7  C   UNL     1       6.030   5.025  18.579  0.00  0.00    +0.000 A 
ATOM      8  C   UNL     1       5.031   4.639  17.741  0.00  0.00    +0.000 A 
ATOM      9  C   UNL     1       4.732   5.472  16.561  0.00  0.00    +0.000 A 
ATOM     10  C   UNL     1       5.435   6.587  16.332  0.00  0.00    +0.000 A 
ATOM     11  N   UNL     1       6.446   6.958  17.201  0.00  0.00    +0.000 N 
ATOM     12  N   UNL     1       7.229   8.042  17.147  0.00  0.00    +0.000 NA
ATOM     13  H   UNL     1       9.429   8.590  19.481  0.00  0.00    +0.000 HD
ENDROOT
BRANCH   2  14
ATOM     14  C   UNL     1       9.829  11.109  18.841  0.00  0.00    +0.000 A 
ATOM     15  C   UNL     1      11.178  10.922  18.496  0.00  0.00    +0.000 A 
ATOM     16  C   UNL     1      12.176  11.684  19.099  0.00  0.00    +0.000 A 
ATOM     17  C   UNL     1      11.829  12.630  20.062  0.00  0.00    +0.000 A 
ATOM     18  C   UNL     1      10.487  12.811  20.406  0.00  0.00    +0.000 A 
ATOM     19 CL   UNL     1      10.078  13.956  21.628  0.00  0.00    +0.000 Cl
ATOM     20  C   UNL     1       9.478  12.063  19.797  0.00  0.00    +0.000 A 
ENDBRANCH   2  14
BRANCH   8  21
ATOM     21  C   UNL     1       4.257   3.450  17.976  0.00  0.00    +0.000 A 
ATOM     22  C   UNL     1       4.406   2.482  19.006  0.00  0.00    +0.000 A 
ATOM     23  C   UNL     1       3.429   1.536  18.793  0.00  0.00    +0.000 A 
ATOM     24  O   UNL     1       2.684   1.858  17.705  0.00  0.00    +0.000 OA
ATOM     25  C   UNL     1       3.190   3.018  17.213  0.00  0.00    +0.000 A 
ENDBRANCH   8  21
TORSDOF 2
ENDMDL
MODEL 4
REMARK VINA RESULT:      -8.0      6.891      8.225
REMARK  Name = 
REMARK  2 active torsions:
REMARK  status: ('A' for Active; 'I' for Inactive)
REMARK    1  A    between atoms: C_2  and  C_18
REMARK    2  A    between atoms: C_8  and  C_9
REMARK                            x       y       z     vdW  Elec       q    Type
REMARK                         _______ _______ _______ _____ _____    ______ ____
ROOT
ATOM      1  O   UNL     1       0.754   9.295  21.707  0.00  0.00    +0.000 OA
ATOM      2  C   UNL     1       0.383   9.894  20.701  0.00  0.00    +0.000 C 
ATOM      3  N   UNL     1       0.755   9.635  19.401  0.00  0.00    +0.000 N 
ATOM      4  C   UNL     1       1.610   8.609  19.086  0.00  0.00    +0.000 A 
ATOM      5  N   UNL     1       2.261   8.618  17.880  0.00  0.00    +0.000 NA
ATOM      6  C   UNL     1       3.074   7.581  17.978  0.00  0.00    +0.000 A 
ATOM      7  C   UNL     1       4.092   7.060  17.127  0.00  0.00    +0.000 A 
ATOM      8  C   UNL     1       4.791   5.946  17.471  0.00  0.00    +0.000 A 
ATOM      9  C   UNL     1       4.488   5.286  18.755  0.00  0.00    +0.000 A 
ATOM     10  C   UNL     1       3.544   5.786  19.560  0.00  0.00    +0.000 A 
ATOM     11  N   UNL     1       2.848   6.922  19.185  0.00  0.00    +0.000 N 
ATOM     12  N   UNL     1       1.897   7.573  19.866  0.00  0.00    +0.000 NA
ATOM     13  H   UNL     1       0.588  10.294  18.655  0.00  0.00    +0.000 HD
ENDROOT
BRANCH   2  14
ATOM     14  C   UNL     1      -0.500  11.062  20.922  0.00  0.00    +0.000 A 
ATOM     15  C   UNL     1      -1.234  11.534  19.821  0.00  0.00    +0.000 A 
ATOM     16  C   UNL     1      -1.998  12.694  19.924  0.00  0.00    +0.000 A 
ATOM     17  C   UNL     1      -2.021  13.396  21.127  0.00  0.00    +0.000 A 
ATOM     18  C   UNL     1      -1.288  12.927  22.219  0.00  0.00    +0.000 A 
ATOM     19 CL   UNL     1      -1.293  13.829  23.687  0.00  0.00    +0.000 Cl
ATOM     20  C   UNL     1      -0.530  11.758  22.132  0.00  0.00    +0.000 A 
ENDBRANCH   2  14
BRANCH   8  21
ATOM     21  C   UNL     1       5.818   5.399  16.625  0.00  0.00    +0.000 A 
ATOM     22  C   UNL     1       5.792   5.189  15.219  0.00  0.00    +0.000 A 
ATOM     23  C   UNL     1       7.009   4.639  14.887  0.00  0.00    +0.000 A 
ATOM     24  O   UNL     1       7.786   4.502  15.992  0.00  0.00    +0.000 OA
ATOM     25  C   UNL     1       7.059   4.963  17.042  0.00  0.00    +0.000 A 
ENDBRANCH   8  21
TORSDOF 2
ENDMDL
MODEL 5
REMARK VINA RESULT:      -7.9      7.978     10.198
REMARK  Name = 
REMARK  2 active torsions:
REMARK  status: ('A' for Active; 'I' for Inactive)
REMARK    1  A    between atoms: C_2  and  C_18
REMARK    2  A    between atoms: C_8  and  C_9
REMARK                            x       y       z     vdW  Elec       q    Type
REMARK                         _______ _______ _______ _____ _____    ______ ____
ROOT
ATOM      1  O   UNL     1       1.976   5.682  20.719  0.00  0.00    +0.000 OA
ATOM      2  C   UNL     1       2.404   6.274  19.732  0.00  0.00    +0.000 C 
ATOM      3  N   UNL     1       2.207   7.599  19.413  0.00  0.00    +0.000 N 
ATOM      4  C   UNL     1       1.488   8.438  20.228  0.00  0.00    +0.000 A 
ATOM      5  N   UNL     1       0.981   9.603  19.717  0.00  0.00    +0.000 NA
ATOM      6  C   UNL     1       0.258  10.072  20.719  0.00  0.00    +0.000 A 
ATOM      7  C   UNL     1      -0.606  11.198  20.850  0.00  0.00    +0.000 A 
ATOM      8  C   UNL     1      -1.238  11.464  22.025  0.00  0.00    +0.000 A 
ATOM      9  C   UNL     1      -1.026  10.554  23.167  0.00  0.00    +0.000 A 
ATOM     10  C   UNL     1      -0.228   9.488  23.036  0.00  0.00    +0.000 A 
ATOM     11  N   UNL     1       0.403   9.241  21.829  0.00  0.00    +0.000 N 
ATOM     12  N   UNL     1       1.208   8.221  21.508  0.00  0.00    +0.000 NA
ATOM     13  H   UNL     1       2.398   7.962  18.491  0.00  0.00    +0.000 HD
ENDROOT
BRANCH   2  14
ATOM     14  C   UNL     1       3.149   5.454  18.748  0.00  0.00    +0.000 A 
ATOM     15  C   UNL     1       2.414   4.520  17.999  0.00  0.00    +0.000 A 
ATOM     16  C   UNL     1       3.061   3.638  17.137  0.00  0.00    +0.000 A 
ATOM     17  C   UNL     1       4.450   3.677  17.031  0.00  0.00    +0.000 A 
ATOM     18  C   UNL     1       5.178   4.604  17.780  0.00  0.00    +0.000 A 
ATOM     19 CL   UNL     1       6.898   4.613  17.668  0.00  0.00    +0.000 Cl
ATOM     20  C   UNL     1       4.539   5.503  18.636  0.00  0.00    +0.000 A 
ENDBRANCH   2  14
BRANCH   8  21
ATOM     21  C   UNL     1      -2.108  12.597  22.183  0.00  0.00    +0.000 A 
ATOM     22  C   UNL     1      -2.154  13.795  21.419  0.00  0.00    +0.000 A 
ATOM     23  C   UNL     1      -3.153  14.568  21.968  0.00  0.00    +0.000 A 
ATOM     24  O   UNL     1      -3.730  13.924  23.015  0.00  0.00    +0.000 OA
ATOM     25  C   UNL     1      -3.093  12.731  23.141  0.00  0.00    +0.000 A 
ENDBRANCH   8  21
TORSDOF 2
ENDMDL
MODEL 6
REMARK VINA RESULT:      -7.9      7.900     10.131
REMARK  Name = 
REMARK  2 active torsions:
REMARK  status: ('A' for Active; 'I' for Inactive)
REMARK    1  A    between atoms: C_2  and  C_18
REMARK    2  A    between atoms: C_8  and  C_9
REMARK                            x       y       z     vdW  Elec       q    Type
REMARK                         _______ _______ _______ _____ _____    ______ ____
ROOT
ATOM      1  O   UNL     1       1.966   5.685  20.422  0.00  0.00    +0.000 OA
ATOM      2  C   UNL     1       2.373   6.329  19.459  0.00  0.00    +0.000 C 
ATOM      3  N   UNL     1       2.183   7.673  19.223  0.00  0.00    +0.000 N 
ATOM      4  C   UNL     1       1.498   8.470  20.105  0.00  0.00    +0.000 A 
ATOM      5  N   UNL     1       0.990   9.669  19.677  0.00  0.00    +0.000 NA
ATOM      6  C   UNL     1       0.303  10.086  20.725  0.00  0.00    +0.000 A 
ATOM      7  C   UNL     1      -0.544  11.212  20.947  0.00  0.00    +0.000 A 
ATOM      8  C   UNL     1      -1.138  11.415  22.153  0.00  0.00    +0.000 A 
ATOM      9  C   UNL     1      -0.904  10.438  23.234  0.00  0.00    +0.000 A 
ATOM     10  C   UNL     1      -0.124   9.374  23.018  0.00  0.00    +0.000 A 
ATOM     11  N   UNL     1       0.469   9.191  21.781  0.00  0.00    +0.000 N 
ATOM     12  N   UNL     1       1.252   8.183  21.378  0.00  0.00    +0.000 NA
ATOM     13  H   UNL     1       2.352   8.086  18.318  0.00  0.00    +0.000 HD
ENDROOT
BRANCH   2  14
ATOM     14  C   UNL     1       3.079   5.560  18.408  0.00  0.00    +0.000 A 
ATOM     15  C   UNL     1       2.773   4.193  18.293  0.00  0.00    +0.000 A 
ATOM     16  C   UNL     1       3.477   3.383  17.405  0.00  0.00    +0.000 A 
ATOM     17  C   UNL     1       4.500   3.934  16.637  0.00  0.00    +0.000 A 
ATOM     18  C   UNL     1       4.804   5.292  16.755  0.00  0.00    +0.000 A 
ATOM     19 CL   UNL     1       6.099   5.949  15.828  0.00  0.00    +0.000 Cl
ATOM     20  C   UNL     1       4.096   6.117  17.631  0.00  0.00    +0.000 A 
ENDBRANCH   2  14
BRANCH   8  21
ATOM     21  C   UNL     1      -1.990  12.547  22.402  0.00  0.00    +0.000 A 
ATOM     22  C   UNL     1      -2.986  12.706  23.403  0.00  0.00    +0.000 A 
ATOM     23  C   UNL     1      -3.523  13.960  23.220  0.00  0.00    +0.000 A 
ATOM     24  O   UNL     1      -2.922  14.587  22.177  0.00  0.00    +0.000 OA
ATOM     25  C   UNL     1      -1.994  13.726  21.684  0.00  0.00    +0.000 A 
ENDBRANCH   8  21
TORSDOF 2
ENDMDL
MODEL 7
REMARK VINA RESULT:      -7.9      8.274      9.210
REMARK  Name = 
REMARK  2 active torsions:
REMARK  status: ('A' for Active; 'I' for Inactive)
REMARK    1  A    between atoms: C_2  and  C_18
REMARK    2  A    between atoms: C_8  and  C_9
REMARK                            x       y       z     vdW  Elec       q    Type
REMARK                         _______ _______ _______ _____ _____    ______ ____
ROOT
ATOM      1  O   UNL     1       0.115   9.913  23.139  0.00  0.00    +0.000 OA
ATOM      2  C   UNL     1      -0.332  10.613  22.234  0.00  0.00    +0.000 C 
ATOM      3  N   UNL     1      -0.138  10.439  20.882  0.00  0.00    +0.000 N 
ATOM      4  C   UNL     1       0.600   9.394  20.387  0.00  0.00    +0.000 A 
ATOM      5  N   UNL     1       1.100   9.463  19.113  0.00  0.00    +0.000 NA
ATOM      6  C   UNL     1       1.845   8.375  19.032  0.00  0.00    +0.000 A 
ATOM      7  C   UNL     1       2.715   7.866  18.023  0.00  0.00    +0.000 A 
ATOM      8  C   UNL     1       3.372   6.688  18.193  0.00  0.00    +0.000 A 
ATOM      9  C   UNL     1       3.182   5.944  19.453  0.00  0.00    +0.000 A 
ATOM     10  C   UNL     1       2.378   6.432  20.405  0.00  0.00    +0.000 A 
ATOM     11  N   UNL     1       1.722   7.634  20.206  0.00  0.00    +0.000 N 
ATOM     12  N   UNL     1       0.907   8.282  21.047  0.00  0.00    +0.000 NA
ATOM     13  H   UNL     1      -0.348  11.166  20.214  0.00  0.00    +0.000 HD
ENDROOT
BRANCH   2  14
ATOM     14  C   UNL     1      -1.100  11.809  22.651  0.00  0.00    +0.000 A 
ATOM     15  C   UNL     1      -0.491  13.062  22.468  0.00  0.00    +0.000 A 
ATOM     16  C   UNL     1      -1.103  14.222  22.937  0.00  0.00    +0.000 A 
ATOM     17  C   UNL     1      -2.323  14.132  23.604  0.00  0.00    +0.000 A 
ATOM     18  C   UNL     1      -2.924  12.885  23.788  0.00  0.00    +0.000 A 
ATOM     19 CL   UNL     1      -4.412  12.786  24.651  0.00  0.00    +0.000 Cl
ATOM     20  C   UNL     1      -2.326  11.717  23.309  0.00  0.00    +0.000 A 
ENDBRANCH   2  14
BRANCH   8  21
ATOM     21  C   UNL     1       4.249   6.153  17.187  0.00  0.00    +0.000 A 
ATOM     22  C   UNL     1       4.529   4.792  16.886  0.00  0.00    +0.000 A 
ATOM     23  C   UNL     1       5.433   4.803  15.848  0.00  0.00    +0.000 A 
ATOM     24  O   UNL     1       5.725   6.078  15.486  0.00  0.00    +0.000 OA
ATOM     25  C   UNL     1       5.006   6.892  16.300  0.00  0.00    +0.000 A 
ENDBRANCH   8  21
TORSDOF 2
ENDMDL
MODEL 8
REMARK VINA RESULT:      -7.9      8.276     10.481
REMARK  Name = 
REMARK  2 active torsions:
REMARK  status: ('A' for Active; 'I' for Inactive)
REMARK    1  A    between atoms: C_2  and  C_18
REMARK    2  A    between atoms: C_8  and  C_9
REMARK                            x       y       z     vdW  Elec       q    Type
REMARK                         _______ _______ _______ _____ _____    ______ ____
ROOT
ATOM      1  O   UNL     1       1.909   5.751  20.842  0.00  0.00    +0.000 OA
ATOM      2  C   UNL     1       2.355   6.317  19.848  0.00  0.00    +0.000 C 
ATOM      3  N   UNL     1       2.173   7.636  19.495  0.00  0.00    +0.000 N 
ATOM      4  C   UNL     1       1.449   8.499  20.279  0.00  0.00    +0.000 A 
ATOM      5  N   UNL     1       0.958   9.656  19.733  0.00  0.00    +0.000 NA
ATOM      6  C   UNL     1       0.225  10.153  20.714  0.00  0.00    +0.000 A 
ATOM      7  C   UNL     1      -0.633  11.289  20.807  0.00  0.00    +0.000 A 
ATOM      8  C   UNL     1      -1.279  11.586  21.965  0.00  0.00    +0.000 A 
ATOM      9  C   UNL     1      -1.090  10.702  23.131  0.00  0.00    +0.000 A 
ATOM     10  C   UNL     1      -0.298   9.628  23.036  0.00  0.00    +0.000 A 
ATOM     11  N   UNL     1       0.347   9.348  21.845  0.00  0.00    +0.000 N 
ATOM     12  N   UNL     1       1.149   8.315  21.560  0.00  0.00    +0.000 NA
ATOM     13  H   UNL     1       2.380   7.975  18.567  0.00  0.00    +0.000 HD
ENDROOT
BRANCH   2  14
ATOM     14  C   UNL     1       3.108   5.469  18.894  0.00  0.00    +0.000 A 
ATOM     15  C   UNL     1       3.808   6.121  17.864  0.00  0.00    +0.000 A 
ATOM     16  C   UNL     1       4.444   5.386  16.866  0.00  0.00    +0.000 A 
ATOM     17  C   UNL     1       4.372   3.995  16.886  0.00  0.00    +0.000 A 
ATOM     18  C   UNL     1       3.673   3.350  17.909  0.00  0.00    +0.000 A 
ATOM     19 CL   UNL     1       3.558   1.631  17.897  0.00  0.00    +0.000 Cl
ATOM     20  C   UNL     1       3.043   4.076  18.922  0.00  0.00    +0.000 A 
ENDBRANCH   2  14
BRANCH   8  21
ATOM     21  C   UNL     1      -2.142  12.729  22.084  0.00  0.00    +0.000 A 
ATOM     22  C   UNL     1      -3.399  12.829  22.740  0.00  0.00    +0.000 A 
ATOM     23  C   UNL     1      -3.827  14.126  22.566  0.00  0.00    +0.000 A 
ATOM     24  O   UNL     1      -2.916  14.834  21.851  0.00  0.00    +0.000 OA
ATOM     25  C   UNL     1      -1.898  13.984  21.561  0.00  0.00    +0.000 A 
ENDBRANCH   8  21
TORSDOF 2
ENDMDL
MODEL 9
REMARK VINA RESULT:      -7.8      6.267      8.351
REMARK  Name = 
REMARK  2 active torsions:
REMARK  status: ('A' for Active; 'I' for Inactive)
REMARK    1  A    between atoms: C_2  and  C_18
REMARK    2  A    between atoms: C_8  and  C_9
REMARK                            x       y       z     vdW  Elec       q    Type
REMARK                         _______ _______ _______ _____ _____    ______ ____
ROOT
ATOM      1  O   UNL     1       4.500   3.644  16.558  0.00  0.00    +0.000 OA
ATOM      2  C   UNL     1       4.966   4.625  15.985  0.00  0.00    +0.000 C 
ATOM      3  N   UNL     1       4.798   5.946  16.337  0.00  0.00    +0.000 N 
ATOM      4  C   UNL     1       4.066   6.311  17.439  0.00  0.00    +0.000 A 
ATOM      5  N   UNL     1       3.591   7.592  17.540  0.00  0.00    +0.000 NA
ATOM      6  C   UNL     1       2.844   7.542  18.629  0.00  0.00    +0.000 A 
ATOM      7  C   UNL     1       1.992   8.491  19.268  0.00  0.00    +0.000 A 
ATOM      8  C   UNL     1       1.328   8.178  20.412  0.00  0.00    +0.000 A 
ATOM      9  C   UNL     1       1.493   6.826  20.982  0.00  0.00    +0.000 A 
ATOM     10  C   UNL     1       2.279   5.933  20.371  0.00  0.00    +0.000 A 
ATOM     11  N   UNL     1       2.943   6.278  19.207  0.00  0.00    +0.000 N 
ATOM     12  N   UNL     1       3.743   5.515  18.453  0.00  0.00    +0.000 NA
ATOM     13  H   UNL     1       5.022   6.701  15.706  0.00  0.00    +0.000 HD
ENDROOT
BRANCH   2  14
ATOM     14  C   UNL     1       5.730   4.358  14.744  0.00  0.00    +0.000 A 
ATOM     15  C   UNL     1       6.881   5.129  14.516  0.00  0.00    +0.000 A 
ATOM     16  C   UNL     1       7.586   5.013  13.320  0.00  0.00    +0.000 A 
ATOM     17  C   UNL     1       7.133   4.133  12.339  0.00  0.00    +0.000 A 
ATOM     18  C   UNL     1       5.986   3.370  12.567  0.00  0.00    +0.000 A 
ATOM     19 CL   UNL     1       5.415   2.316  11.329  0.00  0.00    +0.000 Cl
ATOM     20  C   UNL     1       5.280   3.468  13.768  0.00  0.00    +0.000 A 
ENDBRANCH   2  14
BRANCH   8  21
ATOM     21  C   UNL     1       0.469   9.120  21.077  0.00  0.00    +0.000 A 
ATOM     22  C   UNL     1       0.140   9.201  22.457  0.00  0.00    +0.000 A 
ATOM     23  C   UNL     1      -0.721  10.268  22.589  0.00  0.00    +0.000 A 
ATOM     24  O   UNL     1      -0.939  10.853  21.383  0.00  0.00    +0.000 OA
ATOM     25  C   UNL     1      -0.216  10.154  20.471  0.00  0.00    +0.000 A 
ENDBRANCH   8  21
TORSDOF 2
ENDMDL
