MODEL 1
REMARK VINA RESULT:      -7.1      0.000      0.000
REMARK  Name = 
REMARK  6 active torsions:
REMARK  status: ('A' for Active; 'I' for Inactive)
REMARK    1  A    between atoms: C_1  and  O_2
REMARK    2  A    between atoms: O_2  and  C_3
REMARK    3  A    between atoms: C_6  and  C_7
REMARK    4  A    between atoms: C_15  and  C_16
REMARK    5  A    between atoms: C_19  and  O_20
REMARK    6  A    between atoms: O_20  and  C_21
REMARK                            x       y       z     vdW  Elec       q    Type
REMARK                         _______ _______ _______ _____ _____    ______ ____
ROOT
ATOM      1  C   UNL     1      -0.801  10.712  18.258  0.00  0.00    +0.000 C 
ATOM      2  C   UNL     1       0.241  10.489  19.083  0.00  0.00    +0.000 C 
ATOM      3  C   UNL     1       0.337  10.866  20.525  0.00  0.00    +0.000 C 
ATOM      4  S   UNL     1       0.378   9.347  21.453  0.00  0.00    +0.000 S 
ATOM      5  O   UNL     1      -0.714   8.480  21.022  0.00  0.00    +0.000 OA
ATOM      6  O   UNL     1       0.542   9.680  22.851  0.00  0.00    +0.000 OA
ATOM      7  C   UNL     1       1.911   8.682  20.865  0.00  0.00    +0.000 C 
ATOM      8  C   UNL     1       1.852   8.542  19.374  0.00  0.00    +0.000 C 
ATOM      9  C   UNL     1       2.126   7.408  18.701  0.00  0.00    +0.000 C 
ATOM     10  C   UNL     1       1.405   9.712  18.541  0.00  0.00    +0.000 C 
ATOM     11  O   UNL     1       1.938  10.000  17.476  0.00  0.00    +0.000 OA
ENDROOT
BRANCH   1  15
ATOM     12  C   UNL     1      -4.630  12.229  19.500  0.00  0.00    +0.000 A 
ATOM     13  C   UNL     1      -3.465  12.637  20.153  0.00  0.00    +0.000 A 
ATOM     14  C   UNL     1      -2.204  12.167  19.745  0.00  0.00    +0.000 A 
ATOM     15  C   UNL     1      -2.098  11.270  18.681  0.00  0.00    +0.000 A 
ATOM     16  C   UNL     1      -3.268  10.886  18.009  0.00  0.00    +0.000 A 
ATOM     17  C   UNL     1      -4.526  11.351  18.422  0.00  0.00    +0.000 A 
BRANCH  12  19
ATOM     18  C   UNL     1      -5.908  12.733  21.435  0.00  0.00    +0.000 C 
ATOM     19  O   UNL     1      -5.798  12.721  20.015  0.00  0.00    +0.000 OA
ENDBRANCH  12  19
ENDBRANCH   1  15
BRANCH   9  20
ATOM     20  C   UNL     1       2.380   6.118  19.351  0.00  0.00    +0.000 A 
ATOM     21  C   UNL     1       3.545   5.411  19.028  0.00  0.00    +0.000 A 
ATOM     22  C   UNL     1       3.813   4.179  19.632  0.00  0.00    +0.000 A 
ATOM     23  C   UNL     1       2.933   3.649  20.576  0.00  0.00    +0.000 A 
ATOM     24  C   UNL     1       1.752   4.331  20.870  0.00  0.00    +0.000 A 
ATOM     25  C   UNL     1       1.475   5.561  20.257  0.00  0.00    +0.000 A 
BRANCH  23  26
ATOM     26  O   UNL     1       3.299   2.443  21.107  0.00  0.00    +0.000 OA
ATOM     27  C   UNL     1       4.482   1.866  20.562  0.00  0.00    +0.000 C 
ENDBRANCH  23  26
ENDBRANCH   9  20
TORSDOF 4
ENDMDL
MODEL 2
REMARK VINA RESULT:      -7.0      2.913      4.135
REMARK  Name = 
REMARK  6 active torsions:
REMARK  status: ('A' for Active; 'I' for Inactive)
REMARK    1  A    between atoms: C_1  and  O_2
REMARK    2  A    between atoms: O_2  and  C_3
REMARK    3  A    between atoms: C_6  and  C_7
REMARK    4  A    between atoms: C_15  and  C_16
REMARK    5  A    between atoms: C_19  and  O_20
REMARK    6  A    between atoms: O_20  and  C_21
REMARK                            x       y       z     vdW  Elec       q    Type
REMARK                         _______ _______ _______ _____ _____    ______ ____
ROOT
ATOM      1  C   UNL     1      -2.506  13.076  20.256  0.00  0.00    +0.000 C 
ATOM      2  C   UNL     1      -1.252  13.092  19.762  0.00  0.00    +0.000 C 
ATOM      3  C   UNL     1      -0.090  13.864  20.297  0.00  0.00    +0.000 C 
ATOM      4  S   UNL     1       1.081  12.672  20.911  0.00  0.00    +0.000 S 
ATOM      5  O   UNL     1       0.402  11.724  21.787  0.00  0.00    +0.000 OA
ATOM      6  O   UNL     1       2.250  13.389  21.372  0.00  0.00    +0.000 OA
ATOM      7  C   UNL     1       1.501  11.861  19.393  0.00  0.00    +0.000 C 
ATOM      8  C   UNL     1       0.258  11.301  18.770  0.00  0.00    +0.000 C 
ATOM      9  C   UNL     1       0.107  10.022  18.379  0.00  0.00    +0.000 C 
ATOM     10  C   UNL     1      -0.947  12.188  18.605  0.00  0.00    +0.000 C 
ATOM     11  O   UNL     1      -1.650  12.158  17.602  0.00  0.00    +0.000 OA
ENDROOT
BRANCH   1  15
ATOM     12  C   UNL     1      -3.614  14.977  23.952  0.00  0.00    +0.000 A 
ATOM     13  C   UNL     1      -3.699  15.677  22.747  0.00  0.00    +0.000 A 
ATOM     14  C   UNL     1      -3.362  15.063  21.528  0.00  0.00    +0.000 A 
ATOM     15  C   UNL     1      -2.922  13.738  21.506  0.00  0.00    +0.000 A 
ATOM     16  C   UNL     1      -2.866  13.030  22.714  0.00  0.00    +0.000 A 
ATOM     17  C   UNL     1      -3.198  13.647  23.931  0.00  0.00    +0.000 A 
BRANCH  12  19
ATOM     18  C   UNL     1      -4.570  16.948  24.864  0.00  0.00    +0.000 C 
ATOM     19  O   UNL     1      -3.930  15.693  25.075  0.00  0.00    +0.000 OA
ENDBRANCH  12  19
ENDBRANCH   1  15
BRANCH   9  20
ATOM     20  C   UNL     1       1.093   8.968  18.645  0.00  0.00    +0.000 A 
ATOM     21  C   UNL     1       1.149   8.395  19.922  0.00  0.00    +0.000 A 
ATOM     22  C   UNL     1       2.077   7.389  20.203  0.00  0.00    +0.000 A 
ATOM     23  C   UNL     1       2.946   6.933  19.212  0.00  0.00    +0.000 A 
ATOM     24  C   UNL     1       2.921   7.529  17.950  0.00  0.00    +0.000 A 
ATOM     25  C   UNL     1       1.998   8.547  17.669  0.00  0.00    +0.000 A 
BRANCH  23  26
ATOM     26  O   UNL     1       3.807   5.942  19.596  0.00  0.00    +0.000 OA
ATOM     27  C   UNL     1       4.493   5.280  18.537  0.00  0.00    +0.000 C 
ENDBRANCH  23  26
ENDBRANCH   9  20
TORSDOF 4
ENDMDL
MODEL 3
REMARK VINA RESULT:      -7.0      3.328      4.861
REMARK  Name = 
REMARK  6 active torsions:
REMARK  status: ('A' for Active; 'I' for Inactive)
REMARK    1  A    between atoms: C_1  and  O_2
REMARK    2  A    between atoms: O_2  and  C_3
REMARK    3  A    between atoms: C_6  and  C_7
REMARK    4  A    between atoms: C_15  and  C_16
REMARK    5  A    between atoms: C_19  and  O_20
REMARK    6  A    between atoms: O_20  and  C_21
REMARK                            x       y       z     vdW  Elec       q    Type
REMARK                         _______ _______ _______ _____ _____    ______ ____
ROOT
ATOM      1  C   UNL     1       1.463  12.607  20.928  0.00  0.00    +0.000 C 
ATOM      2  C   UNL     1       0.541  11.655  20.682  0.00  0.00    +0.000 C 
ATOM      3  C   UNL     1      -0.519  11.689  19.630  0.00  0.00    +0.000 C 
ATOM      4  S   UNL     1      -0.125  10.404  18.461  0.00  0.00    +0.000 S 
ATOM      5  O   UNL     1       1.272  10.521  18.057  0.00  0.00    +0.000 OA
ATOM      6  O   UNL     1      -1.175  10.366  17.467  0.00  0.00    +0.000 OA
ATOM      7  C   UNL     1      -0.309   8.986  19.506  0.00  0.00    +0.000 C 
ATOM      8  C   UNL     1       0.614   9.112  20.681  0.00  0.00    +0.000 C 
ATOM      9  C   UNL     1       1.500   8.173  21.063  0.00  0.00    +0.000 C 
ATOM     10  C   UNL     1       0.618  10.387  21.480  0.00  0.00    +0.000 C 
ATOM     11  O   UNL     1       0.705  10.394  22.702  0.00  0.00    +0.000 OA
ENDROOT
BRANCH   1  15
ATOM     12  C   UNL     1       2.069  16.190  18.627  0.00  0.00    +0.000 A 
ATOM     13  C   UNL     1       2.712  15.004  18.266  0.00  0.00    +0.000 A 
ATOM     14  C   UNL     1       2.508  13.820  18.995  0.00  0.00    +0.000 A 
ATOM     15  C   UNL     1       1.661  13.814  20.105  0.00  0.00    +0.000 A 
ATOM     16  C   UNL     1       0.994  14.999  20.445  0.00  0.00    +0.000 A 
ATOM     17  C   UNL     1       1.205  16.182  19.720  0.00  0.00    +0.000 A 
BRANCH  12  19
ATOM     18  C   UNL     1       1.286  17.951  17.242  0.00  0.00    +0.000 C 
ATOM     19  O   UNL     1       2.379  17.285  17.866  0.00  0.00    +0.000 OA
ENDBRANCH  12  19
ENDBRANCH   1  15
BRANCH   9  20
ATOM     20  C   UNL     1       1.781   6.958  20.290  0.00  0.00    +0.000 A 
ATOM     21  C   UNL     1       1.397   5.717  20.812  0.00  0.00    +0.000 A 
ATOM     22  C   UNL     1       1.650   4.542  20.097  0.00  0.00    +0.000 A 
ATOM     23  C   UNL     1       2.272   4.595  18.850  0.00  0.00    +0.000 A 
ATOM     24  C   UNL     1       2.693   5.826  18.345  0.00  0.00    +0.000 A 
ATOM     25  C   UNL     1       2.450   7.005  19.065  0.00  0.00    +0.000 A 
BRANCH  23  26
ATOM     26  O   UNL     1       2.464   3.387  18.238  0.00  0.00    +0.000 OA
ATOM     27  C   UNL     1       1.496   2.386  18.540  0.00  0.00    +0.000 C 
ENDBRANCH  23  26
ENDBRANCH   9  20
TORSDOF 4
ENDMDL
MODEL 4
REMARK VINA RESULT:      -6.9      0.701      1.547
REMARK  Name = 
REMARK  6 active torsions:
REMARK  status: ('A' for Active; 'I' for Inactive)
REMARK    1  A    between atoms: C_1  and  O_2
REMARK    2  A    between atoms: O_2  and  C_3
REMARK    3  A    between atoms: C_6  and  C_7
REMARK    4  A    between atoms: C_15  and  C_16
REMARK    5  A    between atoms: C_19  and  O_20
REMARK    6  A    between atoms: O_20  and  C_21
REMARK                            x       y       z     vdW  Elec       q    Type
REMARK                         _______ _______ _______ _____ _____    ______ ____
ROOT
ATOM      1  C   UNL     1      -0.915  10.501  18.038  0.00  0.00    +0.000 C 
ATOM      2  C   UNL     1       0.071  10.334  18.942  0.00  0.00    +0.000 C 
ATOM      3  C   UNL     1       0.007  10.647  20.401  0.00  0.00    +0.000 C 
ATOM      4  S   UNL     1       0.116   9.093  21.265  0.00  0.00    +0.000 S 
ATOM      5  O   UNL     1      -0.847   8.152  20.703  0.00  0.00    +0.000 OA
ATOM      6  O   UNL     1       0.129   9.370  22.684  0.00  0.00    +0.000 OA
ATOM      7  C   UNL     1       1.751   8.603  20.789  0.00  0.00    +0.000 C 
ATOM      8  C   UNL     1       1.832   8.532  19.294  0.00  0.00    +0.000 C 
ATOM      9  C   UNL     1       2.269   7.464  18.601  0.00  0.00    +0.000 C 
ATOM     10  C   UNL     1       1.345   9.696  18.474  0.00  0.00    +0.000 C 
ATOM     11  O   UNL     1       1.936  10.085  17.473  0.00  0.00    +0.000 OA
ENDROOT
BRANCH   1  15
ATOM     12  C   UNL     1      -4.900  11.824  18.968  0.00  0.00    +0.000 A 
ATOM     13  C   UNL     1      -4.699  10.763  18.083  0.00  0.00    +0.000 A 
ATOM     14  C   UNL     1      -3.404  10.305  17.785  0.00  0.00    +0.000 A 
ATOM     15  C   UNL     1      -2.291  10.915  18.366  0.00  0.00    +0.000 A 
ATOM     16  C   UNL     1      -2.499  11.960  19.277  0.00  0.00    +0.000 A 
ATOM     17  C   UNL     1      -3.793  12.420  19.568  0.00  0.00    +0.000 A 
BRANCH  12  19
ATOM     18  C   UNL     1      -7.068  12.041  18.027  0.00  0.00    +0.000 C 
ATOM     19  O   UNL     1      -6.203  12.206  19.146  0.00  0.00    +0.000 OA
ENDBRANCH  12  19
ENDBRANCH   1  15
BRANCH   9  20
ATOM     20  C   UNL     1       2.590   6.172  19.216  0.00  0.00    +0.000 A 
ATOM     21  C   UNL     1       1.660   5.579  20.080  0.00  0.00    +0.000 A 
ATOM     22  C   UNL     1       1.938   4.348  20.679  0.00  0.00    +0.000 A 
ATOM     23  C   UNL     1       3.138   3.687  20.412  0.00  0.00    +0.000 A 
ATOM     24  C   UNL     1       4.084   4.293  19.584  0.00  0.00    +0.000 A 
ATOM     25  C   UNL     1       3.811   5.534  18.990  0.00  0.00    +0.000 A 
BRANCH  23  26
ATOM     26  O   UNL     1       3.301   2.487  21.047  0.00  0.00    +0.000 OA
ATOM     27  C   UNL     1       4.496   1.780  20.724  0.00  0.00    +0.000 C 
ENDBRANCH  23  26
ENDBRANCH   9  20
TORSDOF 4
ENDMDL
MODEL 5
REMARK VINA RESULT:      -6.9      3.005      4.177
REMARK  Name = 
REMARK  6 active torsions:
REMARK  status: ('A' for Active; 'I' for Inactive)
REMARK    1  A    between atoms: C_1  and  O_2
REMARK    2  A    between atoms: O_2  and  C_3
REMARK    3  A    between atoms: C_6  and  C_7
REMARK    4  A    between atoms: C_15  and  C_16
REMARK    5  A    between atoms: C_19  and  O_20
REMARK    6  A    between atoms: O_20  and  C_21
REMARK                            x       y       z     vdW  Elec       q    Type
REMARK                         _______ _______ _______ _____ _____    ______ ____
ROOT
ATOM      1  C   UNL     1      -2.406  13.177  20.337  0.00  0.00    +0.000 C 
ATOM      2  C   UNL     1      -1.172  13.162  19.796  0.00  0.00    +0.000 C 
ATOM      3  C   UNL     1       0.020  13.931  20.265  0.00  0.00    +0.000 C 
ATOM      4  S   UNL     1       1.198  12.738  20.865  0.00  0.00    +0.000 S 
ATOM      5  O   UNL     1       0.540  11.823  21.791  0.00  0.00    +0.000 OA
ATOM      6  O   UNL     1       2.393  13.450  21.261  0.00  0.00    +0.000 OA
ATOM      7  C   UNL     1       1.547  11.881  19.354  0.00  0.00    +0.000 C 
ATOM      8  C   UNL     1       0.274  11.324  18.794  0.00  0.00    +0.000 C 
ATOM      9  C   UNL     1       0.090  10.037  18.444  0.00  0.00    +0.000 C 
ATOM     10  C   UNL     1      -0.924  12.224  18.652  0.00  0.00    +0.000 C 
ATOM     11  O   UNL     1      -1.666  12.178  17.678  0.00  0.00    +0.000 OA
ENDROOT
BRANCH   1  15
ATOM     12  C   UNL     1      -3.563  15.240  23.930  0.00  0.00    +0.000 A 
ATOM     13  C   UNL     1      -3.005  13.962  24.000  0.00  0.00    +0.000 A 
ATOM     14  C   UNL     1      -2.601  13.283  22.837  0.00  0.00    +0.000 A 
ATOM     15  C   UNL     1      -2.765  13.877  21.584  0.00  0.00    +0.000 A 
ATOM     16  C   UNL     1      -3.298  15.172  21.521  0.00  0.00    +0.000 A 
ATOM     17  C   UNL     1      -3.706  15.845  22.683  0.00  0.00    +0.000 A 
BRANCH  12  19
ATOM     18  C   UNL     1      -4.397  17.133  25.092  0.00  0.00    +0.000 C 
ATOM     19  O   UNL     1      -3.954  15.780  25.125  0.00  0.00    +0.000 OA
ENDBRANCH  12  19
ENDBRANCH   1  15
BRANCH   9  20
ATOM     20  C   UNL     1       1.072   8.977  18.699  0.00  0.00    +0.000 A 
ATOM     21  C   UNL     1       1.154   8.421  19.982  0.00  0.00    +0.000 A 
ATOM     22  C   UNL     1       2.079   7.409  20.254  0.00  0.00    +0.000 A 
ATOM     23  C   UNL     1       2.917   6.929  19.248  0.00  0.00    +0.000 A 
ATOM     24  C   UNL     1       2.866   7.508  17.979  0.00  0.00    +0.000 A 
ATOM     25  C   UNL     1       1.947   8.532  17.707  0.00  0.00    +0.000 A 
BRANCH  23  26
ATOM     26  O   UNL     1       3.777   5.935  19.625  0.00  0.00    +0.000 OA
ATOM     27  C   UNL     1       3.201   4.636  19.735  0.00  0.00    +0.000 C 
ENDBRANCH  23  26
ENDBRANCH   9  20
TORSDOF 4
ENDMDL
MODEL 6
REMARK VINA RESULT:      -6.9      3.316      4.832
REMARK  Name = 
REMARK  6 active torsions:
REMARK  status: ('A' for Active; 'I' for Inactive)
REMARK    1  A    between atoms: C_1  and  O_2
REMARK    2  A    between atoms: O_2  and  C_3
REMARK    3  A    between atoms: C_6  and  C_7
REMARK    4  A    between atoms: C_15  and  C_16
REMARK    5  A    between atoms: C_19  and  O_20
REMARK    6  A    between atoms: O_20  and  C_21
REMARK                            x       y       z     vdW  Elec       q    Type
REMARK                         _______ _______ _______ _____ _____    ______ ____
ROOT
ATOM      1  C   UNL     1       1.514  12.591  20.884  0.00  0.00    +0.000 C 
ATOM      2  C   UNL     1       0.592  11.637  20.647  0.00  0.00    +0.000 C 
ATOM      3  C   UNL     1      -0.454  11.651  19.580  0.00  0.00    +0.000 C 
ATOM      4  S   UNL     1      -0.049  10.340  18.445  0.00  0.00    +0.000 S 
ATOM      5  O   UNL     1       1.353  10.444  18.057  0.00  0.00    +0.000 OA
ATOM      6  O   UNL     1      -1.086  10.283  17.438  0.00  0.00    +0.000 OA
ATOM      7  C   UNL     1      -0.252   8.945  19.518  0.00  0.00    +0.000 C 
ATOM      8  C   UNL     1       0.655   9.094  20.702  0.00  0.00    +0.000 C 
ATOM      9  C   UNL     1       1.533   8.161  21.116  0.00  0.00    +0.000 C 
ATOM     10  C   UNL     1       0.654  10.386  21.473  0.00  0.00    +0.000 C 
ATOM     11  O   UNL     1       0.724  10.419  22.696  0.00  0.00    +0.000 OA
ENDROOT
BRANCH   1  15
ATOM     12  C   UNL     1       2.163  16.121  18.514  0.00  0.00    +0.000 A 
ATOM     13  C   UNL     1       2.809  14.926  18.189  0.00  0.00    +0.000 A 
ATOM     14  C   UNL     1       2.590  13.758  18.941  0.00  0.00    +0.000 A 
ATOM     15  C   UNL     1       1.727  13.779  20.038  0.00  0.00    +0.000 A 
ATOM     16  C   UNL     1       1.058  14.973  20.342  0.00  0.00    +0.000 A 
ATOM     17  C   UNL     1       1.282  16.139  19.594  0.00  0.00    +0.000 A 
BRANCH  12  19
ATOM     18  C   UNL     1       1.398  17.968  17.236  0.00  0.00    +0.000 C 
ATOM     19  O   UNL     1       2.487  17.198  17.734  0.00  0.00    +0.000 OA
ENDBRANCH  12  19
ENDBRANCH   1  15
BRANCH   9  20
ATOM     20  C   UNL     1       1.820   6.928  20.374  0.00  0.00    +0.000 A 
ATOM     21  C   UNL     1       2.542   7.007  19.176  0.00  0.00    +0.000 A 
ATOM     22  C   UNL     1       2.831   5.849  18.449  0.00  0.00    +0.000 A 
ATOM     23  C   UNL     1       2.418   4.601  18.915  0.00  0.00    +0.000 A 
ATOM     24  C   UNL     1       1.663   4.522  20.087  0.00  0.00    +0.000 A 
ATOM     25  C   UNL     1       1.363   5.684  20.812  0.00  0.00    +0.000 A 
BRANCH  23  26
ATOM     26  O   UNL     1       2.760   3.537  18.127  0.00  0.00    +0.000 OA
ATOM     27  C   UNL     1       3.630   3.835  17.039  0.00  0.00    +0.000 C 
ENDBRANCH  23  26
ENDBRANCH   9  20
TORSDOF 4
ENDMDL
MODEL 7
REMARK VINA RESULT:      -6.9      3.249      4.504
REMARK  Name = 
REMARK  6 active torsions:
REMARK  status: ('A' for Active; 'I' for Inactive)
REMARK    1  A    between atoms: C_1  and  O_2
REMARK    2  A    between atoms: O_2  and  C_3
REMARK    3  A    between atoms: C_6  and  C_7
REMARK    4  A    between atoms: C_15  and  C_16
REMARK    5  A    between atoms: C_19  and  O_20
REMARK    6  A    between atoms: O_20  and  C_21
REMARK                            x       y       z     vdW  Elec       q    Type
REMARK                         _______ _______ _______ _____ _____    ______ ____
ROOT
ATOM      1  C   UNL     1       0.848  12.831  21.191  0.00  0.00    +0.000 C 
ATOM      2  C   UNL     1       0.033  11.794  20.912  0.00  0.00    +0.000 C 
ATOM      3  C   UNL     1      -1.035  11.753  19.868  0.00  0.00    +0.000 C 
ATOM      4  S   UNL     1      -0.515  10.567  18.646  0.00  0.00    +0.000 S 
ATOM      5  O   UNL     1       0.857  10.852  18.239  0.00  0.00    +0.000 OA
ATOM      6  O   UNL     1      -1.564  10.453  17.657  0.00  0.00    +0.000 OA
ATOM      7  C   UNL     1      -0.532   9.097  19.634  0.00  0.00    +0.000 C 
ATOM      8  C   UNL     1       0.382   9.276  20.807  0.00  0.00    +0.000 C 
ATOM      9  C   UNL     1       1.369   8.426  21.146  0.00  0.00    +0.000 C 
ATOM     10  C   UNL     1       0.255  10.512  21.657  0.00  0.00    +0.000 C 
ATOM     11  O   UNL     1       0.353  10.479  22.878  0.00  0.00    +0.000 OA
ENDROOT
BRANCH   1  15
ATOM     12  C   UNL     1       1.007  16.422  18.829  0.00  0.00    +0.000 A 
ATOM     13  C   UNL     1       0.068  16.294  19.855  0.00  0.00    +0.000 A 
ATOM     14  C   UNL     1       0.017  15.136  20.650  0.00  0.00    +0.000 A 
ATOM     15  C   UNL     1       0.905  14.084  20.417  0.00  0.00    +0.000 A 
ATOM     16  C   UNL     1       1.864  14.228  19.405  0.00  0.00    +0.000 A 
ATOM     17  C   UNL     1       1.909  15.383  18.609  0.00  0.00    +0.000 A 
BRANCH  12  19
ATOM     18  C   UNL     1      -0.368  17.957  17.653  0.00  0.00    +0.000 C 
ATOM     19  O   UNL     1       0.930  17.577  18.099  0.00  0.00    +0.000 OA
ENDBRANCH  12  19
ENDBRANCH   1  15
BRANCH   9  20
ATOM     20  C   UNL     1       1.773   7.280  20.323  0.00  0.00    +0.000 A 
ATOM     21  C   UNL     1       2.382   7.514  19.083  0.00  0.00    +0.000 A 
ATOM     22  C   UNL     1       2.778   6.441  18.279  0.00  0.00    +0.000 A 
ATOM     23  C   UNL     1       2.588   5.128  18.709  0.00  0.00    +0.000 A 
ATOM     24  C   UNL     1       1.946   4.891  19.925  0.00  0.00    +0.000 A 
ATOM     25  C   UNL     1       1.537   5.965  20.729  0.00  0.00    +0.000 A 
BRANCH  23  26
ATOM     26  O   UNL     1       3.019   4.159  17.845  0.00  0.00    +0.000 OA
ATOM     27  C   UNL     1       2.358   2.902  17.955  0.00  0.00    +0.000 C 
ENDBRANCH  23  26
ENDBRANCH   9  20
TORSDOF 4
ENDMDL
MODEL 8
REMARK VINA RESULT:      -6.8      3.332      4.816
REMARK  Name = 
REMARK  6 active torsions:
REMARK  status: ('A' for Active; 'I' for Inactive)
REMARK    1  A    between atoms: C_1  and  O_2
REMARK    2  A    between atoms: O_2  and  C_3
REMARK    3  A    between atoms: C_6  and  C_7
REMARK    4  A    between atoms: C_15  and  C_16
REMARK    5  A    between atoms: C_19  and  O_20
REMARK    6  A    between atoms: O_20  and  C_21
REMARK                            x       y       z     vdW  Elec       q    Type
REMARK                         _______ _______ _______ _____ _____    ______ ____
ROOT
ATOM      1  C   UNL     1       1.425  12.723  21.100  0.00  0.00    +0.000 C 
ATOM      2  C   UNL     1       0.516  11.777  20.791  0.00  0.00    +0.000 C 
ATOM      3  C   UNL     1      -0.516  11.848  19.712  0.00  0.00    +0.000 C 
ATOM      4  S   UNL     1      -0.082  10.614  18.503  0.00  0.00    +0.000 S 
ATOM      5  O   UNL     1       1.325  10.755  18.143  0.00  0.00    +0.000 OA
ATOM      6  O   UNL     1      -1.104  10.611  17.480  0.00  0.00    +0.000 OA
ATOM      7  C   UNL     1      -0.285   9.154  19.485  0.00  0.00    +0.000 C 
ATOM      8  C   UNL     1       0.604   9.237  20.689  0.00  0.00    +0.000 C 
ATOM      9  C   UNL     1       1.485   8.288  21.056  0.00  0.00    +0.000 C 
ATOM     10  C   UNL     1       0.578  10.478  21.538  0.00  0.00    +0.000 C 
ATOM     11  O   UNL     1       0.631  10.436  22.761  0.00  0.00    +0.000 OA
ENDROOT
BRANCH   1  15
ATOM     12  C   UNL     1       2.015  16.283  18.760  0.00  0.00    +0.000 A 
ATOM     13  C   UNL     1       1.191  16.309  19.887  0.00  0.00    +0.000 A 
ATOM     14  C   UNL     1       1.005  15.160  20.675  0.00  0.00    +0.000 A 
ATOM     15  C   UNL     1       1.637  13.963  20.333  0.00  0.00    +0.000 A 
ATOM     16  C   UNL     1       2.486  13.949  19.217  0.00  0.00    +0.000 A 
ATOM     17  C   UNL     1       2.665  15.096  18.428  0.00  0.00    +0.000 A 
BRANCH  12  19
ATOM     18  C   UNL     1       0.854  17.947  17.529  0.00  0.00    +0.000 C 
ATOM     19  O   UNL     1       2.084  17.452  18.051  0.00  0.00    +0.000 OA
ENDBRANCH  12  19
ENDBRANCH   1  15
BRANCH   9  20
ATOM     20  C   UNL     1       1.794   7.106  20.243  0.00  0.00    +0.000 A 
ATOM     21  C   UNL     1       1.478   5.836  20.741  0.00  0.00    +0.000 A 
ATOM     22  C   UNL     1       1.760   4.693  19.987  0.00  0.00    +0.000 A 
ATOM     23  C   UNL     1       2.343   4.805  18.725  0.00  0.00    +0.000 A 
ATOM     24  C   UNL     1       2.696   6.066  18.243  0.00  0.00    +0.000 A 
ATOM     25  C   UNL     1       2.424   7.214  19.002  0.00  0.00    +0.000 A 
BRANCH  23  26
ATOM     26  O   UNL     1       2.568   3.623  18.075  0.00  0.00    +0.000 OA
ATOM     27  C   UNL     1       3.913   3.394  17.667  0.00  0.00    +0.000 C 
ENDBRANCH  23  26
ENDBRANCH   9  20
TORSDOF 4
ENDMDL
MODEL 9
REMARK VINA RESULT:      -6.8      3.301      4.528
REMARK  Name = 
REMARK  6 active torsions:
REMARK  status: ('A' for Active; 'I' for Inactive)
REMARK    1  A    between atoms: C_1  and  O_2
REMARK    2  A    between atoms: O_2  and  C_3
REMARK    3  A    between atoms: C_6  and  C_7
REMARK    4  A    between atoms: C_15  and  C_16
REMARK    5  A    between atoms: C_19  and  O_20
REMARK    6  A    between atoms: O_20  and  C_21
REMARK                            x       y       z     vdW  Elec       q    Type
REMARK                         _______ _______ _______ _____ _____    ______ ____
ROOT
ATOM      1  C   UNL     1       0.252  13.059  21.441  0.00  0.00    +0.000 C 
ATOM      2  C   UNL     1      -0.462  11.956  21.142  0.00  0.00    +0.000 C 
ATOM      3  C   UNL     1      -1.552  11.844  20.127  0.00  0.00    +0.000 C 
ATOM      4  S   UNL     1      -0.953  10.765  18.844  0.00  0.00    +0.000 S 
ATOM      5  O   UNL     1       0.370  11.204  18.412  0.00  0.00    +0.000 OA
ATOM      6  O   UNL     1      -2.015  10.581  17.881  0.00  0.00    +0.000 OA
ATOM      7  C   UNL     1      -0.790   9.264  19.772  0.00  0.00    +0.000 C 
ATOM      8  C   UNL     1       0.138   9.493  20.926  0.00  0.00    +0.000 C 
ATOM      9  C   UNL     1       1.217   8.736  21.203  0.00  0.00    +0.000 C 
ATOM     10  C   UNL     1      -0.087  10.676  21.829  0.00  0.00    +0.000 C 
ATOM     11  O   UNL     1       0.051  10.608  23.044  0.00  0.00    +0.000 OA
ENDROOT
BRANCH   1  15
ATOM     12  C   UNL     1      -0.006  16.853  19.432  0.00  0.00    +0.000 A 
ATOM     13  C   UNL     1       0.860  15.864  18.960  0.00  0.00    +0.000 A 
ATOM     14  C   UNL     1       0.940  14.612  19.593  0.00  0.00    +0.000 A 
ATOM     15  C   UNL     1       0.157  14.340  20.716  0.00  0.00    +0.000 A 
ATOM     16  C   UNL     1      -0.732  15.325  21.168  0.00  0.00    +0.000 A 
ATOM     17  C   UNL     1      -0.806  16.577  20.539  0.00  0.00    +0.000 A 
BRANCH  12  19
ATOM     18  C   UNL     1      -0.517  18.046  17.445  0.00  0.00    +0.000 C 
ATOM     19  O   UNL     1       0.035  18.044  18.758  0.00  0.00    +0.000 OA
ENDBRANCH  12  19
ENDBRANCH   1  15
BRANCH   9  20
ATOM     20  C   UNL     1       1.709   7.670  20.324  0.00  0.00    +0.000 A 
ATOM     21  C   UNL     1       2.253   8.011  19.079  0.00  0.00    +0.000 A 
ATOM     22  C   UNL     1       2.731   7.016  18.222  0.00  0.00    +0.000 A 
ATOM     23  C   UNL     1       2.687   5.674  18.602  0.00  0.00    +0.000 A 
ATOM     24  C   UNL     1       2.109   5.327  19.824  0.00  0.00    +0.000 A 
ATOM     25  C   UNL     1       1.618   6.323  20.681  0.00  0.00    +0.000 A 
BRANCH  23  26
ATOM     26  O   UNL     1       3.187   4.788  17.689  0.00  0.00    +0.000 OA
ATOM     27  C   UNL     1       4.604   4.639  17.692  0.00  0.00    +0.000 C 
ENDBRANCH  23  26
ENDBRANCH   9  20
TORSDOF 4
ENDMDL
