MODEL 1
REMARK VINA RESULT:      -7.1      0.000      0.000
REMARK  Name = 
REMARK  9 active torsions:
REMARK  status: ('A' for Active; 'I' for Inactive)
REMARK    1  A    between atoms: C_1  and  C_2
REMARK    2  A    between atoms: C_2  and  N_3
REMARK    3  A    between atoms: N_3  and  C_15
REMARK    4  A    between atoms: C_4  and  C_6
REMARK    5  A    between atoms: CA_10  and  C_11
REMARK    6  A    between atoms: C_11  and  OXT_13
REMARK    7  A    between atoms: C_15  and  C_16
REMARK    8  A    between atoms: C_15  and  C_17
REMARK    9  A    between atoms: C_17  and  C_18
REMARK                            x       y       z     vdW  Elec       q    Type
REMARK                         _______ _______ _______ _____ _____    ______ ____
ROOT
ATOM      1  N   UNL     1       3.302   4.728  19.267  0.00  0.00    +0.000 N 
ATOM      2  C   UNL     1       4.044   5.549  18.377  0.00  0.00    +0.000 C 
ATOM      3  O   UNL     1       3.656   6.664  18.043  0.00  0.00    +0.000 OA
ENDROOT
BRANCH   2   4
ATOM      4  C   UNL     1       5.342   5.131  17.759  0.00  0.00    +0.000 A 
ATOM      5  C   UNL     1       6.515   4.988  18.492  0.00  0.00    +0.000 A 
ATOM      6  C   UNL     1       7.691   4.647  17.844  0.00  0.00    +0.000 A 
ATOM      7  N   UNL     1       7.796   4.504  16.511  0.00  0.00    +0.000 NA
ATOM      8  CA  UNL     1       6.651   4.717  15.802  0.00  0.00    +0.000 A 
ATOM      9  C   UNL     1       5.419   5.022  16.367  0.00  0.00    +0.000 A 
BRANCH   8  10
ATOM     10  C   UNL     1       6.810   4.619  14.315  0.00  0.00    +0.000 C 
ATOM     11  O   UNL     1       6.171   3.880  13.595  0.00  0.00    +0.000 OA
BRANCH  10  12
ATOM     12  OXT UNL     1       7.772   5.477  13.884  0.00  0.00    +0.000 OA
ATOM     13  HXT UNL     1       8.554   4.960  13.588  0.00  0.00    +0.000 HD
ENDBRANCH  10  12
ENDBRANCH   8  10
ENDBRANCH   2   4
BRANCH   1  15
ATOM     14  C   UNL     1       3.379   2.360  18.303  0.00  0.00    +0.000 C 
ATOM     15  C   UNL     1       3.551   3.289  19.503  0.00  0.00    +0.000 C 
ENDBRANCH   1  15
BRANCH   1  16
ATOM     16  C   UNL     1       1.967   5.275  19.691  0.00  0.00    +0.000 C 
ATOM     17  C   UNL     1       0.972   4.146  20.034  0.00  0.00    +0.000 C 
BRANCH  16  18
ATOM     18  C   UNL     1       2.013   6.278  20.864  0.00  0.00    +0.000 C 
BRANCH  18  19
ATOM     19  C   UNL     1       1.333   7.611  20.670  0.00  0.00    +0.000 A 
ATOM     20  C   UNL     1       0.350   8.219  21.522  0.00  0.00    +0.000 A 
ATOM     21  C   UNL     1      -0.068   9.450  21.059  0.00  0.00    +0.000 A 
ATOM     22  S   UNL     1       0.744   9.910  19.632  0.00  0.00    +0.000 S 
ATOM     23  C   UNL     1       1.657   8.467  19.630  0.00  0.00    +0.000 A 
ENDBRANCH  18  19
ENDBRANCH  16  18
ENDBRANCH   1  16
TORSDOF 7
ENDMDL
MODEL 2
REMARK VINA RESULT:      -6.7      0.624      1.204
REMARK  Name = 
REMARK  9 active torsions:
REMARK  status: ('A' for Active; 'I' for Inactive)
REMARK    1  A    between atoms: C_1  and  C_2
REMARK    2  A    between atoms: C_2  and  N_3
REMARK    3  A    between atoms: N_3  and  C_15
REMARK    4  A    between atoms: C_4  and  C_6
REMARK    5  A    between atoms: CA_10  and  C_11
REMARK    6  A    between atoms: C_11  and  OXT_13
REMARK    7  A    between atoms: C_15  and  C_16
REMARK    8  A    between atoms: C_15  and  C_17
REMARK    9  A    between atoms: C_17  and  C_18
REMARK                            x       y       z     vdW  Elec       q    Type
REMARK                         _______ _______ _______ _____ _____    ______ ____
ROOT
ATOM      1  N   UNL     1       3.253   4.530  18.970  0.00  0.00    +0.000 N 
ATOM      2  C   UNL     1       4.093   5.454  18.295  0.00  0.00    +0.000 C 
ATOM      3  O   UNL     1       3.807   6.643  18.200  0.00  0.00    +0.000 OA
ENDROOT
BRANCH   2   4
ATOM      4  C   UNL     1       5.379   5.067  17.632  0.00  0.00    +0.000 A 
ATOM      5  C   UNL     1       6.572   4.919  18.330  0.00  0.00    +0.000 A 
ATOM      6  C   UNL     1       7.734   4.609  17.642  0.00  0.00    +0.000 A 
ATOM      7  N   UNL     1       7.805   4.501  16.304  0.00  0.00    +0.000 NA
ATOM      8  CA  UNL     1       6.639   4.720  15.631  0.00  0.00    +0.000 A 
ATOM      9  C   UNL     1       5.420   4.996  16.236  0.00  0.00    +0.000 A 
BRANCH   8  10
ATOM     10  C   UNL     1       6.760   4.663  14.139  0.00  0.00    +0.000 C 
ATOM     11  O   UNL     1       7.589   5.262  13.485  0.00  0.00    +0.000 OA
BRANCH  10  12
ATOM     12  OXT UNL     1       5.811   3.842  13.618  0.00  0.00    +0.000 OA
ATOM     13  HXT UNL     1       5.150   3.632  14.314  0.00  0.00    +0.000 HD
ENDBRANCH  10  12
ENDBRANCH   8  10
ENDBRANCH   2   4
BRANCH   1  15
ATOM     14  C   UNL     1       4.169   2.383  20.017  0.00  0.00    +0.000 C 
ATOM     15  C   UNL     1       3.378   3.057  18.897  0.00  0.00    +0.000 C 
ENDBRANCH   1  15
BRANCH   1  16
ATOM     16  C   UNL     1       1.949   5.086  19.471  0.00  0.00    +0.000 C 
ATOM     17  C   UNL     1       0.929   3.966  19.769  0.00  0.00    +0.000 C 
BRANCH  16  18
ATOM     18  C   UNL     1       2.059   6.007  20.704  0.00  0.00    +0.000 C 
BRANCH  18  19
ATOM     19  C   UNL     1       1.534   7.415  20.575  0.00  0.00    +0.000 A 
ATOM     20  C   UNL     1       1.593   8.264  19.417  0.00  0.00    +0.000 A 
ATOM     21  C   UNL     1       1.015   9.498  19.631  0.00  0.00    +0.000 A 
ATOM     22  S   UNL     1       0.353   9.635  21.197  0.00  0.00    +0.000 S 
ATOM     23  C   UNL     1       0.838   8.047  21.592  0.00  0.00    +0.000 A 
ENDBRANCH  18  19
ENDBRANCH  16  18
ENDBRANCH   1  16
TORSDOF 7
ENDMDL
MODEL 3
REMARK VINA RESULT:      -6.6      3.166      4.774
REMARK  Name = 
REMARK  9 active torsions:
REMARK  status: ('A' for Active; 'I' for Inactive)
REMARK    1  A    between atoms: C_1  and  C_2
REMARK    2  A    between atoms: C_2  and  N_3
REMARK    3  A    between atoms: N_3  and  C_15
REMARK    4  A    between atoms: C_4  and  C_6
REMARK    5  A    between atoms: CA_10  and  C_11
REMARK    6  A    between atoms: C_11  and  OXT_13
REMARK    7  A    between atoms: C_15  and  C_16
REMARK    8  A    between atoms: C_15  and  C_17
REMARK    9  A    between atoms: C_17  and  C_18
REMARK                            x       y       z     vdW  Elec       q    Type
REMARK                         _______ _______ _______ _____ _____    ______ ____
ROOT
ATOM      1  N   UNL     1       5.878   4.899  17.026  0.00  0.00    +0.000 N 
ATOM      2  C   UNL     1       7.026   4.480  16.303  0.00  0.00    +0.000 C 
ATOM      3  O   UNL     1       8.050   4.108  16.867  0.00  0.00    +0.000 OA
ENDROOT
BRANCH   2   4
ATOM      4  C   UNL     1       7.099   4.468  14.808  0.00  0.00    +0.000 A 
ATOM      5  C   UNL     1       7.884   5.359  14.084  0.00  0.00    +0.000 A 
ATOM      6  C   UNL     1       7.863   5.323  12.699  0.00  0.00    +0.000 A 
ATOM      7  N   UNL     1       7.067   4.508  11.985  0.00  0.00    +0.000 NA
ATOM      8  CA  UNL     1       6.252   3.690  12.712  0.00  0.00    +0.000 A 
ATOM      9  C   UNL     1       6.234   3.628  14.099  0.00  0.00    +0.000 A 
BRANCH   8  10
ATOM     10  C   UNL     1       5.327   2.843  11.894  0.00  0.00    +0.000 C 
ATOM     11  O   UNL     1       4.232   3.189  11.501  0.00  0.00    +0.000 OA
BRANCH  10  12
ATOM     12  OXT UNL     1       5.888   1.629  11.649  0.00  0.00    +0.000 OA
ATOM     13  HXT UNL     1       6.351   1.659  10.783  0.00  0.00    +0.000 HD
ENDBRANCH  10  12
ENDBRANCH   8  10
ENDBRANCH   2   4
BRANCH   1  15
ATOM     14  C   UNL     1       4.929   7.083  16.092  0.00  0.00    +0.000 C 
ATOM     15  C   UNL     1       4.719   5.611  16.442  0.00  0.00    +0.000 C 
ENDBRANCH   1  15
BRANCH   1  16
ATOM     16  C   UNL     1       6.036   4.950  18.520  0.00  0.00    +0.000 C 
ATOM     17  C   UNL     1       7.136   5.946  18.943  0.00  0.00    +0.000 C 
BRANCH  16  18
ATOM     18  C   UNL     1       4.744   5.264  19.305  0.00  0.00    +0.000 C 
BRANCH  18  19
ATOM     19  C   UNL     1       3.658   4.218  19.312  0.00  0.00    +0.000 A 
ATOM     20  C   UNL     1       3.764   2.856  19.754  0.00  0.00    +0.000 A 
ATOM     21  C   UNL     1       2.578   2.161  19.630  0.00  0.00    +0.000 A 
ATOM     22  S   UNL     1       1.318   3.142  19.031  0.00  0.00    +0.000 S 
ATOM     23  C   UNL     1       2.353   4.496  18.937  0.00  0.00    +0.000 A 
ENDBRANCH  18  19
ENDBRANCH  16  18
ENDBRANCH   1  16
TORSDOF 7
ENDMDL
MODEL 4
REMARK VINA RESULT:      -6.5      3.164      7.165
REMARK  Name = 
REMARK  9 active torsions:
REMARK  status: ('A' for Active; 'I' for Inactive)
REMARK    1  A    between atoms: C_1  and  C_2
REMARK    2  A    between atoms: C_2  and  N_3
REMARK    3  A    between atoms: N_3  and  C_15
REMARK    4  A    between atoms: C_4  and  C_6
REMARK    5  A    between atoms: CA_10  and  C_11
REMARK    6  A    between atoms: C_11  and  OXT_13
REMARK    7  A    between atoms: C_15  and  C_16
REMARK    8  A    between atoms: C_15  and  C_17
REMARK    9  A    between atoms: C_17  and  C_18
REMARK                            x       y       z     vdW  Elec       q    Type
REMARK                         _______ _______ _______ _____ _____    ______ ____
ROOT
ATOM      1  N   UNL     1       3.159   4.994  18.977  0.00  0.00    +0.000 N 
ATOM      2  C   UNL     1       3.361   6.338  18.565  0.00  0.00    +0.000 C 
ATOM      3  O   UNL     1       4.354   6.683  17.933  0.00  0.00    +0.000 OA
ENDROOT
BRANCH   2   4
ATOM      4  C   UNL     1       2.403   7.447  18.874  0.00  0.00    +0.000 A 
ATOM      5  C   UNL     1       2.012   8.390  17.930  0.00  0.00    +0.000 A 
ATOM      6  C   UNL     1       1.161   9.419  18.301  0.00  0.00    +0.000 A 
ATOM      7  N   UNL     1       0.726   9.612  19.558  0.00  0.00    +0.000 NA
ATOM      8  CA  UNL     1       1.177   8.718  20.485  0.00  0.00    +0.000 A 
ATOM      9  C   UNL     1       1.997   7.635  20.199  0.00  0.00    +0.000 A 
BRANCH   8  10
ATOM     10  C   UNL     1       0.734   8.997  21.888  0.00  0.00    +0.000 C 
ATOM     11  O   UNL     1      -0.421   9.002  22.264  0.00  0.00    +0.000 OA
BRANCH  10  12
ATOM     12  OXT UNL     1       1.807   9.241  22.685  0.00  0.00    +0.000 OA
ATOM     13  HXT UNL     1       2.362   9.938  22.271  0.00  0.00    +0.000 HD
ENDBRANCH  10  12
ENDBRANCH   8  10
ENDBRANCH   2   4
BRANCH   1  15
ATOM     14  C   UNL     1       0.982   3.727  19.418  0.00  0.00    +0.000 C 
ATOM     15  C   UNL     1       2.148   4.549  19.962  0.00  0.00    +0.000 C 
ENDBRANCH   1  15
BRANCH   1  16
ATOM     16  C   UNL     1       4.287   4.048  18.673  0.00  0.00    +0.000 C 
ATOM     17  C   UNL     1       4.333   2.876  19.676  0.00  0.00    +0.000 C 
BRANCH  16  18
ATOM     18  C   UNL     1       4.299   3.482  17.237  0.00  0.00    +0.000 C 
BRANCH  18  19
ATOM     19  C   UNL     1       5.370   3.978  16.298  0.00  0.00    +0.000 A 
ATOM     20  C   UNL     1       6.689   4.430  16.643  0.00  0.00    +0.000 A 
ATOM     21  C   UNL     1       7.425   4.816  15.542  0.00  0.00    +0.000 A 
ATOM     22  S   UNL     1       6.567   4.596  14.085  0.00  0.00    +0.000 S 
ATOM     23  C   UNL     1       5.210   3.984  14.922  0.00  0.00    +0.000 A 
ENDBRANCH  18  19
ENDBRANCH  16  18
ENDBRANCH   1  16
TORSDOF 7
ENDMDL
MODEL 5
REMARK VINA RESULT:      -6.4      3.075      7.084
REMARK  Name = 
REMARK  9 active torsions:
REMARK  status: ('A' for Active; 'I' for Inactive)
REMARK    1  A    between atoms: C_1  and  C_2
REMARK    2  A    between atoms: C_2  and  N_3
REMARK    3  A    between atoms: N_3  and  C_15
REMARK    4  A    between atoms: C_4  and  C_6
REMARK    5  A    between atoms: CA_10  and  C_11
REMARK    6  A    between atoms: C_11  and  OXT_13
REMARK    7  A    between atoms: C_15  and  C_16
REMARK    8  A    between atoms: C_15  and  C_17
REMARK    9  A    between atoms: C_17  and  C_18
REMARK                            x       y       z     vdW  Elec       q    Type
REMARK                         _______ _______ _______ _____ _____    ______ ____
ROOT
ATOM      1  N   UNL     1       2.845   4.647  18.569  0.00  0.00    +0.000 N 
ATOM      2  C   UNL     1       3.347   5.945  18.851  0.00  0.00    +0.000 C 
ATOM      3  O   UNL     1       4.549   6.170  18.946  0.00  0.00    +0.000 OA
ENDROOT
BRANCH   2   4
ATOM      4  C   UNL     1       2.470   7.138  19.071  0.00  0.00    +0.000 A 
ATOM      5  C   UNL     1       2.190   8.062  18.071  0.00  0.00    +0.000 A 
ATOM      6  C   UNL     1       1.411   9.172  18.361  0.00  0.00    +0.000 A 
ATOM      7  N   UNL     1       0.948   9.458  19.590  0.00  0.00    +0.000 NA
ATOM      8  CA  UNL     1       1.293   8.578  20.573  0.00  0.00    +0.000 A 
ATOM      9  C   UNL     1       2.033   7.421  20.369  0.00  0.00    +0.000 A 
BRANCH   8  10
ATOM     10  C   UNL     1       0.823   8.957  21.944  0.00  0.00    +0.000 C 
ATOM     11  O   UNL     1      -0.336   8.957  22.306  0.00  0.00    +0.000 OA
BRANCH  10  12
ATOM     12  OXT UNL     1       1.878   9.299  22.729  0.00  0.00    +0.000 OA
ATOM     13  HXT UNL     1       1.861  10.269  22.884  0.00  0.00    +0.000 HD
ENDBRANCH  10  12
ENDBRANCH   8  10
ENDBRANCH   2   4
BRANCH   1  15
ATOM     14  C   UNL     1       0.913   4.034  20.131  0.00  0.00    +0.000 C 
ATOM     15  C   UNL     1       1.430   4.235  18.708  0.00  0.00    +0.000 C 
ENDBRANCH   1  15
BRANCH   1  16
ATOM     16  C   UNL     1       3.875   3.555  18.495  0.00  0.00    +0.000 C 
ATOM     17  C   UNL     1       3.480   2.339  19.360  0.00  0.00    +0.000 C 
BRANCH  16  18
ATOM     18  C   UNL     1       4.214   3.070  17.069  0.00  0.00    +0.000 C 
BRANCH  18  19
ATOM     19  C   UNL     1       5.277   3.823  16.309  0.00  0.00    +0.000 A 
ATOM     20  C   UNL     1       5.285   4.141  14.908  0.00  0.00    +0.000 A 
ATOM     21  C   UNL     1       6.409   4.846  14.528  0.00  0.00    +0.000 A 
ATOM     22  S   UNL     1       7.438   5.175  15.848  0.00  0.00    +0.000 S 
ATOM     23  C   UNL     1       6.385   4.378  16.929  0.00  0.00    +0.000 A 
ENDBRANCH  18  19
ENDBRANCH  16  18
ENDBRANCH   1  16
TORSDOF 7
ENDMDL
MODEL 6
REMARK VINA RESULT:      -6.4      3.043      4.627
REMARK  Name = 
REMARK  9 active torsions:
REMARK  status: ('A' for Active; 'I' for Inactive)
REMARK    1  A    between atoms: C_1  and  C_2
REMARK    2  A    between atoms: C_2  and  N_3
REMARK    3  A    between atoms: N_3  and  C_15
REMARK    4  A    between atoms: C_4  and  C_6
REMARK    5  A    between atoms: CA_10  and  C_11
REMARK    6  A    between atoms: C_11  and  OXT_13
REMARK    7  A    between atoms: C_15  and  C_16
REMARK    8  A    between atoms: C_15  and  C_17
REMARK    9  A    between atoms: C_17  and  C_18
REMARK                            x       y       z     vdW  Elec       q    Type
REMARK                         _______ _______ _______ _____ _____    ______ ____
ROOT
ATOM      1  N   UNL     1       5.819   4.897  17.047  0.00  0.00    +0.000 N 
ATOM      2  C   UNL     1       6.985   4.490  16.345  0.00  0.00    +0.000 C 
ATOM      3  O   UNL     1       8.002   4.129  16.928  0.00  0.00    +0.000 OA
ENDROOT
BRANCH   2   4
ATOM      4  C   UNL     1       7.086   4.480  14.852  0.00  0.00    +0.000 A 
ATOM      5  C   UNL     1       7.859   5.390  14.141  0.00  0.00    +0.000 A 
ATOM      6  C   UNL     1       7.864   5.353  12.756  0.00  0.00    +0.000 A 
ATOM      7  N   UNL     1       7.103   4.516  12.029  0.00  0.00    +0.000 NA
ATOM      8  CA  UNL     1       6.297   3.678  12.742  0.00  0.00    +0.000 A 
ATOM      9  C   UNL     1       6.256   3.616  14.129  0.00  0.00    +0.000 A 
BRANCH   8  10
ATOM     10  C   UNL     1       5.410   2.806  11.908  0.00  0.00    +0.000 C 
ATOM     11  O   UNL     1       5.708   1.703  11.496  0.00  0.00    +0.000 OA
BRANCH  10  12
ATOM     12  OXT UNL     1       4.221   3.422  11.678  0.00  0.00    +0.000 OA
ATOM     13  HXT UNL     1       3.518   2.965  12.190  0.00  0.00    +0.000 HD
ENDBRANCH  10  12
ENDBRANCH   8  10
ENDBRANCH   2   4
BRANCH   1  15
ATOM     14  C   UNL     1       4.882   7.056  16.046  0.00  0.00    +0.000 C 
ATOM     15  C   UNL     1       4.664   5.597  16.443  0.00  0.00    +0.000 C 
ENDBRANCH   1  15
BRANCH   1  16
ATOM     16  C   UNL     1       5.950   4.949  18.544  0.00  0.00    +0.000 C 
ATOM     17  C   UNL     1       7.178   5.776  18.980  0.00  0.00    +0.000 C 
BRANCH  16  18
ATOM     18  C   UNL     1       4.703   5.467  19.292  0.00  0.00    +0.000 C 
BRANCH  18  19
ATOM     19  C   UNL     1       3.557   4.506  19.491  0.00  0.00    +0.000 A 
ATOM     20  C   UNL     1       2.182   4.831  19.745  0.00  0.00    +0.000 A 
ATOM     21  C   UNL     1       1.385   3.712  19.876  0.00  0.00    +0.000 A 
ATOM     22  S   UNL     1       2.262   2.267  19.647  0.00  0.00    +0.000 S 
ATOM     23  C   UNL     1       3.708   3.133  19.373  0.00  0.00    +0.000 A 
ENDBRANCH  18  19
ENDBRANCH  16  18
ENDBRANCH   1  16
TORSDOF 7
ENDMDL
MODEL 7
REMARK VINA RESULT:      -6.3      3.205      7.345
REMARK  Name = 
REMARK  9 active torsions:
REMARK  status: ('A' for Active; 'I' for Inactive)
REMARK    1  A    between atoms: C_1  and  C_2
REMARK    2  A    between atoms: C_2  and  N_3
REMARK    3  A    between atoms: N_3  and  C_15
REMARK    4  A    between atoms: C_4  and  C_6
REMARK    5  A    between atoms: CA_10  and  C_11
REMARK    6  A    between atoms: C_11  and  OXT_13
REMARK    7  A    between atoms: C_15  and  C_16
REMARK    8  A    between atoms: C_15  and  C_17
REMARK    9  A    between atoms: C_17  and  C_18
REMARK                            x       y       z     vdW  Elec       q    Type
REMARK                         _______ _______ _______ _____ _____    ______ ____
ROOT
ATOM      1  N   UNL     1       3.246   5.420  18.563  0.00  0.00    +0.000 N 
ATOM      2  C   UNL     1       3.318   6.797  18.222  0.00  0.00    +0.000 C 
ATOM      3  O   UNL     1       4.236   7.253  17.550  0.00  0.00    +0.000 OA
ENDROOT
BRANCH   2   4
ATOM      4  C   UNL     1       2.302   7.807  18.658  0.00  0.00    +0.000 A 
ATOM      5  C   UNL     1       1.784   8.772  17.803  0.00  0.00    +0.000 A 
ATOM      6  C   UNL     1       0.884   9.708  18.290  0.00  0.00    +0.000 A 
ATOM      7  N   UNL     1       0.517   9.790  19.580  0.00  0.00    +0.000 NA
ATOM      8  CA  UNL     1       1.091   8.879  20.418  0.00  0.00    +0.000 A 
ATOM      9  C   UNL     1       1.969   7.882  20.015  0.00  0.00    +0.000 A 
BRANCH   8  10
ATOM     10  C   UNL     1       0.718   9.037  21.860  0.00  0.00    +0.000 C 
ATOM     11  O   UNL     1      -0.418   9.051  22.287  0.00  0.00    +0.000 OA
BRANCH  10  12
ATOM     12  OXT UNL     1       1.833   9.159  22.627  0.00  0.00    +0.000 OA
ATOM     13  HXT UNL     1       1.760   9.973  23.172  0.00  0.00    +0.000 HD
ENDBRANCH  10  12
ENDBRANCH   8  10
ENDBRANCH   2   4
BRANCH   1  15
ATOM     14  C   UNL     1       1.253   3.899  19.072  0.00  0.00    +0.000 C 
ATOM     15  C   UNL     1       2.341   4.842  19.581  0.00  0.00    +0.000 C 
ENDBRANCH   1  15
BRANCH   1  16
ATOM     16  C   UNL     1       4.419   4.584  18.131  0.00  0.00    +0.000 C 
ATOM     17  C   UNL     1       4.806   3.546  19.205  0.00  0.00    +0.000 C 
BRANCH  16  18
ATOM     18  C   UNL     1       4.247   3.865  16.775  0.00  0.00    +0.000 C 
BRANCH  18  19
ATOM     19  C   UNL     1       5.276   4.134  15.706  0.00  0.00    +0.000 A 
ATOM     20  C   UNL     1       5.257   3.677  14.344  0.00  0.00    +0.000 A 
ATOM     21  C   UNL     1       6.352   4.105  13.623  0.00  0.00    +0.000 A 
ATOM     22  S   UNL     1       7.386   5.095  14.550  0.00  0.00    +0.000 S 
ATOM     23  C   UNL     1       6.372   4.956  15.916  0.00  0.00    +0.000 A 
ENDBRANCH  18  19
ENDBRANCH  16  18
ENDBRANCH   1  16
TORSDOF 7
ENDMDL
MODEL 8
REMARK VINA RESULT:      -6.3      3.433      6.951
REMARK  Name = 
REMARK  9 active torsions:
REMARK  status: ('A' for Active; 'I' for Inactive)
REMARK    1  A    between atoms: C_1  and  C_2
REMARK    2  A    between atoms: C_2  and  N_3
REMARK    3  A    between atoms: N_3  and  C_15
REMARK    4  A    between atoms: C_4  and  C_6
REMARK    5  A    between atoms: CA_10  and  C_11
REMARK    6  A    between atoms: C_11  and  OXT_13
REMARK    7  A    between atoms: C_15  and  C_16
REMARK    8  A    between atoms: C_15  and  C_17
REMARK    9  A    between atoms: C_17  and  C_18
REMARK                            x       y       z     vdW  Elec       q    Type
REMARK                         _______ _______ _______ _____ _____    ______ ____
ROOT
ATOM      1  N   UNL     1       5.521   5.703  17.459  0.00  0.00    +0.000 N 
ATOM      2  C   UNL     1       4.198   6.211  17.552  0.00  0.00    +0.000 C 
ATOM      3  O   UNL     1       3.829   7.186  16.905  0.00  0.00    +0.000 OA
ENDROOT
BRANCH   2   4
ATOM      4  C   UNL     1       3.150   5.622  18.445  0.00  0.00    +0.000 A 
ATOM      5  C   UNL     1       2.782   6.196  19.655  0.00  0.00    +0.000 A 
ATOM      6  C   UNL     1       1.840   5.567  20.455  0.00  0.00    +0.000 A 
ATOM      7  N   UNL     1       1.290   4.376  20.164  0.00  0.00    +0.000 NA
ATOM      8  CA  UNL     1       1.716   3.794  19.006  0.00  0.00    +0.000 A 
ATOM      9  C   UNL     1       2.624   4.366  18.124  0.00  0.00    +0.000 A 
BRANCH   8  10
ATOM     10  C   UNL     1       1.140   2.437  18.741  0.00  0.00    +0.000 C 
ATOM     11  O   UNL     1      -0.004   2.109  18.980  0.00  0.00    +0.000 OA
BRANCH  10  12
ATOM     12  OXT UNL     1       2.078   1.622  18.191  0.00  0.00    +0.000 OA
ATOM     13  HXT UNL     1       2.622   2.141  17.558  0.00  0.00    +0.000 HD
ENDBRANCH  10  12
ENDBRANCH   8  10
ENDBRANCH   2   4
BRANCH   1  15
ATOM     14  C   UNL     1       6.885   5.291  19.584  0.00  0.00    +0.000 C 
ATOM     15  C   UNL     1       6.122   4.721  18.389  0.00  0.00    +0.000 C 
ENDBRANCH   1  15
BRANCH   1  16
ATOM     16  C   UNL     1       6.461   6.498  16.596  0.00  0.00    +0.000 C 
ATOM     17  C   UNL     1       7.218   7.567  17.413  0.00  0.00    +0.000 C 
BRANCH  16  18
ATOM     18  C   UNL     1       7.482   5.662  15.795  0.00  0.00    +0.000 C 
BRANCH  18  19
ATOM     19  C   UNL     1       6.977   4.912  14.587  0.00  0.00    +0.000 A 
ATOM     20  C   UNL     1       5.753   4.169  14.473  0.00  0.00    +0.000 A 
ATOM     21  C   UNL     1       5.589   3.603  13.225  0.00  0.00    +0.000 A 
ATOM     22  S   UNL     1       6.867   3.996  12.167  0.00  0.00    +0.000 S 
ATOM     23  C   UNL     1       7.643   4.923  13.372  0.00  0.00    +0.000 A 
ENDBRANCH  18  19
ENDBRANCH  16  18
ENDBRANCH   1  16
TORSDOF 7
ENDMDL
MODEL 9
REMARK VINA RESULT:      -6.2      3.143      6.614
REMARK  Name = 
REMARK  9 active torsions:
REMARK  status: ('A' for Active; 'I' for Inactive)
REMARK    1  A    between atoms: C_1  and  C_2
REMARK    2  A    between atoms: C_2  and  N_3
REMARK    3  A    between atoms: N_3  and  C_15
REMARK    4  A    between atoms: C_4  and  C_6
REMARK    5  A    between atoms: CA_10  and  C_11
REMARK    6  A    between atoms: C_11  and  OXT_13
REMARK    7  A    between atoms: C_15  and  C_16
REMARK    8  A    between atoms: C_15  and  C_17
REMARK    9  A    between atoms: C_17  and  C_18
REMARK                            x       y       z     vdW  Elec       q    Type
REMARK                         _______ _______ _______ _____ _____    ______ ____
ROOT
ATOM      1  N   UNL     1       2.792   4.509  18.746  0.00  0.00    +0.000 N 
ATOM      2  C   UNL     1       3.324   5.687  19.334  0.00  0.00    +0.000 C 
ATOM      3  O   UNL     1       4.526   5.826  19.537  0.00  0.00    +0.000 OA
ENDROOT
BRANCH   2   4
ATOM      4  C   UNL     1       2.480   6.844  19.770  0.00  0.00    +0.000 A 
ATOM      5  C   UNL     1       1.797   6.866  20.980  0.00  0.00    +0.000 A 
ATOM      6  C   UNL     1       0.992   7.950  21.294  0.00  0.00    +0.000 A 
ATOM      7  N   UNL     1       0.769   8.981  20.461  0.00  0.00    +0.000 NA
ATOM      8  CA  UNL     1       1.392   8.908  19.249  0.00  0.00    +0.000 A 
ATOM      9  C   UNL     1       2.246   7.883  18.863  0.00  0.00    +0.000 A 
BRANCH   8  10
ATOM     10  C   UNL     1       1.072  10.034  18.314  0.00  0.00    +0.000 C 
ATOM     11  O   UNL     1       0.151  10.812  18.453  0.00  0.00    +0.000 OA
BRANCH  10  12
ATOM     12  OXT UNL     1       1.961  10.064  17.287  0.00  0.00    +0.000 OA
ATOM     13  HXT UNL     1       1.521  10.440  16.493  0.00  0.00    +0.000 HD
ENDBRANCH  10  12
ENDBRANCH   8  10
ENDBRANCH   2   4
BRANCH   1  15
ATOM     14  C   UNL     1       0.750   3.664  20.034  0.00  0.00    +0.000 C 
ATOM     15  C   UNL     1       1.358   4.146  18.718  0.00  0.00    +0.000 C 
ENDBRANCH   1  15
BRANCH   1  16
ATOM     16  C   UNL     1       3.785   3.411  18.483  0.00  0.00    +0.000 C 
ATOM     17  C   UNL     1       3.381   2.096  19.184  0.00  0.00    +0.000 C 
BRANCH  16  18
ATOM     18  C   UNL     1       4.062   3.121  16.992  0.00  0.00    +0.000 C 
BRANCH  18  19
ATOM     19  C   UNL     1       5.175   3.891  16.325  0.00  0.00    +0.000 A 
ATOM     20  C   UNL     1       5.324   4.169  14.924  0.00  0.00    +0.000 A 
ATOM     21  C   UNL     1       6.458   4.903  14.644  0.00  0.00    +0.000 A 
ATOM     22  S   UNL     1       7.327   5.308  16.054  0.00  0.00    +0.000 S 
ATOM     23  C   UNL     1       6.190   4.503  17.042  0.00  0.00    +0.000 A 
ENDBRANCH  18  19
ENDBRANCH  16  18
ENDBRANCH   1  16
TORSDOF 7
ENDMDL
