MODEL 1
REMARK VINA RESULT:      -7.3      0.000      0.000
REMARK  Name = 
REMARK  7 active torsions:
REMARK  status: ('A' for Active; 'I' for Inactive)
REMARK    1  A    between atoms: N_1  and  C_2
REMARK    2  A    between atoms: C_7  and  C_8
REMARK    3  A    between atoms: C_10  and  C_11
REMARK    4  A    between atoms: C_11  and  S_12
REMARK    5  A    between atoms: S_12  and  C_13
REMARK    6  A    between atoms: C_19  and  O_20
REMARK    7  A    between atoms: C_21  and  O_22
REMARK                            x       y       z     vdW  Elec       q    Type
REMARK                         _______ _______ _______ _____ _____    ______ ____
ROOT
ATOM      1  C   UNL     1       2.652   5.893  18.845  0.00  0.00    +0.000 C 
ATOM      2  N   UNL     1       3.419   5.523  20.056  0.00  0.00    +0.000 NA
ATOM      3  C   UNL     1       3.389   4.039  20.113  0.00  0.00    +0.000 C 
ATOM      4  C   UNL     1       1.954   3.694  19.659  0.00  0.00    +0.000 C 
ATOM      5  C   UNL     1       1.536   4.836  18.718  0.00  0.00    +0.000 C 
ATOM      6  H   UNL     1       2.928   5.878  20.877  0.00  0.00    +0.000 HD
ENDROOT
BRANCH   1  12
ATOM      7  C   UNL     1       0.783  10.388  19.872  0.00  0.00    +0.000 A 
ATOM      8  N   UNL     1       0.527  10.082  21.189  0.00  0.00    +0.000 N 
ATOM      9  C   UNL     1       0.809   8.835  21.698  0.00  0.00    +0.000 A 
ATOM     10  N   UNL     1       1.383   7.857  21.066  0.00  0.00    +0.000 NA
ATOM     11  C   UNL     1       1.676   8.122  19.750  0.00  0.00    +0.000 A 
ATOM     12  C   UNL     1       2.206   7.307  18.831  0.00  0.00    +0.000 A 
ATOM     13  C   UNL     1       2.211   8.199  17.659  0.00  0.00    +0.000 A 
ATOM     14  N   UNL     1       1.757   9.405  17.832  0.00  0.00    +0.000 NA
ATOM     15  C   UNL     1       1.374   9.411  19.147  0.00  0.00    +0.000 A 
ATOM     16  H   UNL     1      -0.096  10.714  21.678  0.00  0.00    +0.000 HD
BRANCH   7  17
ATOM     17  N   UNL     1       0.444  11.615  19.348  0.00  0.00    +0.000 N 
ATOM     18  H   UNL     1      -0.142  11.525  18.525  0.00  0.00    +0.000 HD
ATOM     19  H   UNL     1      -0.011  12.180  20.069  0.00  0.00    +0.000 HD
ENDBRANCH   7  17
ENDBRANCH   1  12
BRANCH   4  20
ATOM     20  O   UNL     1       1.736   2.414  19.073  0.00  0.00    +0.000 OA
ATOM     21  H   UNL     1       2.537   1.872  19.149  0.00  0.00    +0.000 HD
ENDBRANCH   4  20
BRANCH   5  22
ATOM     22  O   UNL     1       1.459   4.368  17.370  0.00  0.00    +0.000 OA
ATOM     23  H   UNL     1       2.341   4.514  16.982  0.00  0.00    +0.000 HD
ENDBRANCH   5  22
BRANCH   3  24
ATOM     24  C   UNL     1       4.512   3.354  19.294  0.00  0.00    +0.000 C 
BRANCH  24  25
ATOM     25  S   UNL     1       5.871   4.538  18.965  0.00  0.00    +0.000 S 
BRANCH  25  26
ATOM     26  C   UNL     1       5.951   4.592  17.183  0.00  0.00    +0.000 A 
ATOM     27  C   UNL     1       7.203   4.857  16.613  0.00  0.00    +0.000 A 
ATOM     28  C   UNL     1       7.381   4.833  15.228  0.00  0.00    +0.000 A 
ATOM     29  C   UNL     1       6.306   4.540  14.395  0.00  0.00    +0.000 A 
ATOM     30  C   UNL     1       5.054   4.276  14.948  0.00  0.00    +0.000 A 
ATOM     31  C   UNL     1       4.877   4.299  16.337  0.00  0.00    +0.000 A 
ENDBRANCH  25  26
ENDBRANCH  24  25
ENDBRANCH   3  24
TORSDOF 7
ENDMDL
MODEL 2
REMARK VINA RESULT:      -7.3      3.555      5.631
REMARK  Name = 
REMARK  7 active torsions:
REMARK  status: ('A' for Active; 'I' for Inactive)
REMARK    1  A    between atoms: N_1  and  C_2
REMARK    2  A    between atoms: C_7  and  C_8
REMARK    3  A    between atoms: C_10  and  C_11
REMARK    4  A    between atoms: C_11  and  S_12
REMARK    5  A    between atoms: S_12  and  C_13
REMARK    6  A    between atoms: C_19  and  O_20
REMARK    7  A    between atoms: C_21  and  O_22
REMARK                            x       y       z     vdW  Elec       q    Type
REMARK                         _______ _______ _______ _____ _____    ______ ____
ROOT
ATOM      1  C   UNL     1       5.562   4.125  17.846  0.00  0.00    +0.000 C 
ATOM      2  N   UNL     1       4.933   4.399  16.534  0.00  0.00    +0.000 NA
ATOM      3  C   UNL     1       5.893   5.262  15.800  0.00  0.00    +0.000 C 
ATOM      4  C   UNL     1       6.438   6.203  16.897  0.00  0.00    +0.000 C 
ATOM      5  C   UNL     1       6.352   5.399  18.205  0.00  0.00    +0.000 C 
ATOM      6  H   UNL     1       4.080   4.939  16.686  0.00  0.00    +0.000 HD
ENDROOT
BRANCH   1  12
ATOM      7  C   UNL     1       1.874   3.558  21.136  0.00  0.00    +0.000 A 
ATOM      8  N   UNL     1       1.245   4.726  20.771  0.00  0.00    +0.000 N 
ATOM      9  C   UNL     1       1.767   5.539  19.792  0.00  0.00    +0.000 A 
ATOM     10  N   UNL     1       2.821   5.300  19.072  0.00  0.00    +0.000 NA
ATOM     11  C   UNL     1       3.473   4.133  19.388  0.00  0.00    +0.000 A 
ATOM     12  C   UNL     1       4.609   3.645  18.875  0.00  0.00    +0.000 A 
ATOM     13  C   UNL     1       4.751   2.415  19.672  0.00  0.00    +0.000 A 
ATOM     14  N   UNL     1       3.823   2.168  20.550  0.00  0.00    +0.000 NA
ATOM     15  C   UNL     1       2.988   3.247  20.434  0.00  0.00    +0.000 A 
ATOM     16  H   UNL     1       0.545   5.073  21.417  0.00  0.00    +0.000 HD
BRANCH   7  17
ATOM     17  N   UNL     1       1.385   2.776  22.159  0.00  0.00    +0.000 N 
ATOM     18  H   UNL     1       1.622   1.797  22.033  0.00  0.00    +0.000 HD
ATOM     19  H   UNL     1       1.731   3.130  23.054  0.00  0.00    +0.000 HD
ENDBRANCH   7  17
ENDBRANCH   1  12
BRANCH   4  20
ATOM     20  O   UNL     1       7.732   6.766  16.702  0.00  0.00    +0.000 OA
ATOM     21  H   UNL     1       7.660   7.610  16.227  0.00  0.00    +0.000 HD
ENDBRANCH   4  20
BRANCH   5  22
ATOM     22  O   UNL     1       7.660   5.050  18.662  0.00  0.00    +0.000 OA
ATOM     23  H   UNL     1       8.150   4.749  17.875  0.00  0.00    +0.000 HD
ENDBRANCH   5  22
BRANCH   3  24
ATOM     24  C   UNL     1       6.979   4.476  15.022  0.00  0.00    +0.000 C 
BRANCH  24  25
ATOM     25  S   UNL     1       7.106   5.099  13.304  0.00  0.00    +0.000 S 
BRANCH  25  26
ATOM     26  C   UNL     1       6.570   3.711  12.318  0.00  0.00    +0.000 A 
ATOM     27  C   UNL     1       7.571   2.881  11.796  0.00  0.00    +0.000 A 
ATOM     28  C   UNL     1       7.246   1.723  11.086  0.00  0.00    +0.000 A 
ATOM     29  C   UNL     1       5.912   1.379  10.894  0.00  0.00    +0.000 A 
ATOM     30  C   UNL     1       4.905   2.195  11.406  0.00  0.00    +0.000 A 
ATOM     31  C   UNL     1       5.233   3.355  12.119  0.00  0.00    +0.000 A 
ENDBRANCH  25  26
ENDBRANCH  24  25
ENDBRANCH   3  24
TORSDOF 7
ENDMDL
MODEL 3
REMARK VINA RESULT:      -7.1      2.782      4.058
REMARK  Name = 
REMARK  7 active torsions:
REMARK  status: ('A' for Active; 'I' for Inactive)
REMARK    1  A    between atoms: N_1  and  C_2
REMARK    2  A    between atoms: C_7  and  C_8
REMARK    3  A    between atoms: C_10  and  C_11
REMARK    4  A    between atoms: C_11  and  S_12
REMARK    5  A    between atoms: S_12  and  C_13
REMARK    6  A    between atoms: C_19  and  O_20
REMARK    7  A    between atoms: C_21  and  O_22
REMARK                            x       y       z     vdW  Elec       q    Type
REMARK                         _______ _______ _______ _____ _____    ______ ____
ROOT
ATOM      1  C   UNL     1       4.434   5.327  18.012  0.00  0.00    +0.000 C 
ATOM      2  N   UNL     1       4.929   6.139  16.878  0.00  0.00    +0.000 NA
ATOM      3  C   UNL     1       6.207   5.509  16.459  0.00  0.00    +0.000 C 
ATOM      4  C   UNL     1       6.861   5.106  17.799  0.00  0.00    +0.000 C 
ATOM      5  C   UNL     1       5.693   4.850  18.765  0.00  0.00    +0.000 C 
ATOM      6  H   UNL     1       5.139   7.080  17.215  0.00  0.00    +0.000 HD
ENDROOT
BRANCH   1  12
ATOM      7  C   UNL     1       1.182   8.507  20.028  0.00  0.00    +0.000 A 
ATOM      8  N   UNL     1       1.310   9.426  19.011  0.00  0.00    +0.000 N 
ATOM      9  C   UNL     1       2.166   9.205  17.957  0.00  0.00    +0.000 A 
ATOM     10  N   UNL     1       2.876   8.138  17.750  0.00  0.00    +0.000 NA
ATOM     11  C   UNL     1       2.767   7.183  18.732  0.00  0.00    +0.000 A 
ATOM     12  C   UNL     1       3.412   6.015  18.837  0.00  0.00    +0.000 A 
ATOM     13  C   UNL     1       2.863   5.524  20.112  0.00  0.00    +0.000 A 
ATOM     14  N   UNL     1       1.988   6.280  20.709  0.00  0.00    +0.000 NA
ATOM     15  C   UNL     1       1.902   7.371  19.886  0.00  0.00    +0.000 A 
ATOM     16  H   UNL     1       0.950  10.353  19.203  0.00  0.00    +0.000 HD
BRANCH   7  17
ATOM     17  N   UNL     1       0.373   8.756  21.114  0.00  0.00    +0.000 N 
ATOM     18  H   UNL     1       0.218   9.749  21.250  0.00  0.00    +0.000 HD
ATOM     19  H   UNL     1      -0.511   8.253  21.002  0.00  0.00    +0.000 HD
ENDBRANCH   7  17
ENDBRANCH   1  12
BRANCH   4  20
ATOM     20  O   UNL     1       7.787   4.024  17.783  0.00  0.00    +0.000 OA
ATOM     21  H   UNL     1       8.254   3.971  18.634  0.00  0.00    +0.000 HD
ENDBRANCH   4  20
BRANCH   5  22
ATOM     22  O   UNL     1       5.586   3.455  19.058  0.00  0.00    +0.000 OA
ATOM     23  H   UNL     1       6.308   3.020  18.569  0.00  0.00    +0.000 HD
ENDBRANCH   5  22
BRANCH   3  24
ATOM     24  C   UNL     1       6.035   4.349  15.446  0.00  0.00    +0.000 C 
BRANCH  24  25
ATOM     25  S   UNL     1       7.028   4.668  13.940  0.00  0.00    +0.000 S 
BRANCH  25  26
ATOM     26  C   UNL     1       6.210   3.692  12.689  0.00  0.00    +0.000 A 
ATOM     27  C   UNL     1       6.965   2.681  12.081  0.00  0.00    +0.000 A 
ATOM     28  C   UNL     1       6.386   1.810  11.156  0.00  0.00    +0.000 A 
ATOM     29  C   UNL     1       5.040   1.940  10.830  0.00  0.00    +0.000 A 
ATOM     30  C   UNL     1       4.277   2.942  11.425  0.00  0.00    +0.000 A 
ATOM     31  C   UNL     1       4.858   3.813  12.355  0.00  0.00    +0.000 A 
ENDBRANCH  25  26
ENDBRANCH  24  25
ENDBRANCH   3  24
TORSDOF 7
ENDMDL
MODEL 4
REMARK VINA RESULT:      -7.1      1.420      2.556
REMARK  Name = 
REMARK  7 active torsions:
REMARK  status: ('A' for Active; 'I' for Inactive)
REMARK    1  A    between atoms: N_1  and  C_2
REMARK    2  A    between atoms: C_7  and  C_8
REMARK    3  A    between atoms: C_10  and  C_11
REMARK    4  A    between atoms: C_11  and  S_12
REMARK    5  A    between atoms: S_12  and  C_13
REMARK    6  A    between atoms: C_19  and  O_20
REMARK    7  A    between atoms: C_21  and  O_22
REMARK                            x       y       z     vdW  Elec       q    Type
REMARK                         _______ _______ _______ _____ _____    ______ ____
ROOT
ATOM      1  C   UNL     1       2.811   5.504  18.404  0.00  0.00    +0.000 C 
ATOM      2  N   UNL     1       4.246   5.273  18.686  0.00  0.00    +0.000 NA
ATOM      3  C   UNL     1       4.538   3.903  18.192  0.00  0.00    +0.000 C 
ATOM      4  C   UNL     1       3.272   3.107  18.578  0.00  0.00    +0.000 C 
ATOM      5  C   UNL     1       2.126   4.133  18.572  0.00  0.00    +0.000 C 
ATOM      6  H   UNL     1       4.386   5.277  19.697  0.00  0.00    +0.000 HD
ENDROOT
BRANCH   1  12
ATOM      7  C   UNL     1       1.129   9.875  20.081  0.00  0.00    +0.000 A 
ATOM      8  N   UNL     1       1.342  10.520  18.884  0.00  0.00    +0.000 N 
ATOM      9  C   UNL     1       1.878   9.858  17.804  0.00  0.00    +0.000 A 
ATOM     10  N   UNL     1       2.174   8.595  17.744  0.00  0.00    +0.000 NA
ATOM     11  C   UNL     1       1.961   7.903  18.912  0.00  0.00    +0.000 A 
ATOM     12  C   UNL     1       2.222   6.619  19.182  0.00  0.00    +0.000 A 
ATOM     13  C   UNL     1       1.795   6.554  20.590  0.00  0.00    +0.000 A 
ATOM     14  N   UNL     1       1.322   7.646  21.115  0.00  0.00    +0.000 NA
ATOM     15  C   UNL     1       1.425   8.555  20.097  0.00  0.00    +0.000 A 
ATOM     16  H   UNL     1       1.328  11.533  18.918  0.00  0.00    +0.000 HD
BRANCH   7  17
ATOM     17  N   UNL     1       0.652  10.553  21.180  0.00  0.00    +0.000 N 
ATOM     18  H   UNL     1       0.619  11.554  21.021  0.00  0.00    +0.000 HD
ATOM     19  H   UNL     1      -0.269  10.186  21.433  0.00  0.00    +0.000 HD
ENDBRANCH   7  17
ENDBRANCH   1  12
BRANCH   4  20
ATOM     20  O   UNL     1       2.956   1.952  17.807  0.00  0.00    +0.000 OA
ATOM     21  H   UNL     1       2.791   1.195  18.392  0.00  0.00    +0.000 HD
ENDBRANCH   4  20
BRANCH   5  22
ATOM     22  O   UNL     1       1.245   3.889  17.473  0.00  0.00    +0.000 OA
ATOM     23  H   UNL     1       1.674   4.281  16.691  0.00  0.00    +0.000 HD
ENDBRANCH   5  22
BRANCH   3  24
ATOM     24  C   UNL     1       4.910   3.842  16.689  0.00  0.00    +0.000 C 
BRANCH  24  25
ATOM     25  S   UNL     1       6.204   5.080  16.304  0.00  0.00    +0.000 S 
BRANCH  25  26
ATOM     26  C   UNL     1       6.630   4.721  14.607  0.00  0.00    +0.000 A 
ATOM     27  C   UNL     1       5.853   3.758  13.950  0.00  0.00    +0.000 A 
ATOM     28  C   UNL     1       6.054   3.474  12.598  0.00  0.00    +0.000 A 
ATOM     29  C   UNL     1       7.036   4.154  11.885  0.00  0.00    +0.000 A 
ATOM     30  C   UNL     1       7.818   5.113  12.526  0.00  0.00    +0.000 A 
ATOM     31  C   UNL     1       7.613   5.398  13.881  0.00  0.00    +0.000 A 
ENDBRANCH  25  26
ENDBRANCH  24  25
ENDBRANCH   3  24
TORSDOF 7
ENDMDL
MODEL 5
REMARK VINA RESULT:      -7.1      3.231      6.867
REMARK  Name = 
REMARK  7 active torsions:
REMARK  status: ('A' for Active; 'I' for Inactive)
REMARK    1  A    between atoms: N_1  and  C_2
REMARK    2  A    between atoms: C_7  and  C_8
REMARK    3  A    between atoms: C_10  and  C_11
REMARK    4  A    between atoms: C_11  and  S_12
REMARK    5  A    between atoms: S_12  and  C_13
REMARK    6  A    between atoms: C_19  and  O_20
REMARK    7  A    between atoms: C_21  and  O_22
REMARK                            x       y       z     vdW  Elec       q    Type
REMARK                         _______ _______ _______ _____ _____    ______ ____
ROOT
ATOM      1  C   UNL     1       4.395   4.352  17.573  0.00  0.00    +0.000 C 
ATOM      2  N   UNL     1       3.038   4.758  17.144  0.00  0.00    +0.000 NA
ATOM      3  C   UNL     1       2.101   3.872  17.879  0.00  0.00    +0.000 C 
ATOM      4  C   UNL     1       2.819   2.505  17.865  0.00  0.00    +0.000 C 
ATOM      5  C   UNL     1       4.320   2.830  17.811  0.00  0.00    +0.000 C 
ATOM      6  H   UNL     1       2.938   4.563  16.147  0.00  0.00    +0.000 HD
ENDROOT
BRANCH   1  12
ATOM      7  C   UNL     1       7.525   5.123  13.785  0.00  0.00    +0.000 A 
ATOM      8  N   UNL     1       6.810   4.335  12.912  0.00  0.00    +0.000 N 
ATOM      9  C   UNL     1       5.665   3.687  13.315  0.00  0.00    +0.000 A 
ATOM     10  N   UNL     1       5.096   3.778  14.479  0.00  0.00    +0.000 NA
ATOM     11  C   UNL     1       5.766   4.570  15.380  0.00  0.00    +0.000 A 
ATOM     12  C   UNL     1       5.471   4.810  16.663  0.00  0.00    +0.000 A 
ATOM     13  C   UNL     1       6.595   5.689  17.031  0.00  0.00    +0.000 A 
ATOM     14  N   UNL     1       7.460   5.965  16.100  0.00  0.00    +0.000 NA
ATOM     15  C   UNL     1       6.998   5.256  15.023  0.00  0.00    +0.000 A 
ATOM     16  H   UNL     1       7.293   4.058  12.066  0.00  0.00    +0.000 HD
BRANCH   7  17
ATOM     17  N   UNL     1       8.705   5.720  13.399  0.00  0.00    +0.000 N 
ATOM     18  H   UNL     1       8.543   6.526  12.805  0.00  0.00    +0.000 HD
ATOM     19  H   UNL     1       9.246   5.972  14.230  0.00  0.00    +0.000 HD
ENDBRANCH   7  17
ENDBRANCH   1  12
BRANCH   4  20
ATOM     20  O   UNL     1       2.510   1.585  18.908  0.00  0.00    +0.000 OA
ATOM     21  H   UNL     1       2.506   2.042  19.765  0.00  0.00    +0.000 HD
ENDBRANCH   4  20
BRANCH   5  22
ATOM     22  O   UNL     1       4.947   2.499  19.053  0.00  0.00    +0.000 OA
ATOM     23  H   UNL     1       4.444   1.748  19.417  0.00  0.00    +0.000 HD
ENDBRANCH   5  22
BRANCH   3  24
ATOM     24  C   UNL     1       1.719   4.390  19.289  0.00  0.00    +0.000 C 
BRANCH  24  25
ATOM     25  S   UNL     1       3.008   5.530  19.918  0.00  0.00    +0.000 S 
BRANCH  25  26
ATOM     26  C   UNL     1       2.272   7.143  19.711  0.00  0.00    +0.000 A 
ATOM     27  C   UNL     1       2.394   7.737  18.448  0.00  0.00    +0.000 A 
ATOM     28  C   UNL     1       1.776   8.957  18.166  0.00  0.00    +0.000 A 
ATOM     29  C   UNL     1       1.025   9.597  19.147  0.00  0.00    +0.000 A 
ATOM     30  C   UNL     1       0.897   9.019  20.409  0.00  0.00    +0.000 A 
ATOM     31  C   UNL     1       1.515   7.794  20.689  0.00  0.00    +0.000 A 
ENDBRANCH  25  26
ENDBRANCH  24  25
ENDBRANCH   3  24
TORSDOF 7
ENDMDL
MODEL 6
REMARK VINA RESULT:      -7.1      2.210      4.151
REMARK  Name = 
REMARK  7 active torsions:
REMARK  status: ('A' for Active; 'I' for Inactive)
REMARK    1  A    between atoms: N_1  and  C_2
REMARK    2  A    between atoms: C_7  and  C_8
REMARK    3  A    between atoms: C_10  and  C_11
REMARK    4  A    between atoms: C_11  and  S_12
REMARK    5  A    between atoms: S_12  and  C_13
REMARK    6  A    between atoms: C_19  and  O_20
REMARK    7  A    between atoms: C_21  and  O_22
REMARK                            x       y       z     vdW  Elec       q    Type
REMARK                         _______ _______ _______ _____ _____    ______ ____
ROOT
ATOM      1  C   UNL     1       3.956   5.707  18.208  0.00  0.00    +0.000 C 
ATOM      2  N   UNL     1       3.759   4.994  16.926  0.00  0.00    +0.000 NA
ATOM      3  C   UNL     1       4.905   4.057  16.806  0.00  0.00    +0.000 C 
ATOM      4  C   UNL     1       6.093   4.876  17.356  0.00  0.00    +0.000 C 
ATOM      5  C   UNL     1       5.482   5.851  18.376  0.00  0.00    +0.000 C 
ATOM      6  H   UNL     1       3.825   5.668  16.162  0.00  0.00    +0.000 HD
ENDROOT
BRANCH   1  12
ATOM      7  C   UNL     1       0.934   9.422  19.555  0.00  0.00    +0.000 A 
ATOM      8  N   UNL     1       0.639   8.862  20.777  0.00  0.00    +0.000 N 
ATOM      9  C   UNL     1       1.174   7.652  21.152  0.00  0.00    +0.000 A 
ATOM     10  N   UNL     1       2.032   6.946  20.479  0.00  0.00    +0.000 NA
ATOM     11  C   UNL     1       2.372   7.476  19.258  0.00  0.00    +0.000 A 
ATOM     12  C   UNL     1       3.174   6.962  18.318  0.00  0.00    +0.000 A 
ATOM     13  C   UNL     1       3.066   8.003  17.282  0.00  0.00    +0.000 A 
ATOM     14  N   UNL     1       2.311   9.028  17.549  0.00  0.00    +0.000 NA
ATOM     15  C   UNL     1       1.816   8.737  18.793  0.00  0.00    +0.000 A 
ATOM     16  H   UNL     1      -0.166   9.246  21.257  0.00  0.00    +0.000 HD
BRANCH   7  17
ATOM     17  N   UNL     1       0.350  10.603  19.154  0.00  0.00    +0.000 N 
ATOM     18  H   UNL     1      -0.546  10.448  18.704  0.00  0.00    +0.000 HD
ATOM     19  H   UNL     1       0.260  11.229  19.958  0.00  0.00    +0.000 HD
ENDBRANCH   7  17
ENDBRANCH   1  12
BRANCH   4  20
ATOM     20  O   UNL     1       7.195   4.156  17.902  0.00  0.00    +0.000 OA
ATOM     21  H   UNL     1       7.415   3.400  17.333  0.00  0.00    +0.000 HD
ENDBRANCH   4  20
BRANCH   5  22
ATOM     22  O   UNL     1       5.863   5.486  19.705  0.00  0.00    +0.000 OA
ATOM     23  H   UNL     1       6.277   4.607  19.635  0.00  0.00    +0.000 HD
ENDBRANCH   5  22
BRANCH   3  24
ATOM     24  C   UNL     1       4.678   2.692  17.505  0.00  0.00    +0.000 C 
BRANCH  24  25
ATOM     25  S   UNL     1       2.910   2.219  17.415  0.00  0.00    +0.000 S 
BRANCH  25  26
ATOM     26  C   UNL     1       2.290   2.621  19.040  0.00  0.00    +0.000 A 
ATOM     27  C   UNL     1       3.122   2.322  20.127  0.00  0.00    +0.000 A 
ATOM     28  C   UNL     1       2.760   2.680  21.427  0.00  0.00    +0.000 A 
ATOM     29  C   UNL     1       1.560   3.345  21.655  0.00  0.00    +0.000 A 
ATOM     30  C   UNL     1       0.721   3.647  20.584  0.00  0.00    +0.000 A 
ATOM     31  C   UNL     1       1.086   3.290  19.280  0.00  0.00    +0.000 A 
ENDBRANCH  25  26
ENDBRANCH  24  25
ENDBRANCH   3  24
TORSDOF 7
ENDMDL
MODEL 7
REMARK VINA RESULT:      -7.0      1.679      2.797
REMARK  Name = 
REMARK  7 active torsions:
REMARK  status: ('A' for Active; 'I' for Inactive)
REMARK    1  A    between atoms: N_1  and  C_2
REMARK    2  A    between atoms: C_7  and  C_8
REMARK    3  A    between atoms: C_10  and  C_11
REMARK    4  A    between atoms: C_11  and  S_12
REMARK    5  A    between atoms: S_12  and  C_13
REMARK    6  A    between atoms: C_19  and  O_20
REMARK    7  A    between atoms: C_21  and  O_22
REMARK                            x       y       z     vdW  Elec       q    Type
REMARK                         _______ _______ _______ _____ _____    ______ ____
ROOT
ATOM      1  C   UNL     1       2.703   5.756  18.211  0.00  0.00    +0.000 C 
ATOM      2  N   UNL     1       4.156   5.538  18.388  0.00  0.00    +0.000 NA
ATOM      3  C   UNL     1       4.429   4.182  17.847  0.00  0.00    +0.000 C 
ATOM      4  C   UNL     1       3.202   3.363  18.306  0.00  0.00    +0.000 C 
ATOM      5  C   UNL     1       2.047   4.373  18.401  0.00  0.00    +0.000 C 
ATOM      6  H   UNL     1       4.367   5.526  19.386  0.00  0.00    +0.000 HD
ENDROOT
BRANCH   1  12
ATOM      7  C   UNL     1       1.148  10.084  20.109  0.00  0.00    +0.000 A 
ATOM      8  N   UNL     1       1.335  10.772  18.932  0.00  0.00    +0.000 N 
ATOM      9  C   UNL     1       1.825  10.144  17.811  0.00  0.00    +0.000 A 
ATOM     10  N   UNL     1       2.098   8.880  17.692  0.00  0.00    +0.000 NA
ATOM     11  C   UNL     1       1.909   8.147  18.838  0.00  0.00    +0.000 A 
ATOM     12  C   UNL     1       2.158   6.849  19.051  0.00  0.00    +0.000 A 
ATOM     13  C   UNL     1       1.773   6.736  20.468  0.00  0.00    +0.000 A 
ATOM     14  N   UNL     1       1.335   7.813  21.050  0.00  0.00    +0.000 NA
ATOM     15  C   UNL     1       1.422   8.760  20.064  0.00  0.00    +0.000 A 
ATOM     16  H   UNL     1       1.338  11.783  19.006  0.00  0.00    +0.000 HD
BRANCH   7  17
ATOM     17  N   UNL     1       0.717  10.726  21.248  0.00  0.00    +0.000 N 
ATOM     18  H   UNL     1      -0.063  11.346  21.059  0.00  0.00    +0.000 HD
ATOM     19  H   UNL     1       0.477  10.032  21.960  0.00  0.00    +0.000 HD
ENDBRANCH   7  17
ENDBRANCH   1  12
BRANCH   4  20
ATOM     20  O   UNL     1       2.847   2.218  17.537  0.00  0.00    +0.000 OA
ATOM     21  H   UNL     1       2.429   2.492  16.704  0.00  0.00    +0.000 HD
ENDBRANCH   4  20
BRANCH   5  22
ATOM     22  O   UNL     1       1.094   4.139  17.362  0.00  0.00    +0.000 OA
ATOM     23  H   UNL     1       1.603   4.097  16.532  0.00  0.00    +0.000 HD
ENDBRANCH   5  22
BRANCH   3  24
ATOM     24  C   UNL     1       4.694   4.154  16.321  0.00  0.00    +0.000 C 
BRANCH  24  25
ATOM     25  S   UNL     1       6.496   4.183  15.989  0.00  0.00    +0.000 S 
BRANCH  25  26
ATOM     26  C   UNL     1       7.091   5.492  17.046  0.00  0.00    +0.000 A 
ATOM     27  C   UNL     1       7.633   5.111  18.281  0.00  0.00    +0.000 A 
ATOM     28  C   UNL     1       8.203   6.056  19.137  0.00  0.00    +0.000 A 
ATOM     29  C   UNL     1       8.240   7.396  18.765  0.00  0.00    +0.000 A 
ATOM     30  C   UNL     1       7.703   7.790  17.540  0.00  0.00    +0.000 A 
ATOM     31  C   UNL     1       7.134   6.841  16.682  0.00  0.00    +0.000 A 
ENDBRANCH  25  26
ENDBRANCH  24  25
ENDBRANCH   3  24
TORSDOF 7
ENDMDL
MODEL 8
REMARK VINA RESULT:      -6.9      1.616      2.661
REMARK  Name = 
REMARK  7 active torsions:
REMARK  status: ('A' for Active; 'I' for Inactive)
REMARK    1  A    between atoms: N_1  and  C_2
REMARK    2  A    between atoms: C_7  and  C_8
REMARK    3  A    between atoms: C_10  and  C_11
REMARK    4  A    between atoms: C_11  and  S_12
REMARK    5  A    between atoms: S_12  and  C_13
REMARK    6  A    between atoms: C_19  and  O_20
REMARK    7  A    between atoms: C_21  and  O_22
REMARK                            x       y       z     vdW  Elec       q    Type
REMARK                         _______ _______ _______ _____ _____    ______ ____
ROOT
ATOM      1  C   UNL     1       3.311   5.777  18.813  0.00  0.00    +0.000 C 
ATOM      2  N   UNL     1       4.705   6.222  18.591  0.00  0.00    +0.000 NA
ATOM      3  C   UNL     1       5.499   4.980  18.406  0.00  0.00    +0.000 C 
ATOM      4  C   UNL     1       4.881   4.006  19.433  0.00  0.00    +0.000 C 
ATOM      5  C   UNL     1       3.415   4.445  19.583  0.00  0.00    +0.000 C 
ATOM      6  H   UNL     1       5.041   6.685  19.436  0.00  0.00    +0.000 HD
ENDROOT
BRANCH   1  12
ATOM      7  C   UNL     1       0.786   9.899  19.988  0.00  0.00    +0.000 A 
ATOM      8  N   UNL     1       1.129  10.551  18.825  0.00  0.00    +0.000 N 
ATOM      9  C   UNL     1       1.937   9.953  17.886  0.00  0.00    +0.000 A 
ATOM     10  N   UNL     1       2.403   8.743  17.929  0.00  0.00    +0.000 NA
ATOM     11  C   UNL     1       2.072   8.044  19.066  0.00  0.00    +0.000 A 
ATOM     12  C   UNL     1       2.447   6.812  19.429  0.00  0.00    +0.000 A 
ATOM     13  C   UNL     1       1.780   6.709  20.738  0.00  0.00    +0.000 A 
ATOM     14  N   UNL     1       1.078   7.733  21.126  0.00  0.00    +0.000 NA
ATOM     15  C   UNL     1       1.246   8.633  20.108  0.00  0.00    +0.000 A 
ATOM     16  H   UNL     1       0.974  11.553  18.817  0.00  0.00    +0.000 HD
BRANCH   7  17
ATOM     17  N   UNL     1       0.029  10.521  20.956  0.00  0.00    +0.000 N 
ATOM     18  H   UNL     1      -0.183  11.482  20.710  0.00  0.00    +0.000 HD
ATOM     19  H   UNL     1      -0.825   9.982  21.119  0.00  0.00    +0.000 HD
ENDBRANCH   7  17
ENDBRANCH   1  12
BRANCH   4  20
ATOM     20  O   UNL     1       4.994   2.610  19.172  0.00  0.00    +0.000 OA
ATOM     21  H   UNL     1       5.251   2.463  18.247  0.00  0.00    +0.000 HD
ENDBRANCH   4  20
BRANCH   5  22
ATOM     22  O   UNL     1       2.542   3.475  18.999  0.00  0.00    +0.000 OA
ATOM     23  H   UNL     1       1.716   3.508  19.517  0.00  0.00    +0.000 HD
ENDBRANCH   5  22
BRANCH   3  24
ATOM     24  C   UNL     1       5.521   4.457  16.947  0.00  0.00    +0.000 C 
BRANCH  24  25
ATOM     25  S   UNL     1       6.933   5.184  16.033  0.00  0.00    +0.000 S 
BRANCH  25  26
ATOM     26  C   UNL     1       6.663   4.641  14.354  0.00  0.00    +0.000 A 
ATOM     27  C   UNL     1       7.618   5.024  13.404  0.00  0.00    +0.000 A 
ATOM     28  C   UNL     1       7.539   4.574  12.084  0.00  0.00    +0.000 A 
ATOM     29  C   UNL     1       6.500   3.732  11.700  0.00  0.00    +0.000 A 
ATOM     30  C   UNL     1       5.541   3.345  12.634  0.00  0.00    +0.000 A 
ATOM     31  C   UNL     1       5.624   3.795  13.957  0.00  0.00    +0.000 A 
ENDBRANCH  25  26
ENDBRANCH  24  25
ENDBRANCH   3  24
TORSDOF 7
ENDMDL
MODEL 9
REMARK VINA RESULT:      -6.9      2.268      4.367
REMARK  Name = 
REMARK  7 active torsions:
REMARK  status: ('A' for Active; 'I' for Inactive)
REMARK    1  A    between atoms: N_1  and  C_2
REMARK    2  A    between atoms: C_7  and  C_8
REMARK    3  A    between atoms: C_10  and  C_11
REMARK    4  A    between atoms: C_11  and  S_12
REMARK    5  A    between atoms: S_12  and  C_13
REMARK    6  A    between atoms: C_19  and  O_20
REMARK    7  A    between atoms: C_21  and  O_22
REMARK                            x       y       z     vdW  Elec       q    Type
REMARK                         _______ _______ _______ _____ _____    ______ ____
ROOT
ATOM      1  C   UNL     1       3.512   5.646  18.806  0.00  0.00    +0.000 C 
ATOM      2  N   UNL     1       3.085   5.204  17.460  0.00  0.00    +0.000 NA
ATOM      3  C   UNL     1       4.275   4.556  16.853  0.00  0.00    +0.000 C 
ATOM      4  C   UNL     1       5.445   5.449  17.319  0.00  0.00    +0.000 C 
ATOM      5  C   UNL     1       4.996   6.042  18.665  0.00  0.00    +0.000 C 
ATOM      6  H   UNL     1       2.858   6.028  16.901  0.00  0.00    +0.000 HD
ENDROOT
BRANCH   1  12
ATOM      7  C   UNL     1       0.872   9.717  19.904  0.00  0.00    +0.000 A 
ATOM      8  N   UNL     1       1.168  10.342  18.714  0.00  0.00    +0.000 N 
ATOM      9  C   UNL     1       1.977   9.741  17.777  0.00  0.00    +0.000 A 
ATOM     10  N   UNL     1       2.486   8.549  17.849  0.00  0.00    +0.000 NA
ATOM     11  C   UNL     1       2.201   7.877  19.013  0.00  0.00    +0.000 A 
ATOM     12  C   UNL     1       2.626   6.671  19.407  0.00  0.00    +0.000 A 
ATOM     13  C   UNL     1       1.989   6.588  20.733  0.00  0.00    +0.000 A 
ATOM     14  N   UNL     1       1.261   7.600  21.104  0.00  0.00    +0.000 NA
ATOM     15  C   UNL     1       1.378   8.471  20.054  0.00  0.00    +0.000 A 
ATOM     16  H   UNL     1       0.979  11.337  18.676  0.00  0.00    +0.000 HD
BRANCH   7  17
ATOM     17  N   UNL     1       0.114  10.344  20.867  0.00  0.00    +0.000 N 
ATOM     18  H   UNL     1      -0.246  11.236  20.543  0.00  0.00    +0.000 HD
ATOM     19  H   UNL     1      -0.642   9.722  21.164  0.00  0.00    +0.000 HD
ENDBRANCH   7  17
ENDBRANCH   1  12
BRANCH   4  20
ATOM     20  O   UNL     1       6.737   4.856  17.403  0.00  0.00    +0.000 OA
ATOM     21  H   UNL     1       7.232   5.237  18.147  0.00  0.00    +0.000 HD
ENDBRANCH   4  20
BRANCH   5  22
ATOM     22  O   UNL     1       5.756   5.478  19.736  0.00  0.00    +0.000 OA
ATOM     23  H   UNL     1       5.477   5.949  20.543  0.00  0.00    +0.000 HD
ENDBRANCH   5  22
BRANCH   3  24
ATOM     24  C   UNL     1       4.424   3.054  17.207  0.00  0.00    +0.000 C 
BRANCH  24  25
ATOM     25  S   UNL     1       2.776   2.258  17.301  0.00  0.00    +0.000 S 
BRANCH  25  26
ATOM     26  C   UNL     1       2.311   2.468  19.012  0.00  0.00    +0.000 A 
ATOM     27  C   UNL     1       3.328   2.332  19.966  0.00  0.00    +0.000 A 
ATOM     28  C   UNL     1       3.079   2.565  21.320  0.00  0.00    +0.000 A 
ATOM     29  C   UNL     1       1.805   2.941  21.736  0.00  0.00    +0.000 A 
ATOM     30  C   UNL     1       0.784   3.079  20.798  0.00  0.00    +0.000 A 
ATOM     31  C   UNL     1       1.036   2.847  19.441  0.00  0.00    +0.000 A 
ENDBRANCH  25  26
ENDBRANCH  24  25
ENDBRANCH   3  24
TORSDOF 7
ENDMDL
