MODEL 1
REMARK VINA RESULT:      -7.4      0.000      0.000
REMARK  Name = 
REMARK  5 active torsions:
REMARK  status: ('A' for Active; 'I' for Inactive)
REMARK    1  A    between atoms: C_1  and  C_2
REMARK    2  A    between atoms: C_2  and  C_3
REMARK    3  A    between atoms: C_2  and  C_4
REMARK    4  A    between atoms: C_2  and  C_5
REMARK    5  A    between atoms: C_8  and  C_9
REMARK                            x       y       z     vdW  Elec       q    Type
REMARK                         _______ _______ _______ _____ _____    ______ ____
ROOT
ATOM      1  C   UNL     1       0.910   9.545  19.833  0.00  0.00    +0.000 A 
ATOM      2  C   UNL     1       1.312   9.665  18.494  0.00  0.00    +0.000 A 
ATOM      3  C   UNL     1       2.099   8.686  17.875  0.00  0.00    +0.000 A 
ATOM      4  C   UNL     1       2.527   7.540  18.561  0.00  0.00    +0.000 A 
ATOM      5  C   UNL     1       2.118   7.417  19.899  0.00  0.00    +0.000 A 
ATOM      6  C   UNL     1       1.330   8.397  20.522  0.00  0.00    +0.000 A 
ENDROOT
BRANCH   4   7
ATOM      7  C   UNL     1       3.381   6.533  17.910  0.00  0.00    +0.000 A 
ATOM      8  N   UNL     1       2.904   5.276  17.784  0.00  0.00    +0.000 NA
ATOM      9  N   UNL     1       3.640   4.332  17.129  0.00  0.00    +0.000 NA
ATOM     10  C   UNL     1       4.828   4.668  16.615  0.00  0.00    +0.000 A 
ATOM     11  C   UNL     1       5.590   3.740  15.920  0.00  0.00    +0.000 A 
ATOM     12  C   UNL     1       6.808   4.131  15.404  0.00  0.00    +0.000 A 
ATOM     13  N   UNL     1       7.301   5.373  15.547  0.00  0.00    +0.000 NA
ATOM     14  C   UNL     1       6.528   6.255  16.231  0.00  0.00    +0.000 A 
ATOM     15  C   UNL     1       5.291   5.977  16.783  0.00  0.00    +0.000 A 
ATOM     16  N   UNL     1       4.579   6.920  17.430  0.00  0.00    +0.000 NA
ENDBRANCH   4   7
BRANCH   1  18
ATOM     17  C   UNL     1      -1.220  10.987  19.734  0.00  0.00    +0.000 C 
ATOM     18  C   UNL     1       0.049  10.610  20.533  0.00  0.00    +0.000 C 
ATOM     19  C   UNL     1       0.866  11.904  20.734  0.00  0.00    +0.000 C 
ATOM     20  C   UNL     1      -0.415  10.091  21.911  0.00  0.00    +0.000 C 
ENDBRANCH   1  18
TORSDOF 2
ENDMDL
MODEL 2
REMARK VINA RESULT:      -7.3      0.076      1.440
REMARK  Name = 
REMARK  5 active torsions:
REMARK  status: ('A' for Active; 'I' for Inactive)
REMARK    1  A    between atoms: C_1  and  C_2
REMARK    2  A    between atoms: C_2  and  C_3
REMARK    3  A    between atoms: C_2  and  C_4
REMARK    4  A    between atoms: C_2  and  C_5
REMARK    5  A    between atoms: C_8  and  C_9
REMARK                            x       y       z     vdW  Elec       q    Type
REMARK                         _______ _______ _______ _____ _____    ______ ____
ROOT
ATOM      1  C   UNL     1       0.893   9.496  19.866  0.00  0.00    +0.000 A 
ATOM      2  C   UNL     1       1.364   8.361  20.543  0.00  0.00    +0.000 A 
ATOM      3  C   UNL     1       2.184   7.418  19.911  0.00  0.00    +0.000 A 
ATOM      4  C   UNL     1       2.573   7.558  18.571  0.00  0.00    +0.000 A 
ATOM      5  C   UNL     1       2.107   8.697  17.895  0.00  0.00    +0.000 A 
ATOM      6  C   UNL     1       1.285   9.644  18.526  0.00  0.00    +0.000 A 
ENDROOT
BRANCH   4   7
ATOM      7  C   UNL     1       3.408   6.544  17.906  0.00  0.00    +0.000 A 
ATOM      8  N   UNL     1       2.907   5.297  17.766  0.00  0.00    +0.000 NA
ATOM      9  N   UNL     1       3.626   4.347  17.099  0.00  0.00    +0.000 NA
ATOM     10  C   UNL     1       4.819   4.668  16.587  0.00  0.00    +0.000 A 
ATOM     11  C   UNL     1       5.563   3.735  15.879  0.00  0.00    +0.000 A 
ATOM     12  C   UNL     1       6.787   4.110  15.366  0.00  0.00    +0.000 A 
ATOM     13  N   UNL     1       7.303   5.341  15.523  0.00  0.00    +0.000 NA
ATOM     14  C   UNL     1       6.547   6.228  16.219  0.00  0.00    +0.000 A 
ATOM     15  C   UNL     1       5.305   5.967  16.769  0.00  0.00    +0.000 A 
ATOM     16  N   UNL     1       4.611   6.914  17.429  0.00  0.00    +0.000 NA
ENDBRANCH   4   7
BRANCH   1  18
ATOM     17  C   UNL     1       0.693  11.898  20.767  0.00  0.00    +0.000 C 
ATOM     18  C   UNL     1      -0.012  10.541  20.540  0.00  0.00    +0.000 C 
ATOM     19  C   UNL     1      -0.477  10.028  21.919  0.00  0.00    +0.000 C 
ATOM     20  C   UNL     1      -1.253  10.810  19.661  0.00  0.00    +0.000 C 
ENDBRANCH   1  18
TORSDOF 2
ENDMDL
MODEL 3
REMARK VINA RESULT:      -7.3      0.305      1.005
REMARK  Name = 
REMARK  5 active torsions:
REMARK  status: ('A' for Active; 'I' for Inactive)
REMARK    1  A    between atoms: C_1  and  C_2
REMARK    2  A    between atoms: C_2  and  C_3
REMARK    3  A    between atoms: C_2  and  C_4
REMARK    4  A    between atoms: C_2  and  C_5
REMARK    5  A    between atoms: C_8  and  C_9
REMARK                            x       y       z     vdW  Elec       q    Type
REMARK                         _______ _______ _______ _____ _____    ______ ____
ROOT
ATOM      1  C   UNL     1       0.795   9.835  19.871  0.00  0.00    +0.000 A 
ATOM      2  C   UNL     1       1.192   9.905  18.527  0.00  0.00    +0.000 A 
ATOM      3  C   UNL     1       1.967   8.899  17.938  0.00  0.00    +0.000 A 
ATOM      4  C   UNL     1       2.390   7.774  18.661  0.00  0.00    +0.000 A 
ATOM      5  C   UNL     1       1.987   7.701  20.004  0.00  0.00    +0.000 A 
ATOM      6  C   UNL     1       1.210   8.708  20.597  0.00  0.00    +0.000 A 
ENDROOT
BRANCH   4   7
ATOM      7  C   UNL     1       3.233   6.739  18.041  0.00  0.00    +0.000 A 
ATOM      8  N   UNL     1       2.726   5.493  17.916  0.00  0.00    +0.000 NA
ATOM      9  N   UNL     1       3.453   4.523  17.289  0.00  0.00    +0.000 NA
ATOM     10  C   UNL     1       4.661   4.823  16.799  0.00  0.00    +0.000 A 
ATOM     11  C   UNL     1       5.414   3.868  16.132  0.00  0.00    +0.000 A 
ATOM     12  C   UNL     1       6.654   4.222  15.641  0.00  0.00    +0.000 A 
ATOM     13  N   UNL     1       7.176   5.452  15.783  0.00  0.00    +0.000 NA
ATOM     14  C   UNL     1       6.410   6.361  16.440  0.00  0.00    +0.000 A 
ATOM     15  C   UNL     1       5.153   6.121  16.965  0.00  0.00    +0.000 A 
ATOM     16  N   UNL     1       4.451   7.089  17.585  0.00  0.00    +0.000 NA
ENDBRANCH   4   7
BRANCH   1  18
ATOM     17  C   UNL     1       0.706  12.266  20.710  0.00  0.00    +0.000 C 
ATOM     18  C   UNL     1      -0.053  10.930  20.538  0.00  0.00    +0.000 C 
ATOM     19  C   UNL     1      -0.502  10.472  21.941  0.00  0.00    +0.000 C 
ATOM     20  C   UNL     1      -1.305  11.222  19.682  0.00  0.00    +0.000 C 
ENDBRANCH   1  18
TORSDOF 2
ENDMDL
MODEL 4
REMARK VINA RESULT:      -7.2      3.338      7.953
REMARK  Name = 
REMARK  5 active torsions:
REMARK  status: ('A' for Active; 'I' for Inactive)
REMARK    1  A    between atoms: C_1  and  C_2
REMARK    2  A    between atoms: C_2  and  C_3
REMARK    3  A    between atoms: C_2  and  C_4
REMARK    4  A    between atoms: C_2  and  C_5
REMARK    5  A    between atoms: C_8  and  C_9
REMARK                            x       y       z     vdW  Elec       q    Type
REMARK                         _______ _______ _______ _____ _____    ______ ____
ROOT
ATOM      1  C   UNL     1       2.987   4.658  18.913  0.00  0.00    +0.000 A 
ATOM      2  C   UNL     1       3.140   5.833  18.162  0.00  0.00    +0.000 A 
ATOM      3  C   UNL     1       2.608   7.054  18.595  0.00  0.00    +0.000 A 
ATOM      4  C   UNL     1       1.894   7.164  19.797  0.00  0.00    +0.000 A 
ATOM      5  C   UNL     1       1.748   5.989  20.552  0.00  0.00    +0.000 A 
ATOM      6  C   UNL     1       2.280   4.764  20.121  0.00  0.00    +0.000 A 
ENDROOT
BRANCH   4   7
ATOM      7  C   UNL     1       1.311   8.446  20.227  0.00  0.00    +0.000 A 
ATOM      8  N   UNL     1       1.302   9.470  19.346  0.00  0.00    +0.000 NA
ATOM      9  N   UNL     1       0.712  10.653  19.685  0.00  0.00    +0.000 NA
ATOM     10  C   UNL     1       0.145  10.780  20.890  0.00  0.00    +0.000 A 
ATOM     11  C   UNL     1      -0.487  11.960  21.256  0.00  0.00    +0.000 A 
ATOM     12  C   UNL     1      -1.062  12.046  22.507  0.00  0.00    +0.000 A 
ATOM     13  N   UNL     1      -1.035  11.040  23.398  0.00  0.00    +0.000 NA
ATOM     14  C   UNL     1      -0.410   9.901  23.005  0.00  0.00    +0.000 A 
ATOM     15  C   UNL     1       0.191   9.699  21.776  0.00  0.00    +0.000 A 
ATOM     16  N   UNL     1       0.773   8.526  21.458  0.00  0.00    +0.000 NA
ENDBRANCH   4   7
BRANCH   1  18
ATOM     17  C   UNL     1       2.468   2.287  18.059  0.00  0.00    +0.000 C 
ATOM     18  C   UNL     1       3.560   3.307  18.454  0.00  0.00    +0.000 C 
ATOM     19  C   UNL     1       4.393   2.672  19.587  0.00  0.00    +0.000 C 
ATOM     20  C   UNL     1       4.466   3.510  17.220  0.00  0.00    +0.000 C 
ENDBRANCH   1  18
TORSDOF 2
ENDMDL
MODEL 5
REMARK VINA RESULT:      -7.2      3.279      7.937
REMARK  Name = 
REMARK  5 active torsions:
REMARK  status: ('A' for Active; 'I' for Inactive)
REMARK    1  A    between atoms: C_1  and  C_2
REMARK    2  A    between atoms: C_2  and  C_3
REMARK    3  A    between atoms: C_2  and  C_4
REMARK    4  A    between atoms: C_2  and  C_5
REMARK    5  A    between atoms: C_8  and  C_9
REMARK                            x       y       z     vdW  Elec       q    Type
REMARK                         _______ _______ _______ _____ _____    ______ ____
ROOT
ATOM      1  C   UNL     1       3.031   4.773  18.728  0.00  0.00    +0.000 A 
ATOM      2  C   UNL     1       3.166   5.970  18.009  0.00  0.00    +0.000 A 
ATOM      3  C   UNL     1       2.643   7.177  18.489  0.00  0.00    +0.000 A 
ATOM      4  C   UNL     1       1.956   7.250  19.709  0.00  0.00    +0.000 A 
ATOM      5  C   UNL     1       1.827   6.053  20.432  0.00  0.00    +0.000 A 
ATOM      6  C   UNL     1       2.350   4.842  19.953  0.00  0.00    +0.000 A 
ENDROOT
BRANCH   4   7
ATOM      7  C   UNL     1       1.381   8.518  20.189  0.00  0.00    +0.000 A 
ATOM      8  N   UNL     1       1.417   9.587  19.365  0.00  0.00    +0.000 NA
ATOM      9  N   UNL     1       0.837  10.761  19.749  0.00  0.00    +0.000 NA
ATOM     10  C   UNL     1       0.235  10.835  20.941  0.00  0.00    +0.000 A 
ATOM     11  C   UNL     1      -0.388  12.005  21.351  0.00  0.00    +0.000 A 
ATOM     12  C   UNL     1      -1.000  12.036  22.587  0.00  0.00    +0.000 A 
ATOM     13  N   UNL     1      -1.018  10.983  23.423  0.00  0.00    +0.000 NA
ATOM     14  C   UNL     1      -0.401   9.855  22.988  0.00  0.00    +0.000 A 
ATOM     15  C   UNL     1       0.235   9.708  21.769  0.00  0.00    +0.000 A 
ATOM     16  N   UNL     1       0.807   8.543  21.407  0.00  0.00    +0.000 NA
ENDBRANCH   4   7
BRANCH   1  18
ATOM     17  C   UNL     1       4.592   3.606  17.048  0.00  0.00    +0.000 C 
ATOM     18  C   UNL     1       3.594   3.437  18.216  0.00  0.00    +0.000 C 
ATOM     19  C   UNL     1       2.447   2.535  17.714  0.00  0.00    +0.000 C 
ATOM     20  C   UNL     1       4.341   2.709  19.356  0.00  0.00    +0.000 C 
ENDBRANCH   1  18
TORSDOF 2
ENDMDL
MODEL 6
REMARK VINA RESULT:      -7.1      2.966      7.840
REMARK  Name = 
REMARK  5 active torsions:
REMARK  status: ('A' for Active; 'I' for Inactive)
REMARK    1  A    between atoms: C_1  and  C_2
REMARK    2  A    between atoms: C_2  and  C_3
REMARK    3  A    between atoms: C_2  and  C_4
REMARK    4  A    between atoms: C_2  and  C_5
REMARK    5  A    between atoms: C_8  and  C_9
REMARK                            x       y       z     vdW  Elec       q    Type
REMARK                         _______ _______ _______ _____ _____    ______ ____
ROOT
ATOM      1  C   UNL     1       4.147   5.631  17.647  0.00  0.00    +0.000 A 
ATOM      2  C   UNL     1       3.326   5.306  18.737  0.00  0.00    +0.000 A 
ATOM      3  C   UNL     1       2.505   6.263  19.347  0.00  0.00    +0.000 A 
ATOM      4  C   UNL     1       2.465   7.592  18.903  0.00  0.00    +0.000 A 
ATOM      5  C   UNL     1       3.281   7.915  17.807  0.00  0.00    +0.000 A 
ATOM      6  C   UNL     1       4.105   6.959  17.194  0.00  0.00    +0.000 A 
ENDROOT
BRANCH   4   7
ATOM      7  C   UNL     1       1.623   8.598  19.573  0.00  0.00    +0.000 A 
ATOM      8  N   UNL     1       0.991   9.514  18.807  0.00  0.00    +0.000 NA
ATOM      9  N   UNL     1       0.152  10.421  19.386  0.00  0.00    +0.000 NA
ATOM     10  C   UNL     1      -0.037  10.387  20.710  0.00  0.00    +0.000 A 
ATOM     11  C   UNL     1      -0.904  11.276  21.327  0.00  0.00    +0.000 A 
ATOM     12  C   UNL     1      -1.072  11.203  22.694  0.00  0.00    +0.000 A 
ATOM     13  N   UNL     1      -0.427  10.311  23.466  0.00  0.00    +0.000 NA
ATOM     14  C   UNL     1       0.412   9.456  22.828  0.00  0.00    +0.000 A 
ATOM     15  C   UNL     1       0.650   9.431  21.466  0.00  0.00    +0.000 A 
ATOM     16  N   UNL     1       1.485   8.532  20.911  0.00  0.00    +0.000 NA
ENDBRANCH   4   7
BRANCH   1  18
ATOM     17  C   UNL     1       6.462   4.508  17.605  0.00  0.00    +0.000 C 
ATOM     18  C   UNL     1       5.058   4.597  16.965  0.00  0.00    +0.000 C 
ATOM     19  C   UNL     1       5.253   4.961  15.478  0.00  0.00    +0.000 C 
ATOM     20  C   UNL     1       4.422   3.192  17.057  0.00  0.00    +0.000 C 
ENDBRANCH   1  18
TORSDOF 2
ENDMDL
MODEL 7
REMARK VINA RESULT:      -7.1      3.204      7.994
REMARK  Name = 
REMARK  5 active torsions:
REMARK  status: ('A' for Active; 'I' for Inactive)
REMARK    1  A    between atoms: C_1  and  C_2
REMARK    2  A    between atoms: C_2  and  C_3
REMARK    3  A    between atoms: C_2  and  C_4
REMARK    4  A    between atoms: C_2  and  C_5
REMARK    5  A    between atoms: C_8  and  C_9
REMARK                            x       y       z     vdW  Elec       q    Type
REMARK                         _______ _______ _______ _____ _____    ______ ____
ROOT
ATOM      1  C   UNL     1       3.763   6.163  17.992  0.00  0.00    +0.000 A 
ATOM      2  C   UNL     1       3.127   5.978  19.229  0.00  0.00    +0.000 A 
ATOM      3  C   UNL     1       2.276   6.950  19.768  0.00  0.00    +0.000 A 
ATOM      4  C   UNL     1       2.018   8.157  19.103  0.00  0.00    +0.000 A 
ATOM      5  C   UNL     1       2.649   8.339  17.861  0.00  0.00    +0.000 A 
ATOM      6  C   UNL     1       3.502   7.366  17.318  0.00  0.00    +0.000 A 
ENDROOT
BRANCH   4   7
ATOM      7  C   UNL     1       1.147   9.186  19.695  0.00  0.00    +0.000 A 
ATOM      8  N   UNL     1       0.601  10.109  18.873  0.00  0.00    +0.000 NA
ATOM      9  N   UNL     1      -0.262  11.039  19.375  0.00  0.00    +0.000 NA
ATOM     10  C   UNL     1      -0.560  11.021  20.679  0.00  0.00    +0.000 A 
ATOM     11  C   UNL     1      -1.454  11.935  21.217  0.00  0.00    +0.000 A 
ATOM     12  C   UNL     1      -1.735  11.877  22.566  0.00  0.00    +0.000 A 
ATOM     13  N   UNL     1      -1.175  10.978  23.394  0.00  0.00    +0.000 NA
ATOM     14  C   UNL     1      -0.306  10.099  22.833  0.00  0.00    +0.000 A 
ATOM     15  C   UNL     1       0.041  10.057  21.495  0.00  0.00    +0.000 A 
ATOM     16  N   UNL     1       0.899   9.135  21.017  0.00  0.00    +0.000 NA
ENDBRANCH   4   7
BRANCH   1  18
ATOM     17  C   UNL     1       5.362   5.573  16.064  0.00  0.00    +0.000 C 
ATOM     18  C   UNL     1       4.704   5.110  17.383  0.00  0.00    +0.000 C 
ATOM     19  C   UNL     1       3.923   3.815  17.077  0.00  0.00    +0.000 C 
ATOM     20  C   UNL     1       5.843   4.785  18.375  0.00  0.00    +0.000 C 
ENDBRANCH   1  18
TORSDOF 2
ENDMDL
MODEL 8
REMARK VINA RESULT:      -7.1      3.211      7.930
REMARK  Name = 
REMARK  5 active torsions:
REMARK  status: ('A' for Active; 'I' for Inactive)
REMARK    1  A    between atoms: C_1  and  C_2
REMARK    2  A    between atoms: C_2  and  C_3
REMARK    3  A    between atoms: C_2  and  C_4
REMARK    4  A    between atoms: C_2  and  C_5
REMARK    5  A    between atoms: C_8  and  C_9
REMARK                            x       y       z     vdW  Elec       q    Type
REMARK                         _______ _______ _______ _____ _____    ______ ____
ROOT
ATOM      1  C   UNL     1       3.667   6.079  18.007  0.00  0.00    +0.000 A 
ATOM      2  C   UNL     1       3.434   7.291  17.341  0.00  0.00    +0.000 A 
ATOM      3  C   UNL     1       2.627   8.290  17.899  0.00  0.00    +0.000 A 
ATOM      4  C   UNL     1       2.009   8.129  19.148  0.00  0.00    +0.000 A 
ATOM      5  C   UNL     1       2.248   6.918  19.817  0.00  0.00    +0.000 A 
ATOM      6  C   UNL     1       3.057   5.915  19.260  0.00  0.00    +0.000 A 
ENDROOT
BRANCH   4   7
ATOM      7  C   UNL     1       1.135   9.172  19.710  0.00  0.00    +0.000 A 
ATOM      8  N   UNL     1       0.600  10.080  18.865  0.00  0.00    +0.000 NA
ATOM      9  N   UNL     1      -0.266  11.022  19.339  0.00  0.00    +0.000 NA
ATOM     10  C   UNL     1      -0.577  11.031  20.640  0.00  0.00    +0.000 A 
ATOM     11  C   UNL     1      -1.474  11.958  21.150  0.00  0.00    +0.000 A 
ATOM     12  C   UNL     1      -1.768  11.928  22.497  0.00  0.00    +0.000 A 
ATOM     13  N   UNL     1      -1.220  11.044  23.349  0.00  0.00    +0.000 NA
ATOM     14  C   UNL     1      -0.348  10.151  22.815  0.00  0.00    +0.000 A 
ATOM     15  C   UNL     1       0.013  10.082  21.481  0.00  0.00    +0.000 A 
ATOM     16  N   UNL     1       0.873   9.148  21.030  0.00  0.00    +0.000 NA
ENDBRANCH   4   7
BRANCH   1  18
ATOM     17  C   UNL     1       3.755   3.688  17.059  0.00  0.00    +0.000 C 
ATOM     18  C   UNL     1       4.548   4.968  17.411  0.00  0.00    +0.000 C 
ATOM     19  C   UNL     1       5.647   4.565  18.416  0.00  0.00    +0.000 C 
ATOM     20  C   UNL     1       5.216   5.465  16.111  0.00  0.00    +0.000 C 
ENDBRANCH   1  18
TORSDOF 2
ENDMDL
MODEL 9
REMARK VINA RESULT:      -7.1      0.494      1.177
REMARK  Name = 
REMARK  5 active torsions:
REMARK  status: ('A' for Active; 'I' for Inactive)
REMARK    1  A    between atoms: C_1  and  C_2
REMARK    2  A    between atoms: C_2  and  C_3
REMARK    3  A    between atoms: C_2  and  C_4
REMARK    4  A    between atoms: C_2  and  C_5
REMARK    5  A    between atoms: C_8  and  C_9
REMARK                            x       y       z     vdW  Elec       q    Type
REMARK                         _______ _______ _______ _____ _____    ______ ____
ROOT
ATOM      1  C   UNL     1       0.719   9.940  19.934  0.00  0.00    +0.000 A 
ATOM      2  C   UNL     1       1.133   8.813  20.658  0.00  0.00    +0.000 A 
ATOM      3  C   UNL     1       1.905   7.805  20.067  0.00  0.00    +0.000 A 
ATOM      4  C   UNL     1       2.299   7.870  18.722  0.00  0.00    +0.000 A 
ATOM      5  C   UNL     1       1.889   9.002  18.000  0.00  0.00    +0.000 A 
ATOM      6  C   UNL     1       1.116  10.013  18.590  0.00  0.00    +0.000 A 
ENDROOT
BRANCH   4   7
ATOM      7  C   UNL     1       3.082   6.789  18.102  0.00  0.00    +0.000 A 
ATOM      8  N   UNL     1       2.591   5.531  18.157  0.00  0.00    +0.000 NA
ATOM      9  N   UNL     1       3.256   4.514  17.537  0.00  0.00    +0.000 NA
ATOM     10  C   UNL     1       4.389   4.778  16.877  0.00  0.00    +0.000 A 
ATOM     11  C   UNL     1       5.076   3.772  16.213  0.00  0.00    +0.000 A 
ATOM     12  C   UNL     1       6.238   4.090  15.542  0.00  0.00    +0.000 A 
ATOM     13  N   UNL     1       6.747   5.334  15.504  0.00  0.00    +0.000 NA
ATOM     14  C   UNL     1       6.048   6.293  16.163  0.00  0.00    +0.000 A 
ATOM     15  C   UNL     1       4.869   6.091  16.859  0.00  0.00    +0.000 A 
ATOM     16  N   UNL     1       4.228   7.106  17.469  0.00  0.00    +0.000 NA
ENDBRANCH   4   7
BRANCH   1  18
ATOM     17  C   UNL     1      -1.377  11.419  19.722  0.00  0.00    +0.000 C 
ATOM     18  C   UNL     1      -0.132  11.056  20.564  0.00  0.00    +0.000 C 
ATOM     19  C   UNL     1       0.709  12.341  20.718  0.00  0.00    +0.000 C 
ATOM     20  C   UNL     1      -0.633  10.615  21.957  0.00  0.00    +0.000 C 
ENDBRANCH   1  18
TORSDOF 2
ENDMDL
