MODEL 1
REMARK VINA RESULT:      -8.4      0.000      0.000
REMARK  Name = 
REMARK  4 active torsions:
REMARK  status: ('A' for Active; 'I' for Inactive)
REMARK    1  A    between atoms: C_1  and  C_2
REMARK    2  A    between atoms: N_5  and  S_6
REMARK    3  A    between atoms: S_6  and  C_9
REMARK    4  A    between atoms: N_20  and  C_21
REMARK                            x       y       z     vdW  Elec       q    Type
REMARK                         _______ _______ _______ _____ _____    ______ ____
ROOT
ATOM      1  C   UNL     1       1.369   7.941  20.560  0.00  0.00    +0.000 A 
ATOM      2  C   UNL     1       2.203   8.148  19.450  0.00  0.00    +0.000 A 
ATOM      3  C   UNL     1       2.835   7.060  18.825  0.00  0.00    +0.000 A 
ATOM      4  C   UNL     1       2.658   5.787  19.349  0.00  0.00    +0.000 A 
ATOM      5  C   UNL     1       1.819   5.600  20.456  0.00  0.00    +0.000 A 
ATOM      6  C   UNL     1       1.172   6.659  21.077  0.00  0.00    +0.000 A 
ATOM      7  C   UNL     1       1.674   4.154  20.807  0.00  0.00    +0.000 C 
ATOM      8  C   UNL     1       2.738   3.520  19.918  0.00  0.00    +0.000 C 
ATOM      9  N   UNL     1       3.172   4.537  18.948  0.00  0.00    +0.000 N 
ATOM     10  C   UNL     1       3.974   4.133  17.900  0.00  0.00    +0.000 C 
ATOM     11  O   UNL     1       4.170   2.936  17.687  0.00  0.00    +0.000 OA
ATOM     12  N   UNL     1       4.571   5.124  17.163  0.00  0.00    +0.000 N 
ATOM     13  H   UNL     1       4.926   5.878  17.735  0.00  0.00    +0.000 HD
ENDROOT
BRANCH  12  14
ATOM     14  C   UNL     1       5.331   4.859  15.996  0.00  0.00    +0.000 A 
ATOM     15  C   UNL     1       4.800   4.113  14.937  0.00  0.00    +0.000 A 
ATOM     16  C   UNL     1       5.564   3.865  13.792  0.00  0.00    +0.000 A 
ATOM     17  C   UNL     1       6.865   4.356  13.700  0.00  0.00    +0.000 A 
ATOM     18  C   UNL     1       7.402   5.105  14.747  0.00  0.00    +0.000 A 
ATOM     19  C   UNL     1       6.633   5.368  15.883  0.00  0.00    +0.000 A 
ATOM     20 BR   UNL     1       7.429   6.358  17.298  0.00  0.00    +0.000 Br
ENDBRANCH  12  14
BRANCH   1  21
ATOM     21  S   UNL     1       0.613   9.330  21.373  0.00  0.00    +0.000 S 
ATOM     22  O   UNL     1       1.419   9.653  22.533  0.00  0.00    +0.000 OA
ATOM     23  O   UNL     1      -0.792   9.020  21.527  0.00  0.00    +0.000 OA
BRANCH  21  28
ATOM     24  C   UNL     1      -2.788  12.796  21.086  0.00  0.00    +0.000 C 
ATOM     25  C   UNL     1      -1.450  12.512  20.402  0.00  0.00    +0.000 C 
ATOM     26  C   UNL     1      -1.541  11.200  19.608  0.00  0.00    +0.000 C 
ATOM     27  C   UNL     1      -0.180  10.717  19.133  0.00  0.00    +0.000 C 
ATOM     28  N   UNL     1       0.782  10.612  20.255  0.00  0.00    +0.000 NA
ATOM     29  C   UNL     1       0.996  11.950  20.875  0.00  0.00    +0.000 C 
ATOM     30  C   UNL     1      -0.310  12.511  21.435  0.00  0.00    +0.000 C 
ENDBRANCH  21  28
ENDBRANCH   1  21
TORSDOF 3
ENDMDL
MODEL 2
REMARK VINA RESULT:      -8.2      1.840      2.216
REMARK  Name = 
REMARK  4 active torsions:
REMARK  status: ('A' for Active; 'I' for Inactive)
REMARK    1  A    between atoms: C_1  and  C_2
REMARK    2  A    between atoms: N_5  and  S_6
REMARK    3  A    between atoms: S_6  and  C_9
REMARK    4  A    between atoms: N_20  and  C_21
REMARK                            x       y       z     vdW  Elec       q    Type
REMARK                         _______ _______ _______ _____ _____    ______ ____
ROOT
ATOM      1  C   UNL     1       0.973   9.639  19.428  0.00  0.00    +0.000 A 
ATOM      2  C   UNL     1       1.816   9.511  18.313  0.00  0.00    +0.000 A 
ATOM      3  C   UNL     1       2.549   8.330  18.109  0.00  0.00    +0.000 A 
ATOM      4  C   UNL     1       2.462   7.313  19.050  0.00  0.00    +0.000 A 
ATOM      5  C   UNL     1       1.613   7.459  20.156  0.00  0.00    +0.000 A 
ATOM      6  C   UNL     1       0.867   8.609  20.366  0.00  0.00    +0.000 A 
ATOM      7  C   UNL     1       1.576   6.222  20.995  0.00  0.00    +0.000 C 
ATOM      8  C   UNL     1       2.710   5.408  20.382  0.00  0.00    +0.000 C 
ATOM      9  N   UNL     1       3.085   6.051  19.114  0.00  0.00    +0.000 N 
ATOM     10  C   UNL     1       3.944   5.372  18.272  0.00  0.00    +0.000 C 
ATOM     11  O   UNL     1       4.240   4.198  18.495  0.00  0.00    +0.000 OA
ATOM     12  N   UNL     1       4.477   6.087  17.230  0.00  0.00    +0.000 N 
ATOM     13  H   UNL     1       4.755   7.021  17.497  0.00  0.00    +0.000 HD
ENDROOT
BRANCH  12  14
ATOM     14  C   UNL     1       5.285   5.493  16.228  0.00  0.00    +0.000 A 
ATOM     15  C   UNL     1       4.722   4.733  15.195  0.00  0.00    +0.000 A 
ATOM     16  C   UNL     1       5.535   4.158  14.214  0.00  0.00    +0.000 A 
ATOM     17  C   UNL     1       6.918   4.333  14.261  0.00  0.00    +0.000 A 
ATOM     18  C   UNL     1       7.489   5.092  15.282  0.00  0.00    +0.000 A 
ATOM     19  C   UNL     1       6.675   5.682  16.253  0.00  0.00    +0.000 A 
ATOM     20 BR   UNL     1       7.509   6.671  17.646  0.00  0.00    +0.000 Br
ENDBRANCH  12  14
BRANCH   1  21
ATOM     21  S   UNL     1       0.088  11.156  19.702  0.00  0.00    +0.000 S 
ATOM     22  O   UNL     1      -0.852  10.929  20.781  0.00  0.00    +0.000 OA
ATOM     23  O   UNL     1      -0.384  11.613  18.412  0.00  0.00    +0.000 OA
BRANCH  21  28
ATOM     24  C   UNL     1      -0.172  15.890  18.612  0.00  0.00    +0.000 C 
ATOM     25  C   UNL     1       0.764  15.003  19.435  0.00  0.00    +0.000 C 
ATOM     26  C   UNL     1       1.452  13.982  18.516  0.00  0.00    +0.000 C 
ATOM     27  C   UNL     1       2.178  12.899  19.299  0.00  0.00    +0.000 C 
ATOM     28  N   UNL     1       1.280  12.238  20.275  0.00  0.00    +0.000 NA
ATOM     29  C   UNL     1       0.788  13.230  21.273  0.00  0.00    +0.000 C 
ATOM     30  C   UNL     1      -0.005  14.345  20.594  0.00  0.00    +0.000 C 
ENDBRANCH  21  28
ENDBRANCH   1  21
TORSDOF 3
ENDMDL
MODEL 3
REMARK VINA RESULT:      -8.2      1.082      1.170
REMARK  Name = 
REMARK  4 active torsions:
REMARK  status: ('A' for Active; 'I' for Inactive)
REMARK    1  A    between atoms: C_1  and  C_2
REMARK    2  A    between atoms: N_5  and  S_6
REMARK    3  A    between atoms: S_6  and  C_9
REMARK    4  A    between atoms: N_20  and  C_21
REMARK                            x       y       z     vdW  Elec       q    Type
REMARK                         _______ _______ _______ _____ _____    ______ ____
ROOT
ATOM      1  C   UNL     1       1.177   8.889  20.002  0.00  0.00    +0.000 A 
ATOM      2  C   UNL     1       1.984   8.914  18.853  0.00  0.00    +0.000 A 
ATOM      3  C   UNL     1       2.683   7.764  18.452  0.00  0.00    +0.000 A 
ATOM      4  C   UNL     1       2.601   6.619  19.233  0.00  0.00    +0.000 A 
ATOM      5  C   UNL     1       1.788   6.613  20.375  0.00  0.00    +0.000 A 
ATOM      6  C   UNL     1       1.075   7.732  20.778  0.00  0.00    +0.000 A 
ATOM      7  C   UNL     1       1.747   5.265  21.021  0.00  0.00    +0.000 C 
ATOM      8  C   UNL     1       2.845   4.532  20.257  0.00  0.00    +0.000 C 
ATOM      9  N   UNL     1       3.197   5.350  19.087  0.00  0.00    +0.000 N 
ATOM     10  C   UNL     1       4.015   4.790  18.126  0.00  0.00    +0.000 C 
ATOM     11  O   UNL     1       4.290   3.590  18.162  0.00  0.00    +0.000 OA
ATOM     12  N   UNL     1       4.533   5.643  17.186  0.00  0.00    +0.000 N 
ATOM     13  H   UNL     1       4.840   6.521  17.580  0.00  0.00    +0.000 HD
ENDROOT
BRANCH  12  14
ATOM     14  C   UNL     1       5.298   5.191  16.081  0.00  0.00    +0.000 A 
ATOM     15  C   UNL     1       4.720   4.425  15.061  0.00  0.00    +0.000 A 
ATOM     16  C   UNL     1       5.490   3.992  13.978  0.00  0.00    +0.000 A 
ATOM     17  C   UNL     1       6.844   4.316  13.908  0.00  0.00    +0.000 A 
ATOM     18  C   UNL     1       7.429   5.084  14.915  0.00  0.00    +0.000 A 
ATOM     19  C   UNL     1       6.656   5.533  15.989  0.00  0.00    +0.000 A 
ATOM     20 BR   UNL     1       7.512   6.539  17.355  0.00  0.00    +0.000 Br
ENDBRANCH  12  14
BRANCH   1  21
ATOM     21  S   UNL     1       0.335  10.363  20.527  0.00  0.00    +0.000 S 
ATOM     22  O   UNL     1       1.273  11.157  21.294  0.00  0.00    +0.000 OA
ATOM     23  O   UNL     1      -0.920   9.950  21.118  0.00  0.00    +0.000 OA
BRANCH  21  28
ATOM     24  C   UNL     1      -4.036  12.354  19.754  0.00  0.00    +0.000 C 
ATOM     25  C   UNL     1      -2.712  12.282  18.991  0.00  0.00    +0.000 C 
ATOM     26  C   UNL     1      -2.397  10.822  18.635  0.00  0.00    +0.000 C 
ATOM     27  C   UNL     1      -0.975  10.647  18.125  0.00  0.00    +0.000 C 
ATOM     28  N   UNL     1       0.017  11.204  19.074  0.00  0.00    +0.000 NA
ATOM     29  C   UNL     1      -0.200  12.669  19.240  0.00  0.00    +0.000 C 
ATOM     30  C   UNL     1      -1.591  12.959  19.800  0.00  0.00    +0.000 C 
ENDBRANCH  21  28
ENDBRANCH   1  21
TORSDOF 3
ENDMDL
MODEL 4
REMARK VINA RESULT:      -8.1      1.579      2.036
REMARK  Name = 
REMARK  4 active torsions:
REMARK  status: ('A' for Active; 'I' for Inactive)
REMARK    1  A    between atoms: C_1  and  C_2
REMARK    2  A    between atoms: N_5  and  S_6
REMARK    3  A    between atoms: S_6  and  C_9
REMARK    4  A    between atoms: N_20  and  C_21
REMARK                            x       y       z     vdW  Elec       q    Type
REMARK                         _______ _______ _______ _____ _____    ______ ____
ROOT
ATOM      1  C   UNL     1       0.993   9.568  19.367  0.00  0.00    +0.000 A 
ATOM      2  C   UNL     1       1.840   9.450  18.254  0.00  0.00    +0.000 A 
ATOM      3  C   UNL     1       2.572   8.270  18.041  0.00  0.00    +0.000 A 
ATOM      4  C   UNL     1       2.481   7.244  18.972  0.00  0.00    +0.000 A 
ATOM      5  C   UNL     1       1.629   7.380  20.076  0.00  0.00    +0.000 A 
ATOM      6  C   UNL     1       0.883   8.530  20.295  0.00  0.00    +0.000 A 
ATOM      7  C   UNL     1       1.587   6.136  20.904  0.00  0.00    +0.000 C 
ATOM      8  C   UNL     1       2.723   5.326  20.287  0.00  0.00    +0.000 C 
ATOM      9  N   UNL     1       3.102   5.980  19.026  0.00  0.00    +0.000 N 
ATOM     10  C   UNL     1       3.963   5.309  18.180  0.00  0.00    +0.000 C 
ATOM     11  O   UNL     1       4.257   4.131  18.393  0.00  0.00    +0.000 OA
ATOM     12  N   UNL     1       4.500   6.032  17.147  0.00  0.00    +0.000 N 
ATOM     13  H   UNL     1       4.778   6.963  17.423  0.00  0.00    +0.000 HD
ENDROOT
BRANCH  12  14
ATOM     14  C   UNL     1       5.310   5.446  16.142  0.00  0.00    +0.000 A 
ATOM     15  C   UNL     1       4.754   4.657  15.128  0.00  0.00    +0.000 A 
ATOM     16  C   UNL     1       5.570   4.090  14.143  0.00  0.00    +0.000 A 
ATOM     17  C   UNL     1       6.947   4.304  14.168  0.00  0.00    +0.000 A 
ATOM     18  C   UNL     1       7.511   5.094  15.170  0.00  0.00    +0.000 A 
ATOM     19  C   UNL     1       6.694   5.675  16.144  0.00  0.00    +0.000 A 
ATOM     20 BR   UNL     1       7.520   6.707  17.510  0.00  0.00    +0.000 Br
ENDBRANCH  12  14
BRANCH   1  21
ATOM     21  S   UNL     1       0.109  11.083  19.653  0.00  0.00    +0.000 S 
ATOM     22  O   UNL     1      -1.294  10.754  19.795  0.00  0.00    +0.000 OA
ATOM     23  O   UNL     1       0.536  12.023  18.638  0.00  0.00    +0.000 OA
BRANCH  21  28
ATOM     24  C   UNL     1      -3.053  12.361  23.121  0.00  0.00    +0.000 C 
ATOM     25  C   UNL     1      -1.531  12.265  23.005  0.00  0.00    +0.000 C 
ATOM     26  C   UNL     1      -1.028  13.255  21.943  0.00  0.00    +0.000 C 
ATOM     27  C   UNL     1       0.430  13.019  21.581  0.00  0.00    +0.000 C 
ATOM     28  N   UNL     1       0.671  11.615  21.177  0.00  0.00    +0.000 NA
ATOM     29  C   UNL     1       0.359  10.695  22.307  0.00  0.00    +0.000 C 
ATOM     30  C   UNL     1      -1.106  10.813  22.723  0.00  0.00    +0.000 C 
ENDBRANCH  21  28
ENDBRANCH   1  21
TORSDOF 3
ENDMDL
MODEL 5
REMARK VINA RESULT:      -8.0      0.955      1.063
REMARK  Name = 
REMARK  4 active torsions:
REMARK  status: ('A' for Active; 'I' for Inactive)
REMARK    1  A    between atoms: C_1  and  C_2
REMARK    2  A    between atoms: N_5  and  S_6
REMARK    3  A    between atoms: S_6  and  C_9
REMARK    4  A    between atoms: N_20  and  C_21
REMARK                            x       y       z     vdW  Elec       q    Type
REMARK                         _______ _______ _______ _____ _____    ______ ____
ROOT
ATOM      1  C   UNL     1       1.175   8.683  20.196  0.00  0.00    +0.000 A 
ATOM      2  C   UNL     1       1.969   8.751  19.041  0.00  0.00    +0.000 A 
ATOM      3  C   UNL     1       2.675   7.621  18.598  0.00  0.00    +0.000 A 
ATOM      4  C   UNL     1       2.612   6.452  19.344  0.00  0.00    +0.000 A 
ATOM      5  C   UNL     1       1.812   6.403  20.493  0.00  0.00    +0.000 A 
ATOM      6  C   UNL     1       1.092   7.502  20.939  0.00  0.00    +0.000 A 
ATOM      7  C   UNL     1       1.790   5.036  21.099  0.00  0.00    +0.000 C 
ATOM      8  C   UNL     1       2.886   4.336  20.301  0.00  0.00    +0.000 C 
ATOM      9  N   UNL     1       3.218   5.194  19.153  0.00  0.00    +0.000 N 
ATOM     10  C   UNL     1       4.030   4.671  18.167  0.00  0.00    +0.000 C 
ATOM     11  O   UNL     1       4.318   3.473  18.163  0.00  0.00    +0.000 OA
ATOM     12  N   UNL     1       4.531   5.558  17.248  0.00  0.00    +0.000 N 
ATOM     13  H   UNL     1       4.834   6.426  17.665  0.00  0.00    +0.000 HD
ENDROOT
BRANCH  12  14
ATOM     14  C   UNL     1       5.288   5.147  16.121  0.00  0.00    +0.000 A 
ATOM     15  C   UNL     1       4.716   4.373  15.104  0.00  0.00    +0.000 A 
ATOM     16  C   UNL     1       5.478   3.981  13.999  0.00  0.00    +0.000 A 
ATOM     17  C   UNL     1       6.818   4.354  13.906  0.00  0.00    +0.000 A 
ATOM     18  C   UNL     1       7.396   5.130  14.910  0.00  0.00    +0.000 A 
ATOM     19  C   UNL     1       6.630   5.538  16.006  0.00  0.00    +0.000 A 
ATOM     20 BR   UNL     1       7.479   6.557  17.367  0.00  0.00    +0.000 Br
ENDBRANCH  12  14
BRANCH   1  21
ATOM     21  S   UNL     1       0.325  10.132  20.776  0.00  0.00    +0.000 S 
ATOM     22  O   UNL     1       1.304  10.996  21.403  0.00  0.00    +0.000 OA
ATOM     23  O   UNL     1      -0.828   9.680  21.524  0.00  0.00    +0.000 OA
BRANCH  21  28
ATOM     24  C   UNL     1      -1.427  14.667  20.948  0.00  0.00    +0.000 C 
ATOM     25  C   UNL     1      -1.163  13.633  19.852  0.00  0.00    +0.000 C 
ATOM     26  C   UNL     1      -2.049  12.399  20.080  0.00  0.00    +0.000 C 
ATOM     27  C   UNL     1      -1.643  11.229  19.197  0.00  0.00    +0.000 C 
ATOM     28  N   UNL     1      -0.205  10.906  19.347  0.00  0.00    +0.000 NA
ATOM     29  C   UNL     1       0.628  12.067  18.925  0.00  0.00    +0.000 C 
ATOM     30  C   UNL     1       0.336  13.294  19.787  0.00  0.00    +0.000 C 
ENDBRANCH  21  28
ENDBRANCH   1  21
TORSDOF 3
ENDMDL
MODEL 6
REMARK VINA RESULT:      -8.0      3.242      9.013
REMARK  Name = 
REMARK  4 active torsions:
REMARK  status: ('A' for Active; 'I' for Inactive)
REMARK    1  A    between atoms: C_1  and  C_2
REMARK    2  A    between atoms: N_5  and  S_6
REMARK    3  A    between atoms: S_6  and  C_9
REMARK    4  A    between atoms: N_20  and  C_21
REMARK                            x       y       z     vdW  Elec       q    Type
REMARK                         _______ _______ _______ _____ _____    ______ ____
ROOT
ATOM      1  C   UNL     1       2.210   7.807  18.944  0.00  0.00    +0.000 A 
ATOM      2  C   UNL     1       2.289   8.990  18.192  0.00  0.00    +0.000 A 
ATOM      3  C   UNL     1       1.766  10.190  18.701  0.00  0.00    +0.000 A 
ATOM      4  C   UNL     1       1.129  10.178  19.935  0.00  0.00    +0.000 A 
ATOM      5  C   UNL     1       1.063   8.988  20.671  0.00  0.00    +0.000 A 
ATOM      6  C   UNL     1       1.589   7.795  20.196  0.00  0.00    +0.000 A 
ATOM      7  C   UNL     1       0.436   9.197  22.013  0.00  0.00    +0.000 C 
ATOM      8  C   UNL     1      -0.091  10.622  21.879  0.00  0.00    +0.000 C 
ATOM      9  N   UNL     1       0.508  11.207  20.670  0.00  0.00    +0.000 N 
ATOM     10  C   UNL     1       0.350  12.563  20.458  0.00  0.00    +0.000 C 
ATOM     11  O   UNL     1      -0.121  13.282  21.340  0.00  0.00    +0.000 OA
ATOM     12  N   UNL     1       0.689  13.035  19.216  0.00  0.00    +0.000 N 
ATOM     13  H   UNL     1       0.387  12.427  18.469  0.00  0.00    +0.000 HD
ENDROOT
BRANCH  12  14
ATOM     14  C   UNL     1       0.680  14.416  18.894  0.00  0.00    +0.000 A 
ATOM     15  C   UNL     1      -0.512  15.151  18.877  0.00  0.00    +0.000 A 
ATOM     16  C   UNL     1      -0.499  16.513  18.561  0.00  0.00    +0.000 A 
ATOM     17  C   UNL     1       0.703  17.149  18.253  0.00  0.00    +0.000 A 
ATOM     18  C   UNL     1       1.896  16.428  18.273  0.00  0.00    +0.000 A 
ATOM     19  C   UNL     1       1.887  15.071  18.607  0.00  0.00    +0.000 A 
ATOM     20 BR   UNL     1       3.536  14.126  18.577  0.00  0.00    +0.000 Br
ENDBRANCH  12  14
BRANCH   1  21
ATOM     21  S   UNL     1       2.831   6.284  18.270  0.00  0.00    +0.000 S 
ATOM     22  O   UNL     1       3.871   6.616  17.318  0.00  0.00    +0.000 OA
ATOM     23  O   UNL     1       1.686   5.504  17.853  0.00  0.00    +0.000 OA
BRANCH  21  28
ATOM     24  C   UNL     1       3.551   1.473  18.223  0.00  0.00    +0.000 C 
ATOM     25  C   UNL     1       3.861   2.620  19.187  0.00  0.00    +0.000 C 
ATOM     26  C   UNL     1       2.551   3.252  19.679  0.00  0.00    +0.000 C 
ATOM     27  C   UNL     1       2.784   4.562  20.416  0.00  0.00    +0.000 C 
ATOM     28  N   UNL     1       3.577   5.512  19.600  0.00  0.00    +0.000 NA
ATOM     29  C   UNL     1       4.922   4.940  19.310  0.00  0.00    +0.000 C 
ATOM     30  C   UNL     1       4.806   3.636  18.522  0.00  0.00    +0.000 C 
ENDBRANCH  21  28
ENDBRANCH   1  21
TORSDOF 3
ENDMDL
MODEL 7
REMARK VINA RESULT:      -7.8      1.752      2.381
REMARK  Name = 
REMARK  4 active torsions:
REMARK  status: ('A' for Active; 'I' for Inactive)
REMARK    1  A    between atoms: C_1  and  C_2
REMARK    2  A    between atoms: N_5  and  S_6
REMARK    3  A    between atoms: S_6  and  C_9
REMARK    4  A    between atoms: N_20  and  C_21
REMARK                            x       y       z     vdW  Elec       q    Type
REMARK                         _______ _______ _______ _____ _____    ______ ____
ROOT
ATOM      1  C   UNL     1       1.034  10.052  19.223  0.00  0.00    +0.000 A 
ATOM      2  C   UNL     1       1.910   9.847  18.145  0.00  0.00    +0.000 A 
ATOM      3  C   UNL     1       2.584   8.623  18.002  0.00  0.00    +0.000 A 
ATOM      4  C   UNL     1       2.408   7.639  18.966  0.00  0.00    +0.000 A 
ATOM      5  C   UNL     1       1.527   7.862  20.033  0.00  0.00    +0.000 A 
ATOM      6  C   UNL     1       0.837   9.056  20.184  0.00  0.00    +0.000 A 
ATOM      7  C   UNL     1       1.392   6.654  20.904  0.00  0.00    +0.000 C 
ATOM      8  C   UNL     1       2.502   5.763  20.357  0.00  0.00    +0.000 C 
ATOM      9  N   UNL     1       2.958   6.348  19.087  0.00  0.00    +0.000 N 
ATOM     10  C   UNL     1       3.809   5.601  18.297  0.00  0.00    +0.000 C 
ATOM     11  O   UNL     1       4.032   4.419  18.563  0.00  0.00    +0.000 OA
ATOM     12  N   UNL     1       4.419   6.256  17.258  0.00  0.00    +0.000 N 
ATOM     13  H   UNL     1       4.737   7.180  17.510  0.00  0.00    +0.000 HD
ENDROOT
BRANCH  12  14
ATOM     14  C   UNL     1       5.230   5.590  16.304  0.00  0.00    +0.000 A 
ATOM     15  C   UNL     1       4.665   4.824  15.278  0.00  0.00    +0.000 A 
ATOM     16  C   UNL     1       5.482   4.178  14.344  0.00  0.00    +0.000 A 
ATOM     17  C   UNL     1       6.868   4.289  14.434  0.00  0.00    +0.000 A 
ATOM     18  C   UNL     1       7.441   5.055  15.448  0.00  0.00    +0.000 A 
ATOM     19  C   UNL     1       6.626   5.715  16.371  0.00  0.00    +0.000 A 
ATOM     20 BR   UNL     1       7.460   6.710  17.759  0.00  0.00    +0.000 Br
ENDBRANCH  12  14
BRANCH   1  21
ATOM     21  S   UNL     1       0.224  11.621  19.422  0.00  0.00    +0.000 S 
ATOM     22  O   UNL     1      -0.394  11.961  18.157  0.00  0.00    +0.000 OA
ATOM     23  O   UNL     1       1.181  12.521  20.028  0.00  0.00    +0.000 OA
BRANCH  21  28
ATOM     24  C   UNL     1      -1.609  15.222  22.131  0.00  0.00    +0.000 C 
ATOM     25  C   UNL     1      -1.886  13.727  21.959  0.00  0.00    +0.000 C 
ATOM     26  C   UNL     1      -0.653  12.918  22.389  0.00  0.00    +0.000 C 
ATOM     27  C   UNL     1      -0.756  11.455  21.987  0.00  0.00    +0.000 C 
ATOM     28  N   UNL     1      -1.030  11.305  20.539  0.00  0.00    +0.000 NA
ATOM     29  C   UNL     1      -2.338  11.934  20.198  0.00  0.00    +0.000 C 
ATOM     30  C   UNL     1      -2.328  13.428  20.516  0.00  0.00    +0.000 C 
ENDBRANCH  21  28
ENDBRANCH   1  21
TORSDOF 3
ENDMDL
MODEL 8
REMARK VINA RESULT:      -7.5      3.424      8.953
REMARK  Name = 
REMARK  4 active torsions:
REMARK  status: ('A' for Active; 'I' for Inactive)
REMARK    1  A    between atoms: C_1  and  C_2
REMARK    2  A    between atoms: N_5  and  S_6
REMARK    3  A    between atoms: S_6  and  C_9
REMARK    4  A    between atoms: N_20  and  C_21
REMARK                            x       y       z     vdW  Elec       q    Type
REMARK                         _______ _______ _______ _____ _____    ______ ____
ROOT
ATOM      1  C   UNL     1       2.198   7.570  19.466  0.00  0.00    +0.000 A 
ATOM      2  C   UNL     1       2.245   8.742  18.695  0.00  0.00    +0.000 A 
ATOM      3  C   UNL     1       1.660   9.927  19.169  0.00  0.00    +0.000 A 
ATOM      4  C   UNL     1       0.994   9.909  20.387  0.00  0.00    +0.000 A 
ATOM      5  C   UNL     1       0.959   8.729  21.143  0.00  0.00    +0.000 A 
ATOM      6  C   UNL     1       1.547   7.553  20.702  0.00  0.00    +0.000 A 
ATOM      7  C   UNL     1       0.291   8.935  22.465  0.00  0.00    +0.000 C 
ATOM      8  C   UNL     1      -0.293  10.334  22.292  0.00  0.00    +0.000 C 
ATOM      9  N   UNL     1       0.312  10.923  21.088  0.00  0.00    +0.000 N 
ATOM     10  C   UNL     1       0.101  12.267  20.848  0.00  0.00    +0.000 C 
ATOM     11  O   UNL     1      -0.422  12.980  21.705  0.00  0.00    +0.000 OA
ATOM     12  N   UNL     1       0.451  12.732  19.607  0.00  0.00    +0.000 N 
ATOM     13  H   UNL     1       0.193  12.098  18.863  0.00  0.00    +0.000 HD
ENDROOT
BRANCH  12  14
ATOM     14  C   UNL     1       0.392  14.106  19.260  0.00  0.00    +0.000 A 
ATOM     15  C   UNL     1      -0.791  14.842  19.403  0.00  0.00    +0.000 A 
ATOM     16  C   UNL     1      -0.828  16.196  19.058  0.00  0.00    +0.000 A 
ATOM     17  C   UNL     1       0.314  16.824  18.563  0.00  0.00    +0.000 A 
ATOM     18  C   UNL     1       1.499  16.102  18.423  0.00  0.00    +0.000 A 
ATOM     19  C   UNL     1       1.542  14.753  18.783  0.00  0.00    +0.000 A 
ATOM     20 BR   UNL     1       3.170  13.806  18.530  0.00  0.00    +0.000 Br
ENDBRANCH  12  14
BRANCH   1  21
ATOM     21  S   UNL     1       2.900   6.063  18.835  0.00  0.00    +0.000 S 
ATOM     22  O   UNL     1       3.853   5.579  19.812  0.00  0.00    +0.000 OA
ATOM     23  O   UNL     1       3.322   6.327  17.476  0.00  0.00    +0.000 OA
BRANCH  21  28
ATOM     24  C   UNL     1       3.706   1.274  18.557  0.00  0.00    +0.000 C 
ATOM     25  C   UNL     1       2.475   2.176  18.666  0.00  0.00    +0.000 C 
ATOM     26  C   UNL     1       2.374   3.068  17.419  0.00  0.00    +0.000 C 
ATOM     27  C   UNL     1       1.342   4.172  17.584  0.00  0.00    +0.000 C 
ATOM     28  N   UNL     1       1.587   4.969  18.808  0.00  0.00    +0.000 NA
ATOM     29  C   UNL     1       1.480   4.101  20.015  0.00  0.00    +0.000 C 
ATOM     30  C   UNL     1       2.514   2.978  19.978  0.00  0.00    +0.000 C 
ENDBRANCH  21  28
ENDBRANCH   1  21
TORSDOF 3
ENDMDL
MODEL 9
REMARK VINA RESULT:      -7.3      3.530      9.762
REMARK  Name = 
REMARK  4 active torsions:
REMARK  status: ('A' for Active; 'I' for Inactive)
REMARK    1  A    between atoms: C_1  and  C_2
REMARK    2  A    between atoms: N_5  and  S_6
REMARK    3  A    between atoms: S_6  and  C_9
REMARK    4  A    between atoms: N_20  and  C_21
REMARK                            x       y       z     vdW  Elec       q    Type
REMARK                         _______ _______ _______ _____ _____    ______ ____
ROOT
ATOM      1  C   UNL     1       1.911   7.074  20.013  0.00  0.00    +0.000 A 
ATOM      2  C   UNL     1       1.246   7.574  21.143  0.00  0.00    +0.000 A 
ATOM      3  C   UNL     1       0.716   8.875  21.136  0.00  0.00    +0.000 A 
ATOM      4  C   UNL     1       0.902   9.672  20.014  0.00  0.00    +0.000 A 
ATOM      5  C   UNL     1       1.566   9.153  18.895  0.00  0.00    +0.000 A 
ATOM      6  C   UNL     1       2.081   7.865  18.874  0.00  0.00    +0.000 A 
ATOM      7  C   UNL     1       1.575  10.120  17.755  0.00  0.00    +0.000 C 
ATOM      8  C   UNL     1       1.045  11.383  18.428  0.00  0.00    +0.000 C 
ATOM      9  N   UNL     1       0.503  10.995  19.739  0.00  0.00    +0.000 N 
ATOM     10  C   UNL     1      -0.227  11.933  20.441  0.00  0.00    +0.000 C 
ATOM     11  O   UNL     1      -0.562  12.992  19.909  0.00  0.00    +0.000 OA
ATOM     12  N   UNL     1      -0.501  11.643  21.753  0.00  0.00    +0.000 N 
ATOM     13  H   UNL     1       0.286  11.233  22.237  0.00  0.00    +0.000 HD
ENDROOT
BRANCH  12  14
ATOM     14  C   UNL     1      -1.331  12.461  22.561  0.00  0.00    +0.000 A 
ATOM     15  C   UNL     1      -2.540  11.983  23.079  0.00  0.00    +0.000 A 
ATOM     16  C   UNL     1      -3.343  12.804  23.877  0.00  0.00    +0.000 A 
ATOM     17  C   UNL     1      -2.946  14.110  24.158  0.00  0.00    +0.000 A 
ATOM     18  C   UNL     1      -1.740  14.594  23.653  0.00  0.00    +0.000 A 
ATOM     19  C   UNL     1      -0.928  13.769  22.871  0.00  0.00    +0.000 A 
ATOM     20 BR   UNL     1       0.684  14.494  22.172  0.00  0.00    +0.000 Br
ENDBRANCH  12  14
BRANCH   1  21
ATOM     21  S   UNL     1       2.620   5.444  20.050  0.00  0.00    +0.000 S 
ATOM     22  O   UNL     1       2.235   4.825  21.302  0.00  0.00    +0.000 OA
ATOM     23  O   UNL     1       4.020   5.580  19.707  0.00  0.00    +0.000 OA
BRANCH  21  28
ATOM     24  C   UNL     1       4.072   0.988  18.747  0.00  0.00    +0.000 C 
ATOM     25  C   UNL     1       2.961   1.949  18.321  0.00  0.00    +0.000 C 
ATOM     26  C   UNL     1       3.578   3.223  17.725  0.00  0.00    +0.000 C 
ATOM     27  C   UNL     1       2.549   4.328  17.537  0.00  0.00    +0.000 C 
ATOM     28  N   UNL     1       1.817   4.610  18.793  0.00  0.00    +0.000 NA
ATOM     29  C   UNL     1       1.068   3.399  19.234  0.00  0.00    +0.000 C 
ATOM     30  C   UNL     1       2.017   2.233  19.502  0.00  0.00    +0.000 C 
ENDBRANCH  21  28
ENDBRANCH   1  21
TORSDOF 3
ENDMDL
