MODEL 1
REMARK VINA RESULT:      -7.3      0.000      0.000
REMARK  Name = 
REMARK  2 active torsions:
REMARK  status: ('A' for Active; 'I' for Inactive)
REMARK    1  A    between atoms: C_9  and  C_10
REMARK    2  A    between atoms: C_11  and  C_12
REMARK                            x       y       z     vdW  Elec       q    Type
REMARK                         _______ _______ _______ _____ _____    ______ ____
ROOT
ATOM      1 CL   UNL     1       9.754  15.476  23.248  0.00  0.00    +0.000 Cl
ATOM      2  C   UNL     1       9.979  14.665  21.746  0.00  0.00    +0.000 A 
ATOM      3  C   UNL     1      10.614  15.323  20.696  0.00  0.00    +0.000 A 
ATOM      4  C   UNL     1      10.795  14.664  19.480  0.00  0.00    +0.000 A 
ATOM      5  C   UNL     1      10.343  13.351  19.319  0.00  0.00    +0.000 A 
ATOM      6  C   UNL     1       9.707  12.693  20.372  0.00  0.00    +0.000 A 
ATOM      7  C   UNL     1       9.524  13.356  21.591  0.00  0.00    +0.000 A 
ATOM      8  C   UNL     1       9.234  11.328  20.191  0.00  0.00    +0.000 C 
ATOM      9  C   UNL     1       9.447  10.719  19.013  0.00  0.00    +0.000 C 
ATOM     10  C   UNL     1      10.161  11.430  17.888  0.00  0.00    +0.000 C 
ATOM     11  O   UNL     1      10.562  12.793  18.095  0.00  0.00    +0.000 OA
ENDROOT
BRANCH   9  12
ATOM     12  C   UNL     1       8.968   9.354  18.819  0.00  0.00    +0.000 C 
ATOM     13  C   UNL     1       8.124   8.930  17.863  0.00  0.00    +0.000 C 
BRANCH  13  14
ATOM     14  C   UNL     1       7.655   7.536  17.762  0.00  0.00    +0.000 A 
ATOM     15  C   UNL     1       8.048   6.593  18.706  0.00  0.00    +0.000 A 
ATOM     16  C   UNL     1       7.628   5.273  18.553  0.00  0.00    +0.000 A 
ATOM     17  C   UNL     1       6.823   4.935  17.473  0.00  0.00    +0.000 A 
ATOM     18  C   UNL     1       6.464   5.937  16.589  0.00  0.00    +0.000 A 
ATOM     19  N   UNL     1       6.861   7.222  16.711  0.00  0.00    +0.000 NA
ENDBRANCH  13  14
ENDBRANCH   9  12
TORSDOF 2
ENDMDL
MODEL 2
REMARK VINA RESULT:      -7.3      8.060     10.130
REMARK  Name = 
REMARK  2 active torsions:
REMARK  status: ('A' for Active; 'I' for Inactive)
REMARK    1  A    between atoms: C_9  and  C_10
REMARK    2  A    between atoms: C_11  and  C_12
REMARK                            x       y       z     vdW  Elec       q    Type
REMARK                         _______ _______ _______ _____ _____    ______ ____
ROOT
ATOM      1 CL   UNL     1       6.498   2.491  10.791  0.00  0.00    +0.000 Cl
ATOM      2  C   UNL     1       6.692   3.485  12.183  0.00  0.00    +0.000 A 
ATOM      3  C   UNL     1       7.641   4.504  12.176  0.00  0.00    +0.000 A 
ATOM      4  C   UNL     1       7.796   5.307  13.306  0.00  0.00    +0.000 A 
ATOM      5  C   UNL     1       7.000   5.092  14.435  0.00  0.00    +0.000 A 
ATOM      6  C   UNL     1       6.049   4.071  14.441  0.00  0.00    +0.000 A 
ATOM      7  C   UNL     1       5.896   3.264  13.307  0.00  0.00    +0.000 A 
ATOM      8  C   UNL     1       5.231   3.851  15.624  0.00  0.00    +0.000 C 
ATOM      9  C   UNL     1       5.393   4.660  16.684  0.00  0.00    +0.000 C 
ATOM     10  C   UNL     1       6.407   5.779  16.659  0.00  0.00    +0.000 C 
ATOM     11  O   UNL     1       7.227   5.925  15.490  0.00  0.00    +0.000 OA
ENDROOT
BRANCH   9  12
ATOM     12  C   UNL     1       4.585   4.441  17.880  0.00  0.00    +0.000 C 
ATOM     13  C   UNL     1       3.733   3.425  18.096  0.00  0.00    +0.000 C 
BRANCH  13  14
ATOM     14  C   UNL     1       2.920   3.302  19.319  0.00  0.00    +0.000 A 
ATOM     15  C   UNL     1       1.646   3.859  19.375  0.00  0.00    +0.000 A 
ATOM     16  C   UNL     1       0.925   3.769  20.564  0.00  0.00    +0.000 A 
ATOM     17  C   UNL     1       1.487   3.119  21.655  0.00  0.00    +0.000 A 
ATOM     18  C   UNL     1       2.752   2.578  21.509  0.00  0.00    +0.000 A 
ATOM     19  N   UNL     1       3.475   2.656  20.371  0.00  0.00    +0.000 NA
ENDBRANCH  13  14
ENDBRANCH   9  12
TORSDOF 2
ENDMDL
MODEL 3
REMARK VINA RESULT:      -7.3      4.605      8.633
REMARK  Name = 
REMARK  2 active torsions:
REMARK  status: ('A' for Active; 'I' for Inactive)
REMARK    1  A    between atoms: C_9  and  C_10
REMARK    2  A    between atoms: C_11  and  C_12
REMARK                            x       y       z     vdW  Elec       q    Type
REMARK                         _______ _______ _______ _____ _____    ______ ____
ROOT
ATOM      1 CL   UNL     1       1.479   4.341  17.520  0.00  0.00    +0.000 Cl
ATOM      2  C   UNL     1       3.150   4.537  17.883  0.00  0.00    +0.000 A 
ATOM      3  C   UNL     1       3.860   3.484  18.453  0.00  0.00    +0.000 A 
ATOM      4  C   UNL     1       5.214   3.646  18.746  0.00  0.00    +0.000 A 
ATOM      5  C   UNL     1       5.853   4.857  18.466  0.00  0.00    +0.000 A 
ATOM      6  C   UNL     1       5.141   5.912  17.894  0.00  0.00    +0.000 A 
ATOM      7  C   UNL     1       3.781   5.749  17.602  0.00  0.00    +0.000 A 
ATOM      8  C   UNL     1       5.814   7.171  17.613  0.00  0.00    +0.000 C 
ATOM      9  C   UNL     1       7.124   7.281  17.888  0.00  0.00    +0.000 C 
ATOM     10  C   UNL     1       7.893   6.125  18.482  0.00  0.00    +0.000 C 
ATOM     11  O   UNL     1       7.175   4.921  18.791  0.00  0.00    +0.000 OA
ENDROOT
BRANCH   9  12
ATOM     12  C   UNL     1       7.807   8.543  17.619  0.00  0.00    +0.000 C 
ATOM     13  C   UNL     1       8.454   9.310  18.513  0.00  0.00    +0.000 C 
BRANCH  13  14
ATOM     14  C   UNL     1       9.082  10.597  18.164  0.00  0.00    +0.000 A 
ATOM     15  C   UNL     1      10.446  10.790  18.363  0.00  0.00    +0.000 A 
ATOM     16  C   UNL     1      10.998  12.036  18.071  0.00  0.00    +0.000 A 
ATOM     17  C   UNL     1      10.180  13.047  17.582  0.00  0.00    +0.000 A 
ATOM     18  C   UNL     1       8.838  12.766  17.398  0.00  0.00    +0.000 A 
ATOM     19  N   UNL     1       8.275  11.571  17.678  0.00  0.00    +0.000 NA
ENDBRANCH  13  14
ENDBRANCH   9  12
TORSDOF 2
ENDMDL
MODEL 4
REMARK VINA RESULT:      -7.1      8.309     10.580
REMARK  Name = 
REMARK  2 active torsions:
REMARK  status: ('A' for Active; 'I' for Inactive)
REMARK    1  A    between atoms: C_9  and  C_10
REMARK    2  A    between atoms: C_11  and  C_12
REMARK                            x       y       z     vdW  Elec       q    Type
REMARK                         _______ _______ _______ _____ _____    ______ ____
ROOT
ATOM      1 CL   UNL     1       5.955   4.570  15.094  0.00  0.00    +0.000 Cl
ATOM      2  C   UNL     1       4.977   4.559  16.510  0.00  0.00    +0.000 A 
ATOM      3  C   UNL     1       4.787   3.369  17.207  0.00  0.00    +0.000 A 
ATOM      4  C   UNL     1       3.993   3.362  18.355  0.00  0.00    +0.000 A 
ATOM      5  C   UNL     1       3.397   4.544  18.802  0.00  0.00    +0.000 A 
ATOM      6  C   UNL     1       3.588   5.737  18.104  0.00  0.00    +0.000 A 
ATOM      7  C   UNL     1       4.383   5.742  16.951  0.00  0.00    +0.000 A 
ATOM      8  C   UNL     1       2.956   6.961  18.575  0.00  0.00    +0.000 C 
ATOM      9  C   UNL     1       2.219   6.919  19.696  0.00  0.00    +0.000 C 
ATOM     10  C   UNL     1       2.039   5.629  20.461  0.00  0.00    +0.000 C 
ATOM     11  O   UNL     1       2.638   4.438  19.929  0.00  0.00    +0.000 OA
ENDROOT
BRANCH   9  12
ATOM     12  C   UNL     1       1.573   8.139  20.171  0.00  0.00    +0.000 C 
ATOM     13  C   UNL     1       1.254   8.433  21.443  0.00  0.00    +0.000 C 
BRANCH  13  14
ATOM     14  C   UNL     1       0.561   9.674  21.834  0.00  0.00    +0.000 A 
ATOM     15  C   UNL     1      -0.405   9.654  22.835  0.00  0.00    +0.000 A 
ATOM     16  C   UNL     1      -1.077  10.835  23.144  0.00  0.00    +0.000 A 
ATOM     17  C   UNL     1      -0.762  11.999  22.455  0.00  0.00    +0.000 A 
ATOM     18  C   UNL     1       0.224  11.936  21.486  0.00  0.00    +0.000 A 
ATOM     19  N   UNL     1       0.886  10.804  21.162  0.00  0.00    +0.000 NA
ENDBRANCH  13  14
ENDBRANCH   9  12
TORSDOF 2
ENDMDL
MODEL 5
REMARK VINA RESULT:      -7.1      4.561      8.867
REMARK  Name = 
REMARK  2 active torsions:
REMARK  status: ('A' for Active; 'I' for Inactive)
REMARK    1  A    between atoms: C_9  and  C_10
REMARK    2  A    between atoms: C_11  and  C_12
REMARK                            x       y       z     vdW  Elec       q    Type
REMARK                         _______ _______ _______ _____ _____    ______ ____
ROOT
ATOM      1 CL   UNL     1       5.166   4.162  13.228  0.00  0.00    +0.000 Cl
ATOM      2  C   UNL     1       5.604   4.361  14.881  0.00  0.00    +0.000 A 
ATOM      3  C   UNL     1       5.221   3.402  15.816  0.00  0.00    +0.000 A 
ATOM      4  C   UNL     1       5.577   3.566  17.155  0.00  0.00    +0.000 A 
ATOM      5  C   UNL     1       6.315   4.684  17.553  0.00  0.00    +0.000 A 
ATOM      6  C   UNL     1       6.699   5.644  16.616  0.00  0.00    +0.000 A 
ATOM      7  C   UNL     1       6.339   5.479  15.273  0.00  0.00    +0.000 A 
ATOM      8  C   UNL     1       7.462   6.807  17.043  0.00  0.00    +0.000 C 
ATOM      9  C   UNL     1       7.805   6.918  18.336  0.00  0.00    +0.000 C 
ATOM     10  C   UNL     1       7.409   5.860  19.339  0.00  0.00    +0.000 C 
ATOM     11  O   UNL     1       6.612   4.757  18.881  0.00  0.00    +0.000 OA
ENDROOT
BRANCH   9  12
ATOM     12  C   UNL     1       8.562   8.086  18.777  0.00  0.00    +0.000 C 
ATOM     13  C   UNL     1       8.467   9.333  18.286  0.00  0.00    +0.000 C 
BRANCH  13  14
ATOM     14  C   UNL     1       9.302  10.451  18.760  0.00  0.00    +0.000 A 
ATOM     15  C   UNL     1      10.048  11.204  17.858  0.00  0.00    +0.000 A 
ATOM     16  C   UNL     1      10.866  12.221  18.346  0.00  0.00    +0.000 A 
ATOM     17  C   UNL     1      10.910  12.464  19.713  0.00  0.00    +0.000 A 
ATOM     18  C   UNL     1      10.124  11.680  20.540  0.00  0.00    +0.000 A 
ATOM     19  N   UNL     1       9.328  10.685  20.094  0.00  0.00    +0.000 NA
ENDBRANCH  13  14
ENDBRANCH   9  12
TORSDOF 2
ENDMDL
MODEL 6
REMARK VINA RESULT:      -7.0      4.563      8.855
REMARK  Name = 
REMARK  2 active torsions:
REMARK  status: ('A' for Active; 'I' for Inactive)
REMARK    1  A    between atoms: C_9  and  C_10
REMARK    2  A    between atoms: C_11  and  C_12
REMARK                            x       y       z     vdW  Elec       q    Type
REMARK                         _______ _______ _______ _____ _____    ______ ____
ROOT
ATOM      1 CL   UNL     1       5.530   4.037  13.026  0.00  0.00    +0.000 Cl
ATOM      2  C   UNL     1       5.827   4.275  14.704  0.00  0.00    +0.000 A 
ATOM      3  C   UNL     1       5.353   3.346  15.627  0.00  0.00    +0.000 A 
ATOM      4  C   UNL     1       5.594   3.542  16.987  0.00  0.00    +0.000 A 
ATOM      5  C   UNL     1       6.311   4.662  17.418  0.00  0.00    +0.000 A 
ATOM      6  C   UNL     1       6.785   5.592  16.493  0.00  0.00    +0.000 A 
ATOM      7  C   UNL     1       6.541   5.396  15.129  0.00  0.00    +0.000 A 
ATOM      8  C   UNL     1       7.524   6.759  16.954  0.00  0.00    +0.000 C 
ATOM      9  C   UNL     1       7.756   6.901  18.270  0.00  0.00    +0.000 C 
ATOM     10  C   UNL     1       7.261   5.874  19.261  0.00  0.00    +0.000 C 
ATOM     11  O   UNL     1       6.493   4.768  18.765  0.00  0.00    +0.000 OA
ENDROOT
BRANCH   9  12
ATOM     12  C   UNL     1       8.487   8.072  18.743  0.00  0.00    +0.000 C 
ATOM     13  C   UNL     1       8.468   9.301  18.201  0.00  0.00    +0.000 C 
BRANCH  13  14
ATOM     14  C   UNL     1       9.272  10.423  18.719  0.00  0.00    +0.000 A 
ATOM     15  C   UNL     1       9.510  10.546  20.084  0.00  0.00    +0.000 A 
ATOM     16  C   UNL     1      10.231  11.646  20.545  0.00  0.00    +0.000 A 
ATOM     17  C   UNL     1      10.702  12.582  19.634  0.00  0.00    +0.000 A 
ATOM     18  C   UNL     1      10.436  12.375  18.292  0.00  0.00    +0.000 A 
ATOM     19  N   UNL     1       9.735  11.322  17.819  0.00  0.00    +0.000 NA
ENDBRANCH  13  14
ENDBRANCH   9  12
TORSDOF 2
ENDMDL
MODEL 7
REMARK VINA RESULT:      -6.9      7.617      8.155
REMARK  Name = 
REMARK  2 active torsions:
REMARK  status: ('A' for Active; 'I' for Inactive)
REMARK    1  A    between atoms: C_9  and  C_10
REMARK    2  A    between atoms: C_11  and  C_12
REMARK                            x       y       z     vdW  Elec       q    Type
REMARK                         _______ _______ _______ _____ _____    ______ ____
ROOT
ATOM      1 CL   UNL     1      -0.621  13.063  18.540  0.00  0.00    +0.000 Cl
ATOM      2  C   UNL     1      -0.047  11.600  19.241  0.00  0.00    +0.000 A 
ATOM      3  C   UNL     1      -0.353  11.304  20.567  0.00  0.00    +0.000 A 
ATOM      4  C   UNL     1       0.113  10.117  21.132  0.00  0.00    +0.000 A 
ATOM      5  C   UNL     1       0.880   9.230  20.371  0.00  0.00    +0.000 A 
ATOM      6  C   UNL     1       1.186   9.527  19.043  0.00  0.00    +0.000 A 
ATOM      7  C   UNL     1       0.719  10.720  18.477  0.00  0.00    +0.000 A 
ATOM      8  C   UNL     1       1.992   8.601  18.261  0.00  0.00    +0.000 C 
ATOM      9  C   UNL     1       2.403   7.458  18.834  0.00  0.00    +0.000 C 
ATOM     10  C   UNL     1       2.044   7.132  20.265  0.00  0.00    +0.000 C 
ATOM     11  O   UNL     1       1.293   8.100  21.011  0.00  0.00    +0.000 OA
ENDROOT
BRANCH   9  12
ATOM     12  C   UNL     1       3.220   6.526  18.062  0.00  0.00    +0.000 C 
ATOM     13  C   UNL     1       4.218   6.843  17.220  0.00  0.00    +0.000 C 
BRANCH  13  14
ATOM     14  C   UNL     1       4.967   5.839  16.444  0.00  0.00    +0.000 A 
ATOM     15  C   UNL     1       4.707   4.482  16.614  0.00  0.00    +0.000 A 
ATOM     16  C   UNL     1       5.468   3.558  15.902  0.00  0.00    +0.000 A 
ATOM     17  C   UNL     1       6.457   4.010  15.037  0.00  0.00    +0.000 A 
ATOM     18  C   UNL     1       6.639   5.376  14.914  0.00  0.00    +0.000 A 
ATOM     19  N   UNL     1       5.920   6.293  15.596  0.00  0.00    +0.000 NA
ENDBRANCH  13  14
ENDBRANCH   9  12
TORSDOF 2
ENDMDL
MODEL 8
REMARK VINA RESULT:      -6.9      4.371      8.608
REMARK  Name = 
REMARK  2 active torsions:
REMARK  status: ('A' for Active; 'I' for Inactive)
REMARK    1  A    between atoms: C_9  and  C_10
REMARK    2  A    between atoms: C_11  and  C_12
REMARK                            x       y       z     vdW  Elec       q    Type
REMARK                         _______ _______ _______ _____ _____    ______ ____
ROOT
ATOM      1 CL   UNL     1       2.974   2.866  19.492  0.00  0.00    +0.000 Cl
ATOM      2  C   UNL     1       4.030   3.734  18.447  0.00  0.00    +0.000 A 
ATOM      3  C   UNL     1       4.027   3.461  17.081  0.00  0.00    +0.000 A 
ATOM      4  C   UNL     1       4.885   4.166  16.236  0.00  0.00    +0.000 A 
ATOM      5  C   UNL     1       5.739   5.142  16.758  0.00  0.00    +0.000 A 
ATOM      6  C   UNL     1       5.741   5.415  18.127  0.00  0.00    +0.000 A 
ATOM      7  C   UNL     1       4.881   4.705  18.974  0.00  0.00    +0.000 A 
ATOM      8  C   UNL     1       6.640   6.428  18.660  0.00  0.00    +0.000 C 
ATOM      9  C   UNL     1       7.434   7.101  17.812  0.00  0.00    +0.000 C 
ATOM     10  C   UNL     1       7.405   6.817  16.329  0.00  0.00    +0.000 C 
ATOM     11  O   UNL     1       6.541   5.774  15.856  0.00  0.00    +0.000 OA
ENDROOT
BRANCH   9  12
ATOM     12  C   UNL     1       8.346   8.112  18.339  0.00  0.00    +0.000 C 
ATOM     13  C   UNL     1       8.317   9.430  18.079  0.00  0.00    +0.000 C 
BRANCH  13  14
ATOM     14  C   UNL     1       9.306  10.380  18.620  0.00  0.00    +0.000 A 
ATOM     15  C   UNL     1       9.392  10.599  19.992  0.00  0.00    +0.000 A 
ATOM     16  C   UNL     1      10.303  11.541  20.465  0.00  0.00    +0.000 A 
ATOM     17  C   UNL     1      11.106  12.228  19.563  0.00  0.00    +0.000 A 
ATOM     18  C   UNL     1      10.968  11.937  18.217  0.00  0.00    +0.000 A 
ATOM     19  N   UNL     1      10.090  11.034  17.731  0.00  0.00    +0.000 NA
ENDBRANCH  13  14
ENDBRANCH   9  12
TORSDOF 2
ENDMDL
MODEL 9
REMARK VINA RESULT:      -6.9      4.434      8.670
REMARK  Name = 
REMARK  2 active torsions:
REMARK  status: ('A' for Active; 'I' for Inactive)
REMARK    1  A    between atoms: C_9  and  C_10
REMARK    2  A    between atoms: C_11  and  C_12
REMARK                            x       y       z     vdW  Elec       q    Type
REMARK                         _______ _______ _______ _____ _____    ______ ____
ROOT
ATOM      1 CL   UNL     1       4.065   2.011  19.493  0.00  0.00    +0.000 Cl
ATOM      2  C   UNL     1       4.671   3.270  18.488  0.00  0.00    +0.000 A 
ATOM      3  C   UNL     1       4.266   3.346  17.158  0.00  0.00    +0.000 A 
ATOM      4  C   UNL     1       4.758   4.368  16.345  0.00  0.00    +0.000 A 
ATOM      5  C   UNL     1       5.651   5.310  16.865  0.00  0.00    +0.000 A 
ATOM      6  C   UNL     1       6.057   5.233  18.198  0.00  0.00    +0.000 A 
ATOM      7  C   UNL     1       5.563   4.206  19.012  0.00  0.00    +0.000 A 
ATOM      8  C   UNL     1       6.992   6.215  18.727  0.00  0.00    +0.000 C 
ATOM      9  C   UNL     1       7.426   7.196  17.920  0.00  0.00    +0.000 C 
ATOM     10  C   UNL     1       6.961   7.287  16.486  0.00  0.00    +0.000 C 
ATOM     11  O   UNL     1       6.079   6.267  15.995  0.00  0.00    +0.000 OA
ENDROOT
BRANCH   9  12
ATOM     12  C   UNL     1       8.372   8.180  18.438  0.00  0.00    +0.000 C 
ATOM     13  C   UNL     1       8.374   9.500  18.185  0.00  0.00    +0.000 C 
BRANCH  13  14
ATOM     14  C   UNL     1       9.396  10.420  18.717  0.00  0.00    +0.000 A 
ATOM     15  C   UNL     1      10.334  10.996  17.865  0.00  0.00    +0.000 A 
ATOM     16  C   UNL     1      11.317  11.821  18.408  0.00  0.00    +0.000 A 
ATOM     17  C   UNL     1      11.331  12.056  19.777  0.00  0.00    +0.000 A 
ATOM     18  C   UNL     1      10.351  11.458  20.550  0.00  0.00    +0.000 A 
ATOM     19  N   UNL     1       9.391  10.650  20.051  0.00  0.00    +0.000 NA
ENDBRANCH  13  14
ENDBRANCH   9  12
TORSDOF 2
ENDMDL
