MODEL 1
REMARK VINA RESULT:      -7.4      0.000      0.000
REMARK  Name = 
REMARK  5 active torsions:
REMARK  status: ('A' for Active; 'I' for Inactive)
REMARK    1  A    between atoms: C_1  and  C_2
REMARK    2  A    between atoms: C_2  and  N_3
REMARK    3  A    between atoms: C_2  and  C_12
REMARK    4  A    between atoms: C_4  and  C_6
REMARK    5  A    between atoms: C_15  and  N_16
REMARK                            x       y       z     vdW  Elec       q    Type
REMARK                         _______ _______ _______ _____ _____    ______ ____
ROOT
ATOM      1  C   UNL     1       6.288   5.071  18.830  0.00  0.00    +0.000 C 
ATOM      2  C   UNL     1       5.163   5.522  17.890  0.00  0.00    +0.000 C 
ENDROOT
BRANCH   2   3
ATOM      3  C   UNL     1       3.811   5.077  18.424  0.00  0.00    +0.000 A 
ATOM      4  C   UNL     1       3.483   5.314  19.767  0.00  0.00    +0.000 A 
ATOM      5  C   UNL     1       2.319   4.771  20.323  0.00  0.00    +0.000 A 
ATOM      6  C   UNL     1       1.432   4.027  19.544  0.00  0.00    +0.000 A 
ATOM      7  C   UNL     1       1.752   3.798  18.204  0.00  0.00    +0.000 A 
ATOM      8  C   UNL     1       2.911   4.343  17.640  0.00  0.00    +0.000 A 
BRANCH   6   9
ATOM      9  N   UNL     1       0.389   3.317  20.148  0.00  0.00    +0.000 N 
ATOM     10  H   UNL     1       0.216   3.574  21.113  0.00  0.00    +0.000 HD
ATOM     11  H   UNL     1      -0.460   3.274  19.594  0.00  0.00    +0.000 HD
ENDBRANCH   6   9
ENDBRANCH   2   3
BRANCH   2  12
ATOM     12  N   UNL     1       5.384   5.042  16.537  0.00  0.00    +0.000 N 
ATOM     13  C   UNL     1       6.499   5.415  15.815  0.00  0.00    +0.000 C 
ATOM     14  O   UNL     1       7.357   6.183  16.239  0.00  0.00    +0.000 OA
ATOM     15  H   UNL     1       4.657   4.491  16.105  0.00  0.00    +0.000 HD
BRANCH  13  16
ATOM     16  C   UNL     1       6.608   4.862  14.433  0.00  0.00    +0.000 A 
ATOM     17  C   UNL     1       7.618   5.352  13.593  0.00  0.00    +0.000 A 
ATOM     18  C   UNL     1       7.741   4.868  12.288  0.00  0.00    +0.000 A 
ATOM     19  C   UNL     1       6.866   3.886  11.823  0.00  0.00    +0.000 A 
ATOM     20  C   UNL     1       5.874   3.380  12.661  0.00  0.00    +0.000 A 
ATOM     21  C   UNL     1       5.747   3.862  13.968  0.00  0.00    +0.000 A 
ENDBRANCH  13  16
ENDBRANCH   2  12
TORSDOF 4
ENDMDL
MODEL 2
REMARK VINA RESULT:      -7.4      0.121      1.144
REMARK  Name = 
REMARK  5 active torsions:
REMARK  status: ('A' for Active; 'I' for Inactive)
REMARK    1  A    between atoms: C_1  and  C_2
REMARK    2  A    between atoms: C_2  and  N_3
REMARK    3  A    between atoms: C_2  and  C_12
REMARK    4  A    between atoms: C_4  and  C_6
REMARK    5  A    between atoms: C_15  and  N_16
REMARK                            x       y       z     vdW  Elec       q    Type
REMARK                         _______ _______ _______ _____ _____    ______ ____
ROOT
ATOM      1  C   UNL     1       6.361   4.900  18.885  0.00  0.00    +0.000 C 
ATOM      2  C   UNL     1       5.262   5.420  17.951  0.00  0.00    +0.000 C 
ENDROOT
BRANCH   2   3
ATOM      3  C   UNL     1       3.889   5.032  18.475  0.00  0.00    +0.000 A 
ATOM      4  C   UNL     1       3.567   5.265  19.820  0.00  0.00    +0.000 A 
ATOM      5  C   UNL     1       2.378   4.769  20.365  0.00  0.00    +0.000 A 
ATOM      6  C   UNL     1       1.460   4.078  19.573  0.00  0.00    +0.000 A 
ATOM      7  C   UNL     1       1.773   3.853  18.231  0.00  0.00    +0.000 A 
ATOM      8  C   UNL     1       2.958   4.351  17.678  0.00  0.00    +0.000 A 
BRANCH   6   9
ATOM      9  N   UNL     1       0.382   3.409  20.165  0.00  0.00    +0.000 N 
ATOM     10  H   UNL     1      -0.523   3.815  19.957  0.00  0.00    +0.000 HD
ATOM     11  H   UNL     1       0.399   2.402  20.041  0.00  0.00    +0.000 HD
ENDBRANCH   6   9
ENDBRANCH   2   3
BRANCH   2  12
ATOM     12  N   UNL     1       5.463   4.953  16.590  0.00  0.00    +0.000 N 
ATOM     13  C   UNL     1       6.519   5.404  15.824  0.00  0.00    +0.000 C 
ATOM     14  O   UNL     1       7.336   6.233  16.214  0.00  0.00    +0.000 OA
ATOM     15  H   UNL     1       4.760   4.351  16.187  0.00  0.00    +0.000 HD
BRANCH  13  16
ATOM     16  C   UNL     1       6.612   4.856  14.439  0.00  0.00    +0.000 A 
ATOM     17  C   UNL     1       5.639   3.940  14.014  0.00  0.00    +0.000 A 
ATOM     18  C   UNL     1       5.703   3.395  12.728  0.00  0.00    +0.000 A 
ATOM     19  C   UNL     1       6.728   3.774  11.862  0.00  0.00    +0.000 A 
ATOM     20  C   UNL     1       7.683   4.701  12.270  0.00  0.00    +0.000 A 
ATOM     21  C   UNL     1       7.625   5.249  13.557  0.00  0.00    +0.000 A 
ENDBRANCH  13  16
ENDBRANCH   2  12
TORSDOF 4
ENDMDL
MODEL 3
REMARK VINA RESULT:      -7.3      0.908      1.238
REMARK  Name = 
REMARK  5 active torsions:
REMARK  status: ('A' for Active; 'I' for Inactive)
REMARK    1  A    between atoms: C_1  and  C_2
REMARK    2  A    between atoms: C_2  and  N_3
REMARK    3  A    between atoms: C_2  and  C_12
REMARK    4  A    between atoms: C_4  and  C_6
REMARK    5  A    between atoms: C_15  and  N_16
REMARK                            x       y       z     vdW  Elec       q    Type
REMARK                         _______ _______ _______ _____ _____    ______ ____
ROOT
ATOM      1  C   UNL     1       6.365   5.187  18.960  0.00  0.00    +0.000 C 
ATOM      2  C   UNL     1       5.241   5.268  17.921  0.00  0.00    +0.000 C 
ENDROOT
BRANCH   2   3
ATOM      3  C   UNL     1       4.003   4.537  18.415  0.00  0.00    +0.000 A 
ATOM      4  C   UNL     1       2.757   4.809  17.833  0.00  0.00    +0.000 A 
ATOM      5  C   UNL     1       1.583   4.276  18.378  0.00  0.00    +0.000 A 
ATOM      6  C   UNL     1       1.629   3.421  19.479  0.00  0.00    +0.000 A 
ATOM      7  C   UNL     1       2.870   3.140  20.054  0.00  0.00    +0.000 A 
ATOM      8  C   UNL     1       4.047   3.665  19.512  0.00  0.00    +0.000 A 
BRANCH   6   9
ATOM      9  N   UNL     1       0.450   3.063  20.142  0.00  0.00    +0.000 N 
ATOM     10  H   UNL     1      -0.347   2.930  19.530  0.00  0.00    +0.000 HD
ATOM     11  H   UNL     1       0.561   2.309  20.812  0.00  0.00    +0.000 HD
ENDBRANCH   6   9
ENDBRANCH   2   3
BRANCH   2  12
ATOM     12  N   UNL     1       5.678   4.760  16.632  0.00  0.00    +0.000 N 
ATOM     13  C   UNL     1       5.640   5.546  15.499  0.00  0.00    +0.000 C 
ATOM     14  O   UNL     1       5.221   6.699  15.485  0.00  0.00    +0.000 OA
ATOM     15  H   UNL     1       5.935   3.785  16.569  0.00  0.00    +0.000 HD
BRANCH  13  16
ATOM     16  C   UNL     1       6.109   4.906  14.234  0.00  0.00    +0.000 A 
ATOM     17  C   UNL     1       7.322   5.334  13.676  0.00  0.00    +0.000 A 
ATOM     18  C   UNL     1       7.785   4.768  12.485  0.00  0.00    +0.000 A 
ATOM     19  C   UNL     1       7.046   3.766  11.857  0.00  0.00    +0.000 A 
ATOM     20  C   UNL     1       5.852   3.320  12.419  0.00  0.00    +0.000 A 
ATOM     21  C   UNL     1       5.383   3.884  13.611  0.00  0.00    +0.000 A 
ENDBRANCH  13  16
ENDBRANCH   2  12
TORSDOF 4
ENDMDL
MODEL 4
REMARK VINA RESULT:      -7.1      0.627      1.719
REMARK  Name = 
REMARK  5 active torsions:
REMARK  status: ('A' for Active; 'I' for Inactive)
REMARK    1  A    between atoms: C_1  and  C_2
REMARK    2  A    between atoms: C_2  and  N_3
REMARK    3  A    between atoms: C_2  and  C_12
REMARK    4  A    between atoms: C_4  and  C_6
REMARK    5  A    between atoms: C_15  and  N_16
REMARK                            x       y       z     vdW  Elec       q    Type
REMARK                         _______ _______ _______ _____ _____    ______ ____
ROOT
ATOM      1  C   UNL     1       6.326   5.235  19.074  0.00  0.00    +0.000 C 
ATOM      2  C   UNL     1       5.151   5.301  18.091  0.00  0.00    +0.000 C 
ENDROOT
BRANCH   2   3
ATOM      3  C   UNL     1       3.942   4.572  18.654  0.00  0.00    +0.000 A 
ATOM      4  C   UNL     1       3.188   3.731  17.823  0.00  0.00    +0.000 A 
ATOM      5  C   UNL     1       1.981   3.181  18.270  0.00  0.00    +0.000 A 
ATOM      6  C   UNL     1       1.526   3.413  19.569  0.00  0.00    +0.000 A 
ATOM      7  C   UNL     1       2.281   4.242  20.402  0.00  0.00    +0.000 A 
ATOM      8  C   UNL     1       3.491   4.790  19.964  0.00  0.00    +0.000 A 
BRANCH   6   9
ATOM      9  N   UNL     1       0.230   3.038  19.938  0.00  0.00    +0.000 N 
ATOM     10  H   UNL     1      -0.117   3.504  20.769  0.00  0.00    +0.000 HD
ATOM     11  H   UNL     1      -0.439   3.046  19.175  0.00  0.00    +0.000 HD
ENDBRANCH   6   9
ENDBRANCH   2   3
BRANCH   2  12
ATOM     12  N   UNL     1       5.526   4.779  16.788  0.00  0.00    +0.000 N 
ATOM     13  C   UNL     1       5.830   5.621  15.737  0.00  0.00    +0.000 C 
ATOM     14  O   UNL     1       5.784   6.845  15.812  0.00  0.00    +0.000 OA
ATOM     15  H   UNL     1       5.478   3.781  16.645  0.00  0.00    +0.000 HD
BRANCH  13  16
ATOM     16  C   UNL     1       6.192   4.964  14.447  0.00  0.00    +0.000 A 
ATOM     17  C   UNL     1       5.314   4.011  13.911  0.00  0.00    +0.000 A 
ATOM     18  C   UNL     1       5.627   3.364  12.712  0.00  0.00    +0.000 A 
ATOM     19  C   UNL     1       6.808   3.677  12.040  0.00  0.00    +0.000 A 
ATOM     20  C   UNL     1       7.673   4.640  12.556  0.00  0.00    +0.000 A 
ATOM     21  C   UNL     1       7.365   5.289  13.756  0.00  0.00    +0.000 A 
ENDBRANCH  13  16
ENDBRANCH   2  12
TORSDOF 4
ENDMDL
MODEL 5
REMARK VINA RESULT:      -7.1      2.555      6.731
REMARK  Name = 
REMARK  5 active torsions:
REMARK  status: ('A' for Active; 'I' for Inactive)
REMARK    1  A    between atoms: C_1  and  C_2
REMARK    2  A    between atoms: C_2  and  N_3
REMARK    3  A    between atoms: C_2  and  C_12
REMARK    4  A    between atoms: C_4  and  C_6
REMARK    5  A    between atoms: C_15  and  N_16
REMARK                            x       y       z     vdW  Elec       q    Type
REMARK                         _______ _______ _______ _____ _____    ______ ____
ROOT
ATOM      1  C   UNL     1       5.940   3.787  15.684  0.00  0.00    +0.000 C 
ATOM      2  C   UNL     1       5.310   4.838  16.606  0.00  0.00    +0.000 C 
ENDROOT
BRANCH   2   3
ATOM      3  C   UNL     1       6.377   5.763  17.168  0.00  0.00    +0.000 A 
ATOM      4  C   UNL     1       7.137   5.355  18.274  0.00  0.00    +0.000 A 
ATOM      5  C   UNL     1       8.006   6.248  18.910  0.00  0.00    +0.000 A 
ATOM      6  C   UNL     1       8.177   7.547  18.430  0.00  0.00    +0.000 A 
ATOM      7  C   UNL     1       7.428   7.952  17.323  0.00  0.00    +0.000 A 
ATOM      8  C   UNL     1       6.561   7.063  16.678  0.00  0.00    +0.000 A 
BRANCH   6   9
ATOM      9  N   UNL     1       8.880   8.491  19.186  0.00  0.00    +0.000 N 
ATOM     10  H   UNL     1       8.348   9.326  19.407  0.00  0.00    +0.000 HD
ATOM     11  H   UNL     1       9.358   8.104  19.994  0.00  0.00    +0.000 HD
ENDBRANCH   6   9
ENDBRANCH   2   3
BRANCH   2  12
ATOM     12  N   UNL     1       4.536   4.212  17.665  0.00  0.00    +0.000 N 
ATOM     13  C   UNL     1       3.394   4.802  18.166  0.00  0.00    +0.000 C 
ATOM     14  O   UNL     1       2.965   5.887  17.783  0.00  0.00    +0.000 OA
ATOM     15  H   UNL     1       4.903   3.371  18.086  0.00  0.00    +0.000 HD
BRANCH  13  16
ATOM     16  C   UNL     1       2.693   4.065  19.258  0.00  0.00    +0.000 A 
ATOM     17  C   UNL     1       3.465   3.378  20.205  0.00  0.00    +0.000 A 
ATOM     18  C   UNL     1       2.843   2.665  21.234  0.00  0.00    +0.000 A 
ATOM     19  C   UNL     1       1.452   2.648  21.327  0.00  0.00    +0.000 A 
ATOM     20  C   UNL     1       0.680   3.348  20.402  0.00  0.00    +0.000 A 
ATOM     21  C   UNL     1       1.298   4.062  19.370  0.00  0.00    +0.000 A 
ENDBRANCH  13  16
ENDBRANCH   2  12
TORSDOF 4
ENDMDL
MODEL 6
REMARK VINA RESULT:      -7.1      0.535      1.145
REMARK  Name = 
REMARK  5 active torsions:
REMARK  status: ('A' for Active; 'I' for Inactive)
REMARK    1  A    between atoms: C_1  and  C_2
REMARK    2  A    between atoms: C_2  and  N_3
REMARK    3  A    between atoms: C_2  and  C_12
REMARK    4  A    between atoms: C_4  and  C_6
REMARK    5  A    between atoms: C_15  and  N_16
REMARK                            x       y       z     vdW  Elec       q    Type
REMARK                         _______ _______ _______ _____ _____    ______ ____
ROOT
ATOM      1  C   UNL     1       6.728   5.229  18.964  0.00  0.00    +0.000 C 
ATOM      2  C   UNL     1       5.463   5.487  18.136  0.00  0.00    +0.000 C 
ENDROOT
BRANCH   2   3
ATOM      3  C   UNL     1       4.248   4.876  18.814  0.00  0.00    +0.000 A 
ATOM      4  C   UNL     1       3.790   3.612  18.414  0.00  0.00    +0.000 A 
ATOM      5  C   UNL     1       2.583   3.102  18.903  0.00  0.00    +0.000 A 
ATOM      6  C   UNL     1       1.832   3.814  19.840  0.00  0.00    +0.000 A 
ATOM      7  C   UNL     1       2.291   5.067  20.249  0.00  0.00    +0.000 A 
ATOM      8  C   UNL     1       3.500   5.581  19.768  0.00  0.00    +0.000 A 
BRANCH   6   9
ATOM      9  N   UNL     1       0.536   3.399  20.165  0.00  0.00    +0.000 N 
ATOM     10  H   UNL     1      -0.069   4.145  20.492  0.00  0.00    +0.000 HD
ATOM     11  H   UNL     1       0.096   2.818  19.458  0.00  0.00    +0.000 HD
ENDBRANCH   6   9
ENDBRANCH   2   3
BRANCH   2  12
ATOM     12  N   UNL     1       5.616   4.997  16.777  0.00  0.00    +0.000 N 
ATOM     13  C   UNL     1       6.607   5.478  15.946  0.00  0.00    +0.000 C 
ATOM     14  O   UNL     1       7.402   6.354  16.274  0.00  0.00    +0.000 OA
ATOM     15  H   UNL     1       4.923   4.352  16.425  0.00  0.00    +0.000 HD
BRANCH  13  16
ATOM     16  C   UNL     1       6.654   4.902  14.570  0.00  0.00    +0.000 A 
ATOM     17  C   UNL     1       7.640   5.362  13.685  0.00  0.00    +0.000 A 
ATOM     18  C   UNL     1       7.705   4.856  12.384  0.00  0.00    +0.000 A 
ATOM     19  C   UNL     1       6.798   3.882  11.969  0.00  0.00    +0.000 A 
ATOM     20  C   UNL     1       5.831   3.405  12.851  0.00  0.00    +0.000 A 
ATOM     21  C   UNL     1       5.760   3.909  14.155  0.00  0.00    +0.000 A 
ENDBRANCH  13  16
ENDBRANCH   2  12
TORSDOF 4
ENDMDL
MODEL 7
REMARK VINA RESULT:      -7.0      1.989      2.410
REMARK  Name = 
REMARK  5 active torsions:
REMARK  status: ('A' for Active; 'I' for Inactive)
REMARK    1  A    between atoms: C_1  and  C_2
REMARK    2  A    between atoms: C_2  and  N_3
REMARK    3  A    between atoms: C_2  and  C_12
REMARK    4  A    between atoms: C_4  and  C_6
REMARK    5  A    between atoms: C_15  and  N_16
REMARK                            x       y       z     vdW  Elec       q    Type
REMARK                         _______ _______ _______ _____ _____    ______ ____
ROOT
ATOM      1  C   UNL     1       4.871   3.692  18.907  0.00  0.00    +0.000 C 
ATOM      2  C   UNL     1       5.145   4.991  18.140  0.00  0.00    +0.000 C 
ENDROOT
BRANCH   2   3
ATOM      3  C   UNL     1       4.016   5.986  18.356  0.00  0.00    +0.000 A 
ATOM      4  C   UNL     1       3.857   7.060  17.468  0.00  0.00    +0.000 A 
ATOM      5  C   UNL     1       2.935   8.077  17.736  0.00  0.00    +0.000 A 
ATOM      6  C   UNL     1       2.115   8.022  18.864  0.00  0.00    +0.000 A 
ATOM      7  C   UNL     1       2.264   6.948  19.744  0.00  0.00    +0.000 A 
ATOM      8  C   UNL     1       3.181   5.925  19.479  0.00  0.00    +0.000 A 
BRANCH   6   9
ATOM      9  N   UNL     1       1.351   9.134  19.235  0.00  0.00    +0.000 N 
ATOM     10  H   UNL     1       1.883   9.992  19.324  0.00  0.00    +0.000 HD
ATOM     11  H   UNL     1       0.501   9.253  18.695  0.00  0.00    +0.000 HD
ENDBRANCH   6   9
ENDBRANCH   2   3
BRANCH   2  12
ATOM     12  N   UNL     1       5.362   4.733  16.727  0.00  0.00    +0.000 N 
ATOM     13  C   UNL     1       6.592   4.943  16.138  0.00  0.00    +0.000 C 
ATOM     14  O   UNL     1       7.569   5.379  16.741  0.00  0.00    +0.000 OA
ATOM     15  H   UNL     1       4.565   4.472  16.165  0.00  0.00    +0.000 HD
BRANCH  13  16
ATOM     16  C   UNL     1       6.686   4.649  14.678  0.00  0.00    +0.000 A 
ATOM     17  C   UNL     1       7.653   5.324  13.919  0.00  0.00    +0.000 A 
ATOM     18  C   UNL     1       7.760   5.084  12.546  0.00  0.00    +0.000 A 
ATOM     19  C   UNL     1       6.913   4.162  11.932  0.00  0.00    +0.000 A 
ATOM     20  C   UNL     1       5.966   3.472  12.685  0.00  0.00    +0.000 A 
ATOM     21  C   UNL     1       5.854   3.709  14.059  0.00  0.00    +0.000 A 
ENDBRANCH  13  16
ENDBRANCH   2  12
TORSDOF 4
ENDMDL
MODEL 8
REMARK VINA RESULT:      -6.9      1.887      2.560
REMARK  Name = 
REMARK  5 active torsions:
REMARK  status: ('A' for Active; 'I' for Inactive)
REMARK    1  A    between atoms: C_1  and  C_2
REMARK    2  A    between atoms: C_2  and  N_3
REMARK    3  A    between atoms: C_2  and  C_12
REMARK    4  A    between atoms: C_4  and  C_6
REMARK    5  A    between atoms: C_15  and  N_16
REMARK                            x       y       z     vdW  Elec       q    Type
REMARK                         _______ _______ _______ _____ _____    ______ ____
ROOT
ATOM      1  C   UNL     1       3.566   2.830  17.938  0.00  0.00    +0.000 C 
ATOM      2  C   UNL     1       4.525   4.006  17.714  0.00  0.00    +0.000 C 
ENDROOT
BRANCH   2   3
ATOM      3  C   UNL     1       3.886   5.309  18.167  0.00  0.00    +0.000 A 
ATOM      4  C   UNL     1       3.111   5.333  19.335  0.00  0.00    +0.000 A 
ATOM      5  C   UNL     1       2.379   6.474  19.683  0.00  0.00    +0.000 A 
ATOM      6  C   UNL     1       2.445   7.631  18.905  0.00  0.00    +0.000 A 
ATOM      7  C   UNL     1       3.224   7.613  17.747  0.00  0.00    +0.000 A 
ATOM      8  C   UNL     1       3.962   6.478  17.397  0.00  0.00    +0.000 A 
BRANCH   6   9
ATOM      9  N   UNL     1       1.557   8.688  19.139  0.00  0.00    +0.000 N 
ATOM     10  H   UNL     1       1.464   9.331  18.361  0.00  0.00    +0.000 HD
ATOM     11  H   UNL     1       0.662   8.402  19.522  0.00  0.00    +0.000 HD
ENDBRANCH   6   9
ENDBRANCH   2   3
BRANCH   2  12
ATOM     12  N   UNL     1       4.954   4.079  16.328  0.00  0.00    +0.000 N 
ATOM     13  C   UNL     1       6.283   4.248  15.995  0.00  0.00    +0.000 C 
ATOM     14  O   UNL     1       7.180   4.373  16.823  0.00  0.00    +0.000 OA
ATOM     15  H   UNL     1       4.243   4.085  15.612  0.00  0.00    +0.000 HD
BRANCH  13  16
ATOM     16  C   UNL     1       6.596   4.316  14.537  0.00  0.00    +0.000 A 
ATOM     17  C   UNL     1       5.888   3.481  13.661  0.00  0.00    +0.000 A 
ATOM     18  C   UNL     1       6.165   3.506  12.291  0.00  0.00    +0.000 A 
ATOM     19  C   UNL     1       7.136   4.373  11.793  0.00  0.00    +0.000 A 
ATOM     20  C   UNL     1       7.827   5.222  12.656  0.00  0.00    +0.000 A 
ATOM     21  C   UNL     1       7.554   5.199  14.028  0.00  0.00    +0.000 A 
ENDBRANCH  13  16
ENDBRANCH   2  12
TORSDOF 4
ENDMDL
MODEL 9
REMARK VINA RESULT:      -6.9      1.963      2.334
REMARK  Name = 
REMARK  5 active torsions:
REMARK  status: ('A' for Active; 'I' for Inactive)
REMARK    1  A    between atoms: C_1  and  C_2
REMARK    2  A    between atoms: C_2  and  N_3
REMARK    3  A    between atoms: C_2  and  C_12
REMARK    4  A    between atoms: C_4  and  C_6
REMARK    5  A    between atoms: C_15  and  N_16
REMARK                            x       y       z     vdW  Elec       q    Type
REMARK                         _______ _______ _______ _____ _____    ______ ____
ROOT
ATOM      1  C   UNL     1       4.072   3.226  18.390  0.00  0.00    +0.000 C 
ATOM      2  C   UNL     1       4.837   4.474  17.931  0.00  0.00    +0.000 C 
ENDROOT
BRANCH   2   3
ATOM      3  C   UNL     1       4.053   5.733  18.263  0.00  0.00    +0.000 A 
ATOM      4  C   UNL     1       3.240   5.764  19.404  0.00  0.00    +0.000 A 
ATOM      5  C   UNL     1       2.384   6.845  19.642  0.00  0.00    +0.000 A 
ATOM      6  C   UNL     1       2.359   7.941  18.778  0.00  0.00    +0.000 A 
ATOM      7  C   UNL     1       3.175   7.917  17.646  0.00  0.00    +0.000 A 
ATOM      8  C   UNL     1       4.037   6.842  17.405  0.00  0.00    +0.000 A 
BRANCH   6   9
ATOM      9  N   UNL     1       1.360   8.914  18.904  0.00  0.00    +0.000 N 
ATOM     10  H   UNL     1       1.446   9.492  19.733  0.00  0.00    +0.000 HD
ATOM     11  H   UNL     1       1.199   9.456  18.062  0.00  0.00    +0.000 HD
ENDBRANCH   6   9
ENDBRANCH   2   3
BRANCH   2  12
ATOM     12  N   UNL     1       5.156   4.404  16.515  0.00  0.00    +0.000 N 
ATOM     13  C   UNL     1       6.457   4.494  16.066  0.00  0.00    +0.000 C 
ATOM     14  O   UNL     1       7.422   4.661  16.806  0.00  0.00    +0.000 OA
ATOM     15  H   UNL     1       4.390   4.370  15.858  0.00  0.00    +0.000 HD
BRANCH  13  16
ATOM     16  C   UNL     1       6.654   4.417  14.588  0.00  0.00    +0.000 A 
ATOM     17  C   UNL     1       7.625   5.238  13.998  0.00  0.00    +0.000 A 
ATOM     18  C   UNL     1       7.826   5.204  12.615  0.00  0.00    +0.000 A 
ATOM     19  C   UNL     1       7.071   4.341  11.823  0.00  0.00    +0.000 A 
ATOM     20  C   UNL     1       6.121   3.506  12.406  0.00  0.00    +0.000 A 
ATOM     21  C   UNL     1       5.914   3.537  13.790  0.00  0.00    +0.000 A 
ENDBRANCH  13  16
ENDBRANCH   2  12
TORSDOF 4
ENDMDL
