MODEL 1
REMARK VINA RESULT:      -8.1      0.000      0.000
REMARK  Name = 
REMARK  9 active torsions:
REMARK  status: ('A' for Active; 'I' for Inactive)
REMARK    1  A    between atoms: C_1  and  C_2
REMARK    2  A    between atoms: C_5  and  C_6
REMARK    3  A    between atoms: C_6  and  C_7
REMARK    4  A    between atoms: C_6  and  C_8
REMARK    5  A    between atoms: C_9  and  O_10
REMARK    6  A    between atoms: O_10  and  C_11
REMARK    7  A    between atoms: C_11  and  C_12
REMARK    8  A    between atoms: N_14  and  N_15
REMARK    9  A    between atoms: C_16  and  C_17
REMARK                            x       y       z     vdW  Elec       q    Type
REMARK                         _______ _______ _______ _____ _____    ______ ____
ROOT
ATOM      1  C   UNL     1       3.272   6.197  17.885  0.00  0.00    +0.000 C 
ENDROOT
BRANCH   1   2
ATOM      2  C   UNL     1       2.626   7.231  18.831  0.00  0.00    +0.000 C 
ATOM      3  O   UNL     1       2.455   8.411  18.527  0.00  0.00    +0.000 OA
ATOM      4  N   UNL     1       2.264   6.764  20.084  0.00  0.00    +0.000 N 
ATOM      5  H   UNL     1       1.764   7.396  20.696  0.00  0.00    +0.000 HD
BRANCH   4   6
ATOM      6  N   UNL     1       2.368   5.444  20.355  0.00  0.00    +0.000 NA
ATOM      7  C   UNL     1       1.292   4.721  20.403  0.00  0.00    +0.000 C 
BRANCH   7   8
ATOM      8  C   UNL     1       1.444   3.200  20.409  0.00  0.00    +0.000 C 
ATOM      9  C   UNL     1       1.054   2.522  19.101  0.00  0.00    +0.000 C 
ATOM     10  C   UNL     1       2.132   2.222  18.077  0.00  0.00    +0.000 C 
ATOM     11  C   UNL     1       3.351   1.627  18.733  0.00  0.00    +0.000 C 
ATOM     12  C   UNL     1       3.833   2.548  19.850  0.00  0.00    +0.000 C 
ATOM     13  C   UNL     1       2.769   2.690  20.940  0.00  0.00    +0.000 C 
ENDBRANCH   7   8
ENDBRANCH   4   6
ENDBRANCH   1   2
BRANCH   1  14
ATOM     14  O   UNL     1       4.389   6.748  17.191  0.00  0.00    +0.000 OA
BRANCH  14  20
ATOM     15  C   UNL     1       5.398   3.833  13.314  0.00  0.00    +0.000 C 
ATOM     16  C   UNL     1       5.762   4.400  14.659  0.00  0.00    +0.000 A 
ATOM     17  C   UNL     1       7.081   4.321  15.110  0.00  0.00    +0.000 A 
ATOM     18  C   UNL     1       7.482   5.039  16.245  0.00  0.00    +0.000 A 
ATOM     19  C   UNL     1       6.580   5.864  16.944  0.00  0.00    +0.000 A 
ATOM     20  C   UNL     1       5.232   5.908  16.507  0.00  0.00    +0.000 A 
ATOM     21  C   UNL     1       4.827   5.143  15.397  0.00  0.00    +0.000 A 
BRANCH  19  22
ATOM     22  C   UNL     1       7.059   6.754  18.094  0.00  0.00    +0.000 C 
ATOM     23  C   UNL     1       7.901   5.945  19.083  0.00  0.00    +0.000 C 
ATOM     24  C   UNL     1       7.857   8.006  17.682  0.00  0.00    +0.000 C 
ENDBRANCH  19  22
ENDBRANCH  14  20
ENDBRANCH   1  14
TORSDOF 6
ENDMDL
MODEL 2
REMARK VINA RESULT:      -7.6      1.141      1.609
REMARK  Name = 
REMARK  9 active torsions:
REMARK  status: ('A' for Active; 'I' for Inactive)
REMARK    1  A    between atoms: C_1  and  C_2
REMARK    2  A    between atoms: C_5  and  C_6
REMARK    3  A    between atoms: C_6  and  C_7
REMARK    4  A    between atoms: C_6  and  C_8
REMARK    5  A    between atoms: C_9  and  O_10
REMARK    6  A    between atoms: O_10  and  C_11
REMARK    7  A    between atoms: C_11  and  C_12
REMARK    8  A    between atoms: N_14  and  N_15
REMARK    9  A    between atoms: C_16  and  C_17
REMARK                            x       y       z     vdW  Elec       q    Type
REMARK                         _______ _______ _______ _____ _____    ______ ____
ROOT
ATOM      1  C   UNL     1       4.154   7.353  17.879  0.00  0.00    +0.000 C 
ENDROOT
BRANCH   1   2
ATOM      2  C   UNL     1       2.666   7.723  17.712  0.00  0.00    +0.000 C 
ATOM      3  O   UNL     1       2.282   8.834  17.346  0.00  0.00    +0.000 OA
ATOM      4  N   UNL     1       1.755   6.729  18.029  0.00  0.00    +0.000 N 
ATOM      5  H   UNL     1       0.776   6.913  17.852  0.00  0.00    +0.000 HD
BRANCH   4   6
ATOM      6  N   UNL     1       2.203   5.490  18.329  0.00  0.00    +0.000 NA
ATOM      7  C   UNL     1       1.703   4.468  17.706  0.00  0.00    +0.000 C 
BRANCH   7   8
ATOM      8  C   UNL     1       2.419   3.124  17.833  0.00  0.00    +0.000 C 
ATOM      9  C   UNL     1       3.938   3.208  17.744  0.00  0.00    +0.000 C 
ATOM     10  C   UNL     1       4.746   3.303  19.024  0.00  0.00    +0.000 C 
ATOM     11  C   UNL     1       4.249   2.321  20.052  0.00  0.00    +0.000 C 
ATOM     12  C   UNL     1       2.754   2.527  20.277  0.00  0.00    +0.000 C 
ATOM     13  C   UNL     1       1.965   2.263  18.994  0.00  0.00    +0.000 C 
ENDBRANCH   7   8
ENDBRANCH   4   6
ENDBRANCH   1   2
BRANCH   1  14
ATOM     14  O   UNL     1       4.834   7.337  16.626  0.00  0.00    +0.000 OA
BRANCH  14  20
ATOM     15  C   UNL     1       5.631   3.736  13.318  0.00  0.00    +0.000 C 
ATOM     16  C   UNL     1       5.864   4.349  14.671  0.00  0.00    +0.000 A 
ATOM     17  C   UNL     1       6.954   3.935  15.441  0.00  0.00    +0.000 A 
ATOM     18  C   UNL     1       7.316   4.649  16.592  0.00  0.00    +0.000 A 
ATOM     19  C   UNL     1       6.609   5.801  16.989  0.00  0.00    +0.000 A 
ATOM     20  C   UNL     1       5.479   6.192  16.229  0.00  0.00    +0.000 A 
ATOM     21  C   UNL     1       5.092   5.439  15.104  0.00  0.00    +0.000 A 
BRANCH  19  22
ATOM     22  C   UNL     1       7.097   6.655  18.163  0.00  0.00    +0.000 C 
ATOM     23  C   UNL     1       7.884   5.799  19.158  0.00  0.00    +0.000 C 
ATOM     24  C   UNL     1       7.952   7.880  17.787  0.00  0.00    +0.000 C 
ENDBRANCH  19  22
ENDBRANCH  14  20
ENDBRANCH   1  14
TORSDOF 6
ENDMDL
MODEL 3
REMARK VINA RESULT:      -7.3      3.693      8.110
REMARK  Name = 
REMARK  9 active torsions:
REMARK  status: ('A' for Active; 'I' for Inactive)
REMARK    1  A    between atoms: C_1  and  C_2
REMARK    2  A    between atoms: C_5  and  C_6
REMARK    3  A    between atoms: C_6  and  C_7
REMARK    4  A    between atoms: C_6  and  C_8
REMARK    5  A    between atoms: C_9  and  O_10
REMARK    6  A    between atoms: O_10  and  C_11
REMARK    7  A    between atoms: C_11  and  C_12
REMARK    8  A    between atoms: N_14  and  N_15
REMARK    9  A    between atoms: C_16  and  C_17
REMARK                            x       y       z     vdW  Elec       q    Type
REMARK                         _______ _______ _______ _____ _____    ______ ____
ROOT
ATOM      1  C   UNL     1       6.750   7.410  17.180  0.00  0.00    +0.000 C 
ENDROOT
BRANCH   1   2
ATOM      2  C   UNL     1       7.745   6.800  18.188  0.00  0.00    +0.000 C 
ATOM      3  O   UNL     1       7.816   5.593  18.423  0.00  0.00    +0.000 OA
ATOM      4  N   UNL     1       8.557   7.700  18.858  0.00  0.00    +0.000 N 
ATOM      5  H   UNL     1       9.276   7.325  19.464  0.00  0.00    +0.000 HD
BRANCH   4   6
ATOM      6  N   UNL     1       8.531   9.005  18.509  0.00  0.00    +0.000 NA
ATOM      7  C   UNL     1       9.144   9.872  19.254  0.00  0.00    +0.000 C 
BRANCH   7   8
ATOM      8  C   UNL     1       9.360  11.278  18.696  0.00  0.00    +0.000 C 
ATOM      9  C   UNL     1       9.286  12.388  19.739  0.00  0.00    +0.000 C 
ATOM     10  C   UNL     1      10.569  12.881  20.380  0.00  0.00    +0.000 C 
ATOM     11  C   UNL     1      11.648  13.084  19.348  0.00  0.00    +0.000 C 
ATOM     12  C   UNL     1      11.840  11.799  18.548  0.00  0.00    +0.000 C 
ATOM     13  C   UNL     1      10.565  11.430  17.789  0.00  0.00    +0.000 C 
ENDBRANCH   7   8
ENDBRANCH   4   6
ENDBRANCH   1   2
BRANCH   1  14
ATOM     14  O   UNL     1       5.690   6.505  16.876  0.00  0.00    +0.000 OA
BRANCH  14  20
ATOM     15  C   UNL     1       1.568   9.075  17.851  0.00  0.00    +0.000 C 
ATOM     16  C   UNL     1       2.468   7.894  18.098  0.00  0.00    +0.000 A 
ATOM     17  C   UNL     1       1.971   6.772  18.764  0.00  0.00    +0.000 A 
ATOM     18  C   UNL     1       2.718   5.586  18.800  0.00  0.00    +0.000 A 
ATOM     19  C   UNL     1       3.967   5.490  18.158  0.00  0.00    +0.000 A 
ATOM     20  C   UNL     1       4.486   6.644  17.520  0.00  0.00    +0.000 A 
ATOM     21  C   UNL     1       3.752   7.845  17.533  0.00  0.00    +0.000 A 
BRANCH  19  22
ATOM     22  C   UNL     1       4.709   4.152  18.080  0.00  0.00    +0.000 C 
ATOM     23  C   UNL     1       4.556   3.378  19.391  0.00  0.00    +0.000 C 
ATOM     24  C   UNL     1       4.302   3.229  16.916  0.00  0.00    +0.000 C 
ENDBRANCH  19  22
ENDBRANCH  14  20
ENDBRANCH   1  14
TORSDOF 6
ENDMDL
MODEL 4
REMARK VINA RESULT:      -7.2      3.291      7.663
REMARK  Name = 
REMARK  9 active torsions:
REMARK  status: ('A' for Active; 'I' for Inactive)
REMARK    1  A    between atoms: C_1  and  C_2
REMARK    2  A    between atoms: C_5  and  C_6
REMARK    3  A    between atoms: C_6  and  C_7
REMARK    4  A    between atoms: C_6  and  C_8
REMARK    5  A    between atoms: C_9  and  O_10
REMARK    6  A    between atoms: O_10  and  C_11
REMARK    7  A    between atoms: C_11  and  C_12
REMARK    8  A    between atoms: N_14  and  N_15
REMARK    9  A    between atoms: C_16  and  C_17
REMARK                            x       y       z     vdW  Elec       q    Type
REMARK                         _______ _______ _______ _____ _____    ______ ____
ROOT
ATOM      1  C   UNL     1       5.650   7.128  17.232  0.00  0.00    +0.000 C 
ENDROOT
BRANCH   1   2
ATOM      2  C   UNL     1       7.032   6.696  16.701  0.00  0.00    +0.000 C 
ATOM      3  O   UNL     1       7.206   5.696  16.004  0.00  0.00    +0.000 OA
ATOM      4  N   UNL     1       8.103   7.490  17.078  0.00  0.00    +0.000 N 
ATOM      5  H   UNL     1       9.009   7.280  16.679  0.00  0.00    +0.000 HD
BRANCH   4   6
ATOM      6  N   UNL     1       7.872   8.636  17.757  0.00  0.00    +0.000 NA
ATOM      7  C   UNL     1       8.847   9.196  18.403  0.00  0.00    +0.000 C 
BRANCH   7   8
ATOM      8  C   UNL     1       8.652  10.626  18.906  0.00  0.00    +0.000 C 
ATOM      9  C   UNL     1       9.354  10.931  20.224  0.00  0.00    +0.000 C 
ATOM     10  C   UNL     1      10.735  11.558  20.195  0.00  0.00    +0.000 C 
ATOM     11  C   UNL     1      10.797  12.683  19.195  0.00  0.00    +0.000 C 
ATOM     12  C   UNL     1      10.345  12.180  17.828  0.00  0.00    +0.000 C 
ATOM     13  C   UNL     1       8.892  11.707  17.872  0.00  0.00    +0.000 C 
ENDBRANCH   7   8
ENDBRANCH   4   6
ENDBRANCH   1   2
BRANCH   1  14
ATOM     14  O   UNL     1       5.233   6.318  18.329  0.00  0.00    +0.000 OA
BRANCH  14  20
ATOM     15  C   UNL     1       3.422   1.740  17.768  0.00  0.00    +0.000 C 
ATOM     16  C   UNL     1       3.230   3.232  17.808  0.00  0.00    +0.000 A 
ATOM     17  C   UNL     1       1.946   3.761  17.966  0.00  0.00    +0.000 A 
ATOM     18  C   UNL     1       1.775   5.126  18.234  0.00  0.00    +0.000 A 
ATOM     19  C   UNL     1       2.881   5.989  18.365  0.00  0.00    +0.000 A 
ATOM     20  C   UNL     1       4.178   5.456  18.160  0.00  0.00    +0.000 A 
ATOM     21  C   UNL     1       4.337   4.094  17.842  0.00  0.00    +0.000 A 
BRANCH  19  22
ATOM     22  C   UNL     1       2.693   7.446  18.798  0.00  0.00    +0.000 C 
ATOM     23  C   UNL     1       1.978   8.241  17.703  0.00  0.00    +0.000 C 
ATOM     24  C   UNL     1       1.941   7.657  20.125  0.00  0.00    +0.000 C 
ENDBRANCH  19  22
ENDBRANCH  14  20
ENDBRANCH   1  14
TORSDOF 6
ENDMDL
MODEL 5
REMARK VINA RESULT:      -7.1      4.431      7.402
REMARK  Name = 
REMARK  9 active torsions:
REMARK  status: ('A' for Active; 'I' for Inactive)
REMARK    1  A    between atoms: C_1  and  C_2
REMARK    2  A    between atoms: C_5  and  C_6
REMARK    3  A    between atoms: C_6  and  C_7
REMARK    4  A    between atoms: C_6  and  C_8
REMARK    5  A    between atoms: C_9  and  O_10
REMARK    6  A    between atoms: O_10  and  C_11
REMARK    7  A    between atoms: C_11  and  C_12
REMARK    8  A    between atoms: N_14  and  N_15
REMARK    9  A    between atoms: C_16  and  C_17
REMARK                            x       y       z     vdW  Elec       q    Type
REMARK                         _______ _______ _______ _____ _____    ______ ____
ROOT
ATOM      1  C   UNL     1       1.334   8.977  19.685  0.00  0.00    +0.000 C 
ENDROOT
BRANCH   1   2
ATOM      2  C   UNL     1       1.483   8.232  21.027  0.00  0.00    +0.000 C 
ATOM      3  O   UNL     1       1.242   8.749  22.118  0.00  0.00    +0.000 OA
ATOM      4  N   UNL     1       1.941   6.927  20.949  0.00  0.00    +0.000 N 
ATOM      5  H   UNL     1       1.971   6.386  21.804  0.00  0.00    +0.000 HD
BRANCH   4   6
ATOM      6  N   UNL     1       2.101   6.351  19.737  0.00  0.00    +0.000 NA
ATOM      7  C   UNL     1       3.216   5.747  19.465  0.00  0.00    +0.000 C 
BRANCH   7   8
ATOM      8  C   UNL     1       3.269   4.854  18.226  0.00  0.00    +0.000 C 
ATOM      9  C   UNL     1       4.243   3.685  18.334  0.00  0.00    +0.000 C 
ATOM     10  C   UNL     1       3.724   2.335  18.790  0.00  0.00    +0.000 C 
ATOM     11  C   UNL     1       2.430   1.990  18.100  0.00  0.00    +0.000 C 
ATOM     12  C   UNL     1       1.421   3.116  18.309  0.00  0.00    +0.000 C 
ATOM     13  C   UNL     1       1.920   4.421  17.689  0.00  0.00    +0.000 C 
ENDBRANCH   7   8
ENDBRANCH   4   6
ENDBRANCH   1   2
BRANCH   1  14
ATOM     14  O   UNL     1       0.956  10.338  19.879  0.00  0.00    +0.000 OA
BRANCH  14  20
ATOM     15  C   UNL     1      -2.842  10.028  16.713  0.00  0.00    +0.000 C 
ATOM     16  C   UNL     1      -2.137  10.710  17.854  0.00  0.00    +0.000 A 
ATOM     17  C   UNL     1      -2.837  11.606  18.665  0.00  0.00    +0.000 A 
ATOM     18  C   UNL     1      -2.266  12.070  19.858  0.00  0.00    +0.000 A 
ATOM     19  C   UNL     1      -0.992  11.639  20.274  0.00  0.00    +0.000 A 
ATOM     20  C   UNL     1      -0.268  10.764  19.426  0.00  0.00    +0.000 A 
ATOM     21  C   UNL     1      -0.828  10.343  18.206  0.00  0.00    +0.000 A 
BRANCH  19  22
ATOM     22  C   UNL     1      -0.436  12.038  21.644  0.00  0.00    +0.000 C 
ATOM     23  C   UNL     1      -0.375  13.562  21.774  0.00  0.00    +0.000 C 
ATOM     24  C   UNL     1      -1.192  11.474  22.862  0.00  0.00    +0.000 C 
ENDBRANCH  19  22
ENDBRANCH  14  20
ENDBRANCH   1  14
TORSDOF 6
ENDMDL
MODEL 6
REMARK VINA RESULT:      -7.1      3.847      7.865
REMARK  Name = 
REMARK  9 active torsions:
REMARK  status: ('A' for Active; 'I' for Inactive)
REMARK    1  A    between atoms: C_1  and  C_2
REMARK    2  A    between atoms: C_5  and  C_6
REMARK    3  A    between atoms: C_6  and  C_7
REMARK    4  A    between atoms: C_6  and  C_8
REMARK    5  A    between atoms: C_9  and  O_10
REMARK    6  A    between atoms: O_10  and  C_11
REMARK    7  A    between atoms: C_11  and  C_12
REMARK    8  A    between atoms: N_14  and  N_15
REMARK    9  A    between atoms: C_16  and  C_17
REMARK                            x       y       z     vdW  Elec       q    Type
REMARK                         _______ _______ _______ _____ _____    ______ ____
ROOT
ATOM      1  C   UNL     1       7.037   7.734  17.177  0.00  0.00    +0.000 C 
ENDROOT
BRANCH   1   2
ATOM      2  C   UNL     1       7.894   7.133  18.310  0.00  0.00    +0.000 C 
ATOM      3  O   UNL     1       7.877   5.939  18.611  0.00  0.00    +0.000 OA
ATOM      4  N   UNL     1       8.686   8.028  19.012  0.00  0.00    +0.000 N 
ATOM      5  H   UNL     1       9.320   7.652  19.705  0.00  0.00    +0.000 HD
BRANCH   4   6
ATOM      6  N   UNL     1       8.765   9.311  18.596  0.00  0.00    +0.000 NA
ATOM      7  C   UNL     1       9.339  10.189  19.358  0.00  0.00    +0.000 C 
BRANCH   7   8
ATOM      8  C   UNL     1       9.687  11.550  18.757  0.00  0.00    +0.000 C 
ATOM      9  C   UNL     1       9.330  12.739  19.641  0.00  0.00    +0.000 C 
ATOM     10  C   UNL     1      10.392  13.322  20.554  0.00  0.00    +0.000 C 
ATOM     11  C   UNL     1      11.706  13.471  19.831  0.00  0.00    +0.000 C 
ATOM     12  C   UNL     1      12.113  12.131  19.226  0.00  0.00    +0.000 C 
ATOM     13  C   UNL     1      11.089  11.662  18.192  0.00  0.00    +0.000 C 
ENDBRANCH   7   8
ENDBRANCH   4   6
ENDBRANCH   1   2
BRANCH   1  14
ATOM     14  O   UNL     1       5.679   7.310  17.266  0.00  0.00    +0.000 OA
BRANCH  14  20
ATOM     15  C   UNL     1       6.270   3.768  13.852  0.00  0.00    +0.000 C 
ATOM     16  C   UNL     1       5.506   4.369  15.000  0.00  0.00    +0.000 A 
ATOM     17  C   UNL     1       4.587   3.589  15.706  0.00  0.00    +0.000 A 
ATOM     18  C   UNL     1       4.041   4.058  16.908  0.00  0.00    +0.000 A 
ATOM     19  C   UNL     1       4.413   5.307  17.442  0.00  0.00    +0.000 A 
ATOM     20  C   UNL     1       5.313   6.114  16.700  0.00  0.00    +0.000 A 
ATOM     21  C   UNL     1       5.817   5.656  15.469  0.00  0.00    +0.000 A 
BRANCH  19  22
ATOM     22  C   UNL     1       3.923   5.749  18.823  0.00  0.00    +0.000 C 
ATOM     23  C   UNL     1       2.573   6.462  18.710  0.00  0.00    +0.000 C 
ATOM     24  C   UNL     1       3.799   4.632  19.877  0.00  0.00    +0.000 C 
ENDBRANCH  19  22
ENDBRANCH  14  20
ENDBRANCH   1  14
TORSDOF 6
ENDMDL
MODEL 7
REMARK VINA RESULT:      -7.0      3.659      7.962
REMARK  Name = 
REMARK  9 active torsions:
REMARK  status: ('A' for Active; 'I' for Inactive)
REMARK    1  A    between atoms: C_1  and  C_2
REMARK    2  A    between atoms: C_5  and  C_6
REMARK    3  A    between atoms: C_6  and  C_7
REMARK    4  A    between atoms: C_6  and  C_8
REMARK    5  A    between atoms: C_9  and  O_10
REMARK    6  A    between atoms: O_10  and  C_11
REMARK    7  A    between atoms: C_11  and  C_12
REMARK    8  A    between atoms: N_14  and  N_15
REMARK    9  A    between atoms: C_16  and  C_17
REMARK                            x       y       z     vdW  Elec       q    Type
REMARK                         _______ _______ _______ _____ _____    ______ ____
ROOT
ATOM      1  C   UNL     1       6.655   7.976  17.438  0.00  0.00    +0.000 C 
ENDROOT
BRANCH   1   2
ATOM      2  C   UNL     1       7.760   7.178  18.160  0.00  0.00    +0.000 C 
ATOM      3  O   UNL     1       7.795   5.948  18.192  0.00  0.00    +0.000 OA
ATOM      4  N   UNL     1       8.721   7.930  18.815  0.00  0.00    +0.000 N 
ATOM      5  H   UNL     1       9.504   7.438  19.227  0.00  0.00    +0.000 HD
BRANCH   4   6
ATOM      6  N   UNL     1       8.718   9.274  18.679  0.00  0.00    +0.000 NA
ATOM      7  C   UNL     1       9.195  10.008  19.636  0.00  0.00    +0.000 C 
BRANCH   7   8
ATOM      8  C   UNL     1       9.460  11.486  19.349  0.00  0.00    +0.000 C 
ATOM      9  C   UNL     1      10.429  12.152  20.319  0.00  0.00    +0.000 C 
ATOM     10  C   UNL     1      11.899  12.233  19.953  0.00  0.00    +0.000 C 
ATOM     11  C   UNL     1      12.077  12.663  18.520  0.00  0.00    +0.000 C 
ATOM     12  C   UNL     1      11.287  11.734  17.604  0.00  0.00    +0.000 C 
ATOM     13  C   UNL     1       9.790  11.810  17.906  0.00  0.00    +0.000 C 
ENDBRANCH   7   8
ENDBRANCH   4   6
ENDBRANCH   1   2
BRANCH   1  14
ATOM     14  O   UNL     1       5.995   7.183  16.453  0.00  0.00    +0.000 OA
BRANCH  14  20
ATOM     15  C   UNL     1       2.254   5.596  19.287  0.00  0.00    +0.000 C 
ATOM     16  C   UNL     1       3.337   5.334  18.276  0.00  0.00    +0.000 A 
ATOM     17  C   UNL     1       3.304   4.166  17.511  0.00  0.00    +0.000 A 
ATOM     18  C   UNL     1       4.166   4.015  16.417  0.00  0.00    +0.000 A 
ATOM     19  C   UNL     1       5.069   5.033  16.052  0.00  0.00    +0.000 A 
ATOM     20  C   UNL     1       5.128   6.198  16.857  0.00  0.00    +0.000 A 
ATOM     21  C   UNL     1       4.294   6.319  17.984  0.00  0.00    +0.000 A 
BRANCH  19  22
ATOM     22  C   UNL     1       5.904   4.920  14.774  0.00  0.00    +0.000 C 
ATOM     23  C   UNL     1       7.348   4.540  15.110  0.00  0.00    +0.000 C 
ATOM     24  C   UNL     1       5.373   3.939  13.713  0.00  0.00    +0.000 C 
ENDBRANCH  19  22
ENDBRANCH  14  20
ENDBRANCH   1  14
TORSDOF 6
ENDMDL
MODEL 8
REMARK VINA RESULT:      -7.0      2.634      4.737
REMARK  Name = 
REMARK  9 active torsions:
REMARK  status: ('A' for Active; 'I' for Inactive)
REMARK    1  A    between atoms: C_1  and  C_2
REMARK    2  A    between atoms: C_5  and  C_6
REMARK    3  A    between atoms: C_6  and  C_7
REMARK    4  A    between atoms: C_6  and  C_8
REMARK    5  A    between atoms: C_9  and  O_10
REMARK    6  A    between atoms: O_10  and  C_11
REMARK    7  A    between atoms: C_11  and  C_12
REMARK    8  A    between atoms: N_14  and  N_15
REMARK    9  A    between atoms: C_16  and  C_17
REMARK                            x       y       z     vdW  Elec       q    Type
REMARK                         _______ _______ _______ _____ _____    ______ ____
ROOT
ATOM      1  C   UNL     1       3.147   5.789  17.878  0.00  0.00    +0.000 C 
ENDROOT
BRANCH   1   2
ATOM      2  C   UNL     1       3.154   5.640  19.414  0.00  0.00    +0.000 C 
ATOM      3  O   UNL     1       3.619   4.661  19.997  0.00  0.00    +0.000 OA
ATOM      4  N   UNL     1       2.569   6.675  20.126  0.00  0.00    +0.000 N 
ATOM      5  H   UNL     1       2.631   6.647  21.135  0.00  0.00    +0.000 HD
BRANCH   4   6
ATOM      6  N   UNL     1       2.160   7.783  19.469  0.00  0.00    +0.000 NA
ATOM      7  C   UNL     1       1.277   8.557  20.022  0.00  0.00    +0.000 C 
BRANCH   7   8
ATOM      8  C   UNL     1       1.050   9.941  19.418  0.00  0.00    +0.000 C 
ATOM      9  C   UNL     1       0.050   9.970  18.268  0.00  0.00    +0.000 C 
ATOM     10  C   UNL     1      -1.400  10.304  18.562  0.00  0.00    +0.000 C 
ATOM     11  C   UNL     1      -1.506  11.484  19.493  0.00  0.00    +0.000 C 
ATOM     12  C   UNL     1      -0.690  11.216  20.755  0.00  0.00    +0.000 C 
ATOM     13  C   UNL     1       0.792  11.046  20.423  0.00  0.00    +0.000 C 
ENDBRANCH   7   8
ENDBRANCH   4   6
ENDBRANCH   1   2
BRANCH   1  14
ATOM     14  O   UNL     1       4.337   6.418  17.408  0.00  0.00    +0.000 OA
BRANCH  14  20
ATOM     15  C   UNL     1       5.329   3.774  13.336  0.00  0.00    +0.000 C 
ATOM     16  C   UNL     1       5.740   4.331  14.672  0.00  0.00    +0.000 A 
ATOM     17  C   UNL     1       7.094   4.384  15.014  0.00  0.00    +0.000 A 
ATOM     18  C   UNL     1       7.508   5.101  16.144  0.00  0.00    +0.000 A 
ATOM     19  C   UNL     1       6.583   5.795  16.948  0.00  0.00    +0.000 A 
ATOM     20  C   UNL     1       5.207   5.703  16.622  0.00  0.00    +0.000 A 
ATOM     21  C   UNL     1       4.796   4.938  15.515  0.00  0.00    +0.000 A 
BRANCH  19  22
ATOM     22  C   UNL     1       7.058   6.692  18.095  0.00  0.00    +0.000 C 
ATOM     23  C   UNL     1       7.892   5.887  19.094  0.00  0.00    +0.000 C 
ATOM     24  C   UNL     1       7.859   7.939  17.680  0.00  0.00    +0.000 C 
ENDBRANCH  19  22
ENDBRANCH  14  20
ENDBRANCH   1  14
TORSDOF 6
ENDMDL
MODEL 9
REMARK VINA RESULT:      -6.9      1.162      1.803
REMARK  Name = 
REMARK  9 active torsions:
REMARK  status: ('A' for Active; 'I' for Inactive)
REMARK    1  A    between atoms: C_1  and  C_2
REMARK    2  A    between atoms: C_5  and  C_6
REMARK    3  A    between atoms: C_6  and  C_7
REMARK    4  A    between atoms: C_6  and  C_8
REMARK    5  A    between atoms: C_9  and  O_10
REMARK    6  A    between atoms: O_10  and  C_11
REMARK    7  A    between atoms: C_11  and  C_12
REMARK    8  A    between atoms: N_14  and  N_15
REMARK    9  A    between atoms: C_16  and  C_17
REMARK                            x       y       z     vdW  Elec       q    Type
REMARK                         _______ _______ _______ _____ _____    ______ ____
ROOT
ATOM      1  C   UNL     1       4.492   5.983  18.859  0.00  0.00    +0.000 C 
ENDROOT
BRANCH   1   2
ATOM      2  C   UNL     1       3.539   6.684  17.868  0.00  0.00    +0.000 C 
ATOM      3  O   UNL     1       3.876   7.636  17.164  0.00  0.00    +0.000 OA
ATOM      4  N   UNL     1       2.243   6.198  17.827  0.00  0.00    +0.000 N 
ATOM      5  H   UNL     1       1.618   6.581  17.129  0.00  0.00    +0.000 HD
BRANCH   4   6
ATOM      6  N   UNL     1       1.927   5.089  18.532  0.00  0.00    +0.000 NA
ATOM      7  C   UNL     1       1.661   3.990  17.898  0.00  0.00    +0.000 C 
BRANCH   7   8
ATOM      8  C   UNL     1       1.604   2.690  18.699  0.00  0.00    +0.000 C 
ATOM      9  C   UNL     1       2.966   2.137  19.101  0.00  0.00    +0.000 C 
ATOM     10  C   UNL     1       3.526   2.483  20.468  0.00  0.00    +0.000 C 
ATOM     11  C   UNL     1       2.473   2.345  21.535  0.00  0.00    +0.000 C 
ATOM     12  C   UNL     1       1.253   3.185  21.164  0.00  0.00    +0.000 C 
ATOM     13  C   UNL     1       0.628   2.693  19.858  0.00  0.00    +0.000 C 
ENDBRANCH   7   8
ENDBRANCH   4   6
ENDBRANCH   1   2
BRANCH   1  14
ATOM     14  O   UNL     1       4.977   4.749  18.336  0.00  0.00    +0.000 OA
BRANCH  14  20
ATOM     15  C   UNL     1       5.217   3.705  13.498  0.00  0.00    +0.000 C 
ATOM     16  C   UNL     1       5.858   4.193  14.769  0.00  0.00    +0.000 A 
ATOM     17  C   UNL     1       7.046   4.925  14.708  0.00  0.00    +0.000 A 
ATOM     18  C   UNL     1       7.531   5.578  15.850  0.00  0.00    +0.000 A 
ATOM     19  C   UNL     1       6.832   5.527  17.072  0.00  0.00    +0.000 A 
ATOM     20  C   UNL     1       5.650   4.748  17.139  0.00  0.00    +0.000 A 
ATOM     21  C   UNL     1       5.198   4.055  16.000  0.00  0.00    +0.000 A 
BRANCH  19  22
ATOM     22  C   UNL     1       7.291   6.358  18.274  0.00  0.00    +0.000 C 
ATOM     23  C   UNL     1       8.205   5.530  19.179  0.00  0.00    +0.000 C 
ATOM     24  C   UNL     1       8.003   7.682  17.938  0.00  0.00    +0.000 C 
ENDBRANCH  19  22
ENDBRANCH  14  20
ENDBRANCH   1  14
TORSDOF 6
ENDMDL
