MODEL 1
REMARK VINA RESULT:      -7.4      0.000      0.000
REMARK  Name = 
REMARK  8 active torsions:
REMARK  status: ('A' for Active; 'I' for Inactive)
REMARK    1  A    between atoms: C_1  and  C_2
REMARK    2  A    between atoms: C_2  and  O_3
REMARK    3  A    between atoms: O_3  and  C_4
REMARK    4  A    between atoms: C_4  and  C_6
REMARK    5  A    between atoms: C_11  and  C_12
REMARK    6  A    between atoms: N_14  and  C_15
REMARK    7  A    between atoms: C_16  and  N_17
REMARK    8  A    between atoms: N_17  and  C_18
REMARK                            x       y       z     vdW  Elec       q    Type
REMARK                         _______ _______ _______ _____ _____    ______ ____
ROOT
ATOM      1  C   UNL     1       4.986   5.605  17.796  0.00  0.00    +0.000 A 
ATOM      2  C   UNL     1       5.975   4.683  18.140  0.00  0.00    +0.000 A 
ATOM      3  N   UNL     1       5.813   3.594  18.924  0.00  0.00    +0.000 NA
ATOM      4  C   UNL     1       4.559   3.476  19.401  0.00  0.00    +0.000 A 
ATOM      5  C   UNL     1       3.463   4.297  19.147  0.00  0.00    +0.000 A 
ATOM      6  C   UNL     1       2.430   3.726  19.970  0.00  0.00    +0.000 A 
ATOM      7  C   UNL     1       1.030   4.147  20.229  0.00  0.00    +0.000 C 
ATOM      8  N   UNL     1       2.844   2.628  20.613  0.00  0.00    +0.000 NA
ATOM      9  N   UNL     1       4.133   2.512  20.269  0.00  0.00    +0.000 N 
ATOM     10  C   UNL     1       4.946   1.473  20.853  0.00  0.00    +0.000 C 
ATOM     11  C   UNL     1       3.656   5.408  18.265  0.00  0.00    +0.000 A 
ENDROOT
BRANCH   1  12
ATOM     12  C   UNL     1       5.471   6.783  17.016  0.00  0.00    +0.000 C 
ATOM     13  O   UNL     1       5.264   6.926  15.817  0.00  0.00    +0.000 OA
BRANCH  12  14
ATOM     14  O   UNL     1       6.249   7.595  17.771  0.00  0.00    +0.000 OA
BRANCH  14  16
ATOM     15  C   UNL     1       8.241   8.990  17.998  0.00  0.00    +0.000 C 
ATOM     16  C   UNL     1       7.617   7.765  17.361  0.00  0.00    +0.000 C 
ENDBRANCH  14  16
ENDBRANCH  12  14
ENDBRANCH   1  12
BRANCH  11  17
ATOM     17  N   UNL     1       2.621   6.296  17.902  0.00  0.00    +0.000 N 
ATOM     18  H   UNL     1       1.879   5.854  17.357  0.00  0.00    +0.000 HD
BRANCH  17  19
ATOM     19  C   UNL     1       2.180   7.486  18.507  0.00  0.00    +0.000 A 
ATOM     20  C   UNL     1       1.960   7.485  19.892  0.00  0.00    +0.000 A 
ATOM     21  C   UNL     1       1.430   8.607  20.530  0.00  0.00    +0.000 A 
ATOM     22  C   UNL     1       1.132   9.744  19.784  0.00  0.00    +0.000 A 
ATOM     23 BR   UNL     1       0.419  11.268  20.643  0.00  0.00    +0.000 Br
ATOM     24  C   UNL     1       1.352   9.764  18.410  0.00  0.00    +0.000 A 
ATOM     25  C   UNL     1       1.875   8.636  17.774  0.00  0.00    +0.000 A 
ENDBRANCH  17  19
ENDBRANCH  11  17
TORSDOF 5
ENDMDL
MODEL 2
REMARK VINA RESULT:      -7.4      2.519      4.834
REMARK  Name = 
REMARK  8 active torsions:
REMARK  status: ('A' for Active; 'I' for Inactive)
REMARK    1  A    between atoms: C_1  and  C_2
REMARK    2  A    between atoms: C_2  and  O_3
REMARK    3  A    between atoms: O_3  and  C_4
REMARK    4  A    between atoms: C_4  and  C_6
REMARK    5  A    between atoms: C_11  and  C_12
REMARK    6  A    between atoms: N_14  and  C_15
REMARK    7  A    between atoms: C_16  and  N_17
REMARK    8  A    between atoms: N_17  and  C_18
REMARK                            x       y       z     vdW  Elec       q    Type
REMARK                         _______ _______ _______ _____ _____    ______ ____
ROOT
ATOM      1  C   UNL     1       3.288   4.369  17.661  0.00  0.00    +0.000 A 
ATOM      2  C   UNL     1       3.732   3.491  16.672  0.00  0.00    +0.000 A 
ATOM      3  N   UNL     1       4.865   3.616  15.944  0.00  0.00    +0.000 NA
ATOM      4  C   UNL     1       5.556   4.732  16.241  0.00  0.00    +0.000 A 
ATOM      5  C   UNL     1       5.258   5.697  17.201  0.00  0.00    +0.000 A 
ATOM      6  C   UNL     1       6.300   6.673  17.017  0.00  0.00    +0.000 A 
ATOM      7  C   UNL     1       6.546   7.986  17.664  0.00  0.00    +0.000 C 
ATOM      8  N   UNL     1       7.179   6.303  16.078  0.00  0.00    +0.000 NA
ATOM      9  N   UNL     1       6.697   5.144  15.615  0.00  0.00    +0.000 N 
ATOM     10  C   UNL     1       7.348   4.482  14.510  0.00  0.00    +0.000 C 
ATOM     11  C   UNL     1       4.082   5.503  17.993  0.00  0.00    +0.000 A 
ENDROOT
BRANCH   1  12
ATOM     12  C   UNL     1       1.939   4.054  18.219  0.00  0.00    +0.000 C 
ATOM     13  O   UNL     1       0.939   3.922  17.525  0.00  0.00    +0.000 OA
BRANCH  12  14
ATOM     14  O   UNL     1       1.948   4.049  19.574  0.00  0.00    +0.000 OA
BRANCH  14  16
ATOM     15  C   UNL     1       1.357   2.707  21.526  0.00  0.00    +0.000 C 
ATOM     16  C   UNL     1       0.884   3.348  20.238  0.00  0.00    +0.000 C 
ENDBRANCH  14  16
ENDBRANCH  12  14
ENDBRANCH   1  12
BRANCH  11  17
ATOM     17  N   UNL     1       3.685   6.389  19.018  0.00  0.00    +0.000 N 
ATOM     18  H   UNL     1       4.419   6.569  19.706  0.00  0.00    +0.000 HD
BRANCH  17  19
ATOM     19  C   UNL     1       2.706   7.398  19.029  0.00  0.00    +0.000 A 
ATOM     20  C   UNL     1       2.494   8.130  17.852  0.00  0.00    +0.000 A 
ATOM     21  C   UNL     1       1.606   9.206  17.833  0.00  0.00    +0.000 A 
ATOM     22  C   UNL     1       0.913   9.545  18.991  0.00  0.00    +0.000 A 
ATOM     23 BR   UNL     1      -0.295  10.997  18.971  0.00  0.00    +0.000 Br
ATOM     24  C   UNL     1       1.106   8.823  20.167  0.00  0.00    +0.000 A 
ATOM     25  C   UNL     1       2.003   7.752  20.183  0.00  0.00    +0.000 A 
ENDBRANCH  17  19
ENDBRANCH  11  17
TORSDOF 5
ENDMDL
MODEL 3
REMARK VINA RESULT:      -7.3      2.560      4.631
REMARK  Name = 
REMARK  8 active torsions:
REMARK  status: ('A' for Active; 'I' for Inactive)
REMARK    1  A    between atoms: C_1  and  C_2
REMARK    2  A    between atoms: C_2  and  O_3
REMARK    3  A    between atoms: O_3  and  C_4
REMARK    4  A    between atoms: C_4  and  C_6
REMARK    5  A    between atoms: C_11  and  C_12
REMARK    6  A    between atoms: N_14  and  C_15
REMARK    7  A    between atoms: C_16  and  N_17
REMARK    8  A    between atoms: N_17  and  C_18
REMARK                            x       y       z     vdW  Elec       q    Type
REMARK                         _______ _______ _______ _____ _____    ______ ____
ROOT
ATOM      1  C   UNL     1       2.840   4.210  18.027  0.00  0.00    +0.000 A 
ATOM      2  C   UNL     1       3.236   3.271  17.074  0.00  0.00    +0.000 A 
ATOM      3  N   UNL     1       4.313   3.364  16.263  0.00  0.00    +0.000 NA
ATOM      4  C   UNL     1       4.995   4.512  16.430  0.00  0.00    +0.000 A 
ATOM      5  C   UNL     1       4.741   5.538  17.337  0.00  0.00    +0.000 A 
ATOM      6  C   UNL     1       5.743   6.518  17.012  0.00  0.00    +0.000 A 
ATOM      7  C   UNL     1       6.001   7.879  17.545  0.00  0.00    +0.000 C 
ATOM      8  N   UNL     1       6.565   6.098  16.043  0.00  0.00    +0.000 NA
ATOM      9  N   UNL     1       6.081   4.899  15.697  0.00  0.00    +0.000 N 
ATOM     10  C   UNL     1       6.670   4.171  14.600  0.00  0.00    +0.000 C 
ATOM     11  C   UNL     1       3.627   5.380  18.222  0.00  0.00    +0.000 A 
ENDROOT
BRANCH   1  12
ATOM     12  C   UNL     1       1.540   3.910  18.700  0.00  0.00    +0.000 C 
ATOM     13  O   UNL     1       0.573   3.440  18.114  0.00  0.00    +0.000 OA
BRANCH  12  14
ATOM     14  O   UNL     1       1.538   4.327  19.990  0.00  0.00    +0.000 OA
BRANCH  14  16
ATOM     15  C   UNL     1       2.481   2.653  21.496  0.00  0.00    +0.000 C 
ATOM     16  C   UNL     1       1.232   3.348  20.998  0.00  0.00    +0.000 C 
ENDBRANCH  14  16
ENDBRANCH  12  14
ENDBRANCH   1  12
BRANCH  11  17
ATOM     17  N   UNL     1       3.280   6.330  19.207  0.00  0.00    +0.000 N 
ATOM     18  H   UNL     1       3.950   6.381  19.976  0.00  0.00    +0.000 HD
BRANCH  17  19
ATOM     19  C   UNL     1       2.502   7.497  19.120  0.00  0.00    +0.000 A 
ATOM     20  C   UNL     1       1.820   7.929  20.267  0.00  0.00    +0.000 A 
ATOM     21  C   UNL     1       0.957   9.024  20.214  0.00  0.00    +0.000 A 
ATOM     22  C   UNL     1       0.785   9.704  19.011  0.00  0.00    +0.000 A 
ATOM     23 BR   UNL     1      -0.379  11.190  18.933  0.00  0.00    +0.000 Br
ATOM     24  C   UNL     1       1.460   9.293  17.865  0.00  0.00    +0.000 A 
ATOM     25  C   UNL     1       2.316   8.191  17.921  0.00  0.00    +0.000 A 
ENDBRANCH  17  19
ENDBRANCH  11  17
TORSDOF 5
ENDMDL
MODEL 4
REMARK VINA RESULT:      -7.0      0.952      1.589
REMARK  Name = 
REMARK  8 active torsions:
REMARK  status: ('A' for Active; 'I' for Inactive)
REMARK    1  A    between atoms: C_1  and  C_2
REMARK    2  A    between atoms: C_2  and  O_3
REMARK    3  A    between atoms: O_3  and  C_4
REMARK    4  A    between atoms: C_4  and  C_6
REMARK    5  A    between atoms: C_11  and  C_12
REMARK    6  A    between atoms: N_14  and  C_15
REMARK    7  A    between atoms: C_16  and  N_17
REMARK    8  A    between atoms: N_17  and  C_18
REMARK                            x       y       z     vdW  Elec       q    Type
REMARK                         _______ _______ _______ _____ _____    ______ ____
ROOT
ATOM      1  C   UNL     1       5.000   5.544  17.854  0.00  0.00    +0.000 A 
ATOM      2  C   UNL     1       5.965   4.607  18.224  0.00  0.00    +0.000 A 
ATOM      3  N   UNL     1       5.768   3.527  19.013  0.00  0.00    +0.000 NA
ATOM      4  C   UNL     1       4.504   3.437  19.468  0.00  0.00    +0.000 A 
ATOM      5  C   UNL     1       3.428   4.276  19.186  0.00  0.00    +0.000 A 
ATOM      6  C   UNL     1       2.369   3.732  19.996  0.00  0.00    +0.000 A 
ATOM      7  C   UNL     1       0.973   4.181  20.225  0.00  0.00    +0.000 C 
ATOM      8  N   UNL     1       2.751   2.632  20.655  0.00  0.00    +0.000 NA
ATOM      9  N   UNL     1       4.043   2.489  20.336  0.00  0.00    +0.000 N 
ATOM     10  C   UNL     1       4.825   1.440  20.943  0.00  0.00    +0.000 C 
ATOM     11  C   UNL     1       3.658   5.376  18.300  0.00  0.00    +0.000 A 
ENDROOT
BRANCH   1  12
ATOM     12  C   UNL     1       5.521   6.706  17.073  0.00  0.00    +0.000 C 
ATOM     13  O   UNL     1       5.270   7.871  17.356  0.00  0.00    +0.000 OA
BRANCH  12  14
ATOM     14  O   UNL     1       6.196   6.304  15.970  0.00  0.00    +0.000 OA
BRANCH  14  16
ATOM     15  C   UNL     1       6.387   4.487  14.350  0.00  0.00    +0.000 C 
ATOM     16  C   UNL     1       5.480   5.502  15.015  0.00  0.00    +0.000 C 
ENDBRANCH  14  16
ENDBRANCH  12  14
ENDBRANCH   1  12
BRANCH  11  17
ATOM     17  N   UNL     1       2.647   6.281  17.911  0.00  0.00    +0.000 N 
ATOM     18  H   UNL     1       1.933   5.859  17.314  0.00  0.00    +0.000 HD
BRANCH  17  19
ATOM     19  C   UNL     1       2.180   7.454  18.528  0.00  0.00    +0.000 A 
ATOM     20  C   UNL     1       2.003   7.448  19.919  0.00  0.00    +0.000 A 
ATOM     21  C   UNL     1       1.451   8.550  20.572  0.00  0.00    +0.000 A 
ATOM     22  C   UNL     1       1.086   9.673  19.835  0.00  0.00    +0.000 A 
ATOM     23 BR   UNL     1       0.342  11.170  20.713  0.00  0.00    +0.000 Br
ATOM     24  C   UNL     1       1.262   9.698  18.453  0.00  0.00    +0.000 A 
ATOM     25  C   UNL     1       1.807   8.589  17.803  0.00  0.00    +0.000 A 
ENDBRANCH  17  19
ENDBRANCH  11  17
TORSDOF 5
ENDMDL
MODEL 5
REMARK VINA RESULT:      -6.9      1.384      1.735
REMARK  Name = 
REMARK  8 active torsions:
REMARK  status: ('A' for Active; 'I' for Inactive)
REMARK    1  A    between atoms: C_1  and  C_2
REMARK    2  A    between atoms: C_2  and  O_3
REMARK    3  A    between atoms: O_3  and  C_4
REMARK    4  A    between atoms: C_4  and  C_6
REMARK    5  A    between atoms: C_11  and  C_12
REMARK    6  A    between atoms: N_14  and  C_15
REMARK    7  A    between atoms: C_16  and  N_17
REMARK    8  A    between atoms: N_17  and  C_18
REMARK                            x       y       z     vdW  Elec       q    Type
REMARK                         _______ _______ _______ _____ _____    ______ ____
ROOT
ATOM      1  C   UNL     1       4.543   5.694  17.116  0.00  0.00    +0.000 A 
ATOM      2  C   UNL     1       4.697   4.443  16.519  0.00  0.00    +0.000 A 
ATOM      3  N   UNL     1       4.222   3.269  16.993  0.00  0.00    +0.000 NA
ATOM      4  C   UNL     1       3.581   3.402  18.169  0.00  0.00    +0.000 A 
ATOM      5  C   UNL     1       3.334   4.571  18.886  0.00  0.00    +0.000 A 
ATOM      6  C   UNL     1       2.682   4.093  20.076  0.00  0.00    +0.000 A 
ATOM      7  C   UNL     1       2.209   4.800  21.293  0.00  0.00    +0.000 C 
ATOM      8  N   UNL     1       2.496   2.768  20.054  0.00  0.00    +0.000 NA
ATOM      9  N   UNL     1       3.063   2.375  18.907  0.00  0.00    +0.000 N 
ATOM     10  C   UNL     1       3.136   0.972  18.580  0.00  0.00    +0.000 C 
ATOM     11  C   UNL     1       3.799   5.803  18.325  0.00  0.00    +0.000 A 
ENDROOT
BRANCH   1  12
ATOM     12  C   UNL     1       5.275   6.806  16.439  0.00  0.00    +0.000 C 
ATOM     13  O   UNL     1       5.222   7.009  15.232  0.00  0.00    +0.000 OA
BRANCH  12  14
ATOM     14  O   UNL     1       6.080   7.472  17.302  0.00  0.00    +0.000 OA
BRANCH  14  16
ATOM     15  C   UNL     1       7.778   6.349  18.651  0.00  0.00    +0.000 C 
ATOM     16  C   UNL     1       7.460   7.073  17.359  0.00  0.00    +0.000 C 
ENDBRANCH  14  16
ENDBRANCH  12  14
ENDBRANCH   1  12
BRANCH  11  17
ATOM     17  N   UNL     1       3.587   7.059  18.934  0.00  0.00    +0.000 N 
ATOM     18  H   UNL     1       4.446   7.598  19.061  0.00  0.00    +0.000 HD
BRANCH  17  19
ATOM     19  C   UNL     1       2.449   7.883  18.964  0.00  0.00    +0.000 A 
ATOM     20  C   UNL     1       2.087   8.559  17.790  0.00  0.00    +0.000 A 
ATOM     21  C   UNL     1       1.026   9.464  17.788  0.00  0.00    +0.000 A 
ATOM     22  C   UNL     1       0.310   9.686  18.961  0.00  0.00    +0.000 A 
ATOM     23 BR   UNL     1      -1.131  10.907  18.964  0.00  0.00    +0.000 Br
ATOM     24  C   UNL     1       0.652   9.018  20.134  0.00  0.00    +0.000 A 
ATOM     25  C   UNL     1       1.721   8.118  20.133  0.00  0.00    +0.000 A 
ENDBRANCH  17  19
ENDBRANCH  11  17
TORSDOF 5
ENDMDL
MODEL 6
REMARK VINA RESULT:      -6.8      1.692      1.788
REMARK  Name = 
REMARK  8 active torsions:
REMARK  status: ('A' for Active; 'I' for Inactive)
REMARK    1  A    between atoms: C_1  and  C_2
REMARK    2  A    between atoms: C_2  and  O_3
REMARK    3  A    between atoms: O_3  and  C_4
REMARK    4  A    between atoms: C_4  and  C_6
REMARK    5  A    between atoms: C_11  and  C_12
REMARK    6  A    between atoms: N_14  and  C_15
REMARK    7  A    between atoms: C_16  and  N_17
REMARK    8  A    between atoms: N_17  and  C_18
REMARK                            x       y       z     vdW  Elec       q    Type
REMARK                         _______ _______ _______ _____ _____    ______ ____
ROOT
ATOM      1  C   UNL     1       4.242   5.743  17.085  0.00  0.00    +0.000 A 
ATOM      2  C   UNL     1       4.237   4.440  16.587  0.00  0.00    +0.000 A 
ATOM      3  N   UNL     1       3.518   3.403  17.073  0.00  0.00    +0.000 NA
ATOM      4  C   UNL     1       2.792   3.734  18.158  0.00  0.00    +0.000 A 
ATOM      5  C   UNL     1       2.681   4.981  18.769  0.00  0.00    +0.000 A 
ATOM      6  C   UNL     1       1.836   4.714  19.903  0.00  0.00    +0.000 A 
ATOM      7  C   UNL     1       1.371   5.585  21.012  0.00  0.00    +0.000 C 
ATOM      8  N   UNL     1       1.425   3.441  19.940  0.00  0.00    +0.000 NA
ATOM      9  N   UNL     1       2.031   2.870  18.892  0.00  0.00    +0.000 N 
ATOM     10  C   UNL     1       1.891   1.453  18.661  0.00  0.00    +0.000 C 
ATOM     11  C   UNL     1       3.408   6.070  18.191  0.00  0.00    +0.000 A 
ENDROOT
BRANCH   1  12
ATOM     12  C   UNL     1       5.224   6.660  16.430  0.00  0.00    +0.000 C 
ATOM     13  O   UNL     1       5.294   6.813  15.217  0.00  0.00    +0.000 OA
BRANCH  12  14
ATOM     14  O   UNL     1       6.081   7.199  17.331  0.00  0.00    +0.000 OA
BRANCH  14  16
ATOM     15  C   UNL     1       7.611   5.994  18.804  0.00  0.00    +0.000 C 
ATOM     16  C   UNL     1       7.386   6.604  17.436  0.00  0.00    +0.000 C 
ENDBRANCH  14  16
ENDBRANCH  12  14
ENDBRANCH   1  12
BRANCH  11  17
ATOM     17  N   UNL     1       3.357   7.388  18.695  0.00  0.00    +0.000 N 
ATOM     18  H   UNL     1       4.261   7.864  18.676  0.00  0.00    +0.000 HD
BRANCH  17  19
ATOM     19  C   UNL     1       2.292   8.301  18.767  0.00  0.00    +0.000 A 
ATOM     20  C   UNL     1       1.762   8.607  20.029  0.00  0.00    +0.000 A 
ATOM     21  C   UNL     1       0.643   9.431  20.152  0.00  0.00    +0.000 A 
ATOM     22  C   UNL     1       0.056   9.966  19.009  0.00  0.00    +0.000 A 
ATOM     23 BR   UNL     1      -1.458  11.085  19.168  0.00  0.00    +0.000 Br
ATOM     24  C   UNL     1       0.573   9.678  17.748  0.00  0.00    +0.000 A 
ATOM     25  C   UNL     1       1.689   8.847  17.630  0.00  0.00    +0.000 A 
ENDBRANCH  17  19
ENDBRANCH  11  17
TORSDOF 5
ENDMDL
MODEL 7
REMARK VINA RESULT:      -6.7      2.393      4.416
REMARK  Name = 
REMARK  8 active torsions:
REMARK  status: ('A' for Active; 'I' for Inactive)
REMARK    1  A    between atoms: C_1  and  C_2
REMARK    2  A    between atoms: C_2  and  O_3
REMARK    3  A    between atoms: O_3  and  C_4
REMARK    4  A    between atoms: C_4  and  C_6
REMARK    5  A    between atoms: C_11  and  C_12
REMARK    6  A    between atoms: N_14  and  C_15
REMARK    7  A    between atoms: C_16  and  N_17
REMARK    8  A    between atoms: N_17  and  C_18
REMARK                            x       y       z     vdW  Elec       q    Type
REMARK                         _______ _______ _______ _____ _____    ______ ____
ROOT
ATOM      1  C   UNL     1       3.363   4.584  19.698  0.00  0.00    +0.000 A 
ATOM      2  C   UNL     1       4.497   3.841  20.029  0.00  0.00    +0.000 A 
ATOM      3  N   UNL     1       5.707   3.926  19.434  0.00  0.00    +0.000 NA
ATOM      4  C   UNL     1       5.729   4.808  18.417  0.00  0.00    +0.000 A 
ATOM      5  C   UNL     1       4.696   5.629  17.970  0.00  0.00    +0.000 A 
ATOM      6  C   UNL     1       5.275   6.291  16.831  0.00  0.00    +0.000 A 
ATOM      7  C   UNL     1       4.703   7.249  15.852  0.00  0.00    +0.000 C 
ATOM      8  N   UNL     1       6.556   5.951  16.645  0.00  0.00    +0.000 NA
ATOM      9  N   UNL     1       6.797   5.044  17.599  0.00  0.00    +0.000 N 
ATOM     10  C   UNL     1       8.074   4.375  17.654  0.00  0.00    +0.000 C 
ATOM     11  C   UNL     1       3.445   5.556  18.662  0.00  0.00    +0.000 A 
ENDROOT
BRANCH   1  12
ATOM     12  C   UNL     1       2.124   4.200  20.439  0.00  0.00    +0.000 C 
ATOM     13  O   UNL     1       2.093   4.023  21.651  0.00  0.00    +0.000 OA
BRANCH  12  14
ATOM     14  O   UNL     1       1.090   3.967  19.595  0.00  0.00    +0.000 OA
BRANCH  14  16
ATOM     15  C   UNL     1       1.857   2.230  18.059  0.00  0.00    +0.000 C 
ATOM     16  C   UNL     1       0.888   2.612  19.159  0.00  0.00    +0.000 C 
ENDBRANCH  14  16
ENDBRANCH  12  14
ENDBRANCH   1  12
BRANCH  11  17
ATOM     17  N   UNL     1       2.329   6.355  18.328  0.00  0.00    +0.000 N 
ATOM     18  H   UNL     1       1.513   5.812  18.042  0.00  0.00    +0.000 HD
BRANCH  17  19
ATOM     19  C   UNL     1       1.971   7.648  18.745  0.00  0.00    +0.000 A 
ATOM     20  C   UNL     1       1.640   7.844  20.094  0.00  0.00    +0.000 A 
ATOM     21  C   UNL     1       1.184   9.083  20.544  0.00  0.00    +0.000 A 
ATOM     22  C   UNL     1       1.071  10.140  19.645  0.00  0.00    +0.000 A 
ATOM     23 BR   UNL     1       0.457  11.822  20.247  0.00  0.00    +0.000 Br
ATOM     24  C   UNL     1       1.402   9.965  18.303  0.00  0.00    +0.000 A 
ATOM     25  C   UNL     1       1.851   8.720  17.857  0.00  0.00    +0.000 A 
ENDBRANCH  17  19
ENDBRANCH  11  17
TORSDOF 5
ENDMDL
MODEL 8
REMARK VINA RESULT:      -6.5      5.091      8.365
REMARK  Name = 
REMARK  8 active torsions:
REMARK  status: ('A' for Active; 'I' for Inactive)
REMARK    1  A    between atoms: C_1  and  C_2
REMARK    2  A    between atoms: C_2  and  O_3
REMARK    3  A    between atoms: O_3  and  C_4
REMARK    4  A    between atoms: C_4  and  C_6
REMARK    5  A    between atoms: C_11  and  C_12
REMARK    6  A    between atoms: N_14  and  C_15
REMARK    7  A    between atoms: C_16  and  N_17
REMARK    8  A    between atoms: N_17  and  C_18
REMARK                            x       y       z     vdW  Elec       q    Type
REMARK                         _______ _______ _______ _____ _____    ______ ____
ROOT
ATOM      1  C   UNL     1       0.265  12.735  19.973  0.00  0.00    +0.000 A 
ATOM      2  C   UNL     1      -0.724  13.450  20.648  0.00  0.00    +0.000 A 
ATOM      3  N   UNL     1      -2.060  13.296  20.501  0.00  0.00    +0.000 NA
ATOM      4  C   UNL     1      -2.381  12.371  19.578  0.00  0.00    +0.000 A 
ATOM      5  C   UNL     1      -1.521  11.569  18.830  0.00  0.00    +0.000 A 
ATOM      6  C   UNL     1      -2.419  10.837  17.976  0.00  0.00    +0.000 A 
ATOM      7  C   UNL     1      -2.166   9.859  16.888  0.00  0.00    +0.000 C 
ATOM      8  N   UNL     1      -3.702  11.123  18.226  0.00  0.00    +0.000 NA
ATOM      9  N   UNL     1      -3.650  12.062  19.178  0.00  0.00    +0.000 N 
ATOM     10  C   UNL     1      -4.864  12.686  19.645  0.00  0.00    +0.000 C 
ATOM     11  C   UNL     1      -0.115  11.716  19.054  0.00  0.00    +0.000 A 
ENDROOT
BRANCH   1  12
ATOM     12  C   UNL     1       1.662  13.195  20.237  0.00  0.00    +0.000 C 
ATOM     13  O   UNL     1       2.098  13.404  21.362  0.00  0.00    +0.000 OA
BRANCH  12  14
ATOM     14  O   UNL     1       2.328  13.454  19.086  0.00  0.00    +0.000 OA
BRANCH  14  16
ATOM     15  C   UNL     1       3.715  15.035  17.846  0.00  0.00    +0.000 C 
ATOM     16  C   UNL     1       2.492  14.834  18.716  0.00  0.00    +0.000 C 
ENDBRANCH  14  16
ENDBRANCH  12  14
ENDBRANCH   1  12
BRANCH  11  17
ATOM     17  N   UNL     1       0.859  10.944  18.385  0.00  0.00    +0.000 N 
ATOM     18  H   UNL     1       1.549  11.507  17.884  0.00  0.00    +0.000 HD
BRANCH  17  19
ATOM     19  C   UNL     1       1.337   9.648  18.642  0.00  0.00    +0.000 A 
ATOM     20  C   UNL     1       1.141   9.110  19.923  0.00  0.00    +0.000 A 
ATOM     21  C   UNL     1       1.679   7.869  20.264  0.00  0.00    +0.000 A 
ATOM     22  C   UNL     1       2.405   7.152  19.318  0.00  0.00    +0.000 A 
ATOM     23 BR   UNL     1       3.133   5.468  19.772  0.00  0.00    +0.000 Br
ATOM     24  C   UNL     1       2.603   7.668  18.039  0.00  0.00    +0.000 A 
ATOM     25  C   UNL     1       2.070   8.915  17.705  0.00  0.00    +0.000 A 
ENDBRANCH  17  19
ENDBRANCH  11  17
TORSDOF 5
ENDMDL
MODEL 9
REMARK VINA RESULT:      -6.5      8.016     11.273
REMARK  Name = 
REMARK  8 active torsions:
REMARK  status: ('A' for Active; 'I' for Inactive)
REMARK    1  A    between atoms: C_1  and  C_2
REMARK    2  A    between atoms: C_2  and  O_3
REMARK    3  A    between atoms: O_3  and  C_4
REMARK    4  A    between atoms: C_4  and  C_6
REMARK    5  A    between atoms: C_11  and  C_12
REMARK    6  A    between atoms: N_14  and  C_15
REMARK    7  A    between atoms: C_16  and  N_17
REMARK    8  A    between atoms: N_17  and  C_18
REMARK                            x       y       z     vdW  Elec       q    Type
REMARK                         _______ _______ _______ _____ _____    ______ ____
ROOT
ATOM      1  C   UNL     1      -3.016  12.243  22.922  0.00  0.00    +0.000 A 
ATOM      2  C   UNL     1      -3.720  12.063  24.112  0.00  0.00    +0.000 A 
ATOM      3  N   UNL     1      -4.991  12.455  24.354  0.00  0.00    +0.000 NA
ATOM      4  C   UNL     1      -5.546  13.099  23.310  0.00  0.00    +0.000 A 
ATOM      5  C   UNL     1      -4.987  13.349  22.059  0.00  0.00    +0.000 A 
ATOM      6  C   UNL     1      -6.005  14.120  21.395  0.00  0.00    +0.000 A 
ATOM      7  C   UNL     1      -6.036  14.770  20.061  0.00  0.00    +0.000 C 
ATOM      8  N   UNL     1      -7.100  14.269  22.149  0.00  0.00    +0.000 NA
ATOM      9  N   UNL     1      -6.790  13.663  23.302  0.00  0.00    +0.000 N 
ATOM     10  C   UNL     1      -7.715  13.699  24.408  0.00  0.00    +0.000 C 
ATOM     11  C   UNL     1      -3.661  12.868  21.818  0.00  0.00    +0.000 A 
ENDROOT
BRANCH   1  12
ATOM     12  C   UNL     1      -1.583  11.820  22.971  0.00  0.00    +0.000 C 
ATOM     13  O   UNL     1      -0.659  12.539  22.613  0.00  0.00    +0.000 OA
BRANCH  12  14
ATOM     14  O   UNL     1      -1.458  10.524  23.347  0.00  0.00    +0.000 OA
BRANCH  14  16
ATOM     15  C   UNL     1      -0.337   8.890  21.921  0.00  0.00    +0.000 C 
ATOM     16  C   UNL     1      -0.207   9.874  23.064  0.00  0.00    +0.000 C 
ENDBRANCH  14  16
ENDBRANCH  12  14
ENDBRANCH   1  12
BRANCH  11  17
ATOM     17  N   UNL     1      -2.992  13.028  20.585  0.00  0.00    +0.000 N 
ATOM     18  H   UNL     1      -2.112  13.540  20.664  0.00  0.00    +0.000 HD
BRANCH  17  19
ATOM     19  C   UNL     1      -3.040  12.260  19.409  0.00  0.00    +0.000 A 
ATOM     20  C   UNL     1      -1.828  11.886  18.810  0.00  0.00    +0.000 A 
ATOM     21  C   UNL     1      -1.815  11.207  17.591  0.00  0.00    +0.000 A 
ATOM     22  C   UNL     1      -3.020  10.884  16.973  0.00  0.00    +0.000 A 
ATOM     23 BR   UNL     1      -3.010   9.961  15.325  0.00  0.00    +0.000 Br
ATOM     24  C   UNL     1      -4.232  11.241  17.558  0.00  0.00    +0.000 A 
ATOM     25  C   UNL     1      -4.239  11.928  18.774  0.00  0.00    +0.000 A 
ENDBRANCH  17  19
ENDBRANCH  11  17
TORSDOF 5
ENDMDL
