MODEL 1
REMARK VINA RESULT:      -8.5      0.000      0.000
REMARK  Name = 
REMARK  4 active torsions:
REMARK  status: ('A' for Active; 'I' for Inactive)
REMARK    1  A    between atoms: C_2  and  C_5
REMARK    2  A    between atoms: C_8  and  N_9
REMARK    3  A    between atoms: N_14  and  C_15
REMARK    4  A    between atoms: C_18  and  C_19
REMARK                            x       y       z     vdW  Elec       q    Type
REMARK                         _______ _______ _______ _____ _____    ______ ____
ROOT
ATOM      1  N   UNL     1       1.507   6.674  21.008  0.00  0.00    +0.000 N 
ATOM      2  C   UNL     1       2.082   5.577  20.463  0.00  0.00    +0.000 A 
ATOM      3  N   UNL     1       3.068   5.539  19.591  0.00  0.00    +0.000 NA
ATOM      4  C   UNL     1       3.309   4.236  19.187  0.00  0.00    +0.000 A 
ATOM      5  C   UNL     1       4.224   3.764  18.223  0.00  0.00    +0.000 A 
ATOM      6  N   UNL     1       5.114   4.621  17.560  0.00  0.00    +0.000 N 
ATOM      7  N   UNL     1       4.248   2.428  17.972  0.00  0.00    +0.000 NA
ATOM      8  C   UNL     1       3.443   1.613  18.670  0.00  0.00    +0.000 A 
ATOM      9  N   UNL     1       2.544   1.954  19.602  0.00  0.00    +0.000 NA
ATOM     10  C   UNL     1       2.523   3.281  19.806  0.00  0.00    +0.000 A 
ATOM     11  S   UNL     1       1.467   4.017  20.917  0.00  0.00    +0.000 S 
ATOM     12  H   UNL     1       0.740   6.498  21.645  0.00  0.00    +0.000 HD
ATOM     13  H   UNL     1       5.174   5.544  17.978  0.00  0.00    +0.000 HD
ENDROOT
BRANCH   1  17
ATOM     14  C   UNL     1       1.271  10.599  19.401  0.00  0.00    +0.000 A 
ATOM     15  C   UNL     1       0.962  10.335  20.738  0.00  0.00    +0.000 A 
ATOM     16  C   UNL     1       1.074   9.043  21.257  0.00  0.00    +0.000 A 
ATOM     17  C   UNL     1       1.479   7.969  20.448  0.00  0.00    +0.000 A 
ATOM     18  C   UNL     1       1.826   8.251  19.120  0.00  0.00    +0.000 A 
ATOM     19  C   UNL     1       1.715   9.541  18.597  0.00  0.00    +0.000 A 
BRANCH  14  21
ATOM     20  F   UNL     1      -0.062  12.194  18.197  0.00  0.00    +0.000 F 
ATOM     21  C   UNL     1       1.130  11.984  18.820  0.00  0.00    +0.000 C 
ATOM     22  F   UNL     1       2.089  12.261  17.894  0.00  0.00    +0.000 F 
ATOM     23  F   UNL     1       1.232  12.957  19.766  0.00  0.00    +0.000 F 
ENDBRANCH  14  21
ENDBRANCH   1  17
BRANCH   6  24
ATOM     24  C   UNL     1       5.557   4.546  16.228  0.00  0.00    +0.000 A 
ATOM     25  C   UNL     1       4.722   4.133  15.182  0.00  0.00    +0.000 A 
ATOM     26  C   UNL     1       5.189   4.049  13.869  0.00  0.00    +0.000 A 
ATOM     27  C   UNL     1       6.524   4.350  13.569  0.00  0.00    +0.000 A 
ATOM     28  C   UNL     1       7.377   4.729  14.616  0.00  0.00    +0.000 A 
ATOM     29  C   UNL     1       6.894   4.834  15.928  0.00  0.00    +0.000 A 
BRANCH  27  30
ATOM     30  C   UNL     1       7.034   4.280  12.152  0.00  0.00    +0.000 C 
ATOM     31  F   UNL     1       7.693   3.122  11.862  0.00  0.00    +0.000 F 
ATOM     32  F   UNL     1       6.029   4.372  11.235  0.00  0.00    +0.000 F 
ATOM     33  F   UNL     1       7.902   5.287  11.854  0.00  0.00    +0.000 F 
ENDBRANCH  27  30
ENDBRANCH   6  24
TORSDOF 4
ENDMDL
MODEL 2
REMARK VINA RESULT:      -8.5      0.068      1.289
REMARK  Name = 
REMARK  4 active torsions:
REMARK  status: ('A' for Active; 'I' for Inactive)
REMARK    1  A    between atoms: C_2  and  C_5
REMARK    2  A    between atoms: C_8  and  N_9
REMARK    3  A    between atoms: N_14  and  C_15
REMARK    4  A    between atoms: C_18  and  C_19
REMARK                            x       y       z     vdW  Elec       q    Type
REMARK                         _______ _______ _______ _____ _____    ______ ____
ROOT
ATOM      1  N   UNL     1       1.494   6.632  20.990  0.00  0.00    +0.000 N 
ATOM      2  C   UNL     1       2.074   5.531  20.458  0.00  0.00    +0.000 A 
ATOM      3  N   UNL     1       3.079   5.488  19.608  0.00  0.00    +0.000 NA
ATOM      4  C   UNL     1       3.320   4.182  19.209  0.00  0.00    +0.000 A 
ATOM      5  C   UNL     1       4.253   3.705  18.265  0.00  0.00    +0.000 A 
ATOM      6  N   UNL     1       5.162   4.556  17.621  0.00  0.00    +0.000 N 
ATOM      7  N   UNL     1       4.274   2.369  18.015  0.00  0.00    +0.000 NA
ATOM      8  C   UNL     1       3.450   1.559  18.697  0.00  0.00    +0.000 A 
ATOM      9  N   UNL     1       2.533   1.906  19.609  0.00  0.00    +0.000 NA
ATOM     10  C   UNL     1       2.515   3.233  19.812  0.00  0.00    +0.000 A 
ATOM     11  S   UNL     1       1.440   3.976  20.899  0.00  0.00    +0.000 S 
ATOM     12  H   UNL     1       0.713   6.461  21.611  0.00  0.00    +0.000 HD
ATOM     13  H   UNL     1       5.219   5.479  18.040  0.00  0.00    +0.000 HD
ENDROOT
BRANCH   1  17
ATOM     14  C   UNL     1       1.317  10.559  19.378  0.00  0.00    +0.000 A 
ATOM     15  C   UNL     1       0.987  10.298  20.711  0.00  0.00    +0.000 A 
ATOM     16  C   UNL     1       1.080   9.005  21.233  0.00  0.00    +0.000 A 
ATOM     17  C   UNL     1       1.486   7.927  20.429  0.00  0.00    +0.000 A 
ATOM     18  C   UNL     1       1.854   8.205  19.106  0.00  0.00    +0.000 A 
ATOM     19  C   UNL     1       1.762   9.496  18.581  0.00  0.00    +0.000 A 
BRANCH  14  21
ATOM     20  F   UNL     1       2.153  12.231  17.870  0.00  0.00    +0.000 F 
ATOM     21  C   UNL     1       1.197  11.944  18.796  0.00  0.00    +0.000 C 
ATOM     22  F   UNL     1       1.291  12.918  19.743  0.00  0.00    +0.000 F 
ATOM     23  F   UNL     1       0.003  12.144  18.172  0.00  0.00    +0.000 F 
ENDBRANCH  14  21
ENDBRANCH   1  17
BRANCH   6  24
ATOM     24  C   UNL     1       5.633   4.478  16.299  0.00  0.00    +0.000 A 
ATOM     25  C   UNL     1       6.949   4.812  15.952  0.00  0.00    +0.000 A 
ATOM     26  C   UNL     1       7.390   4.743  14.629  0.00  0.00    +0.000 A 
ATOM     27  C   UNL     1       6.512   4.364  13.605  0.00  0.00    +0.000 A 
ATOM     28  C   UNL     1       5.183   4.063  13.940  0.00  0.00    +0.000 A 
ATOM     29  C   UNL     1       4.754   4.112  15.273  0.00  0.00    +0.000 A 
BRANCH  27  30
ATOM     30  C   UNL     1       6.983   4.269  12.176  0.00  0.00    +0.000 C 
ATOM     31  F   UNL     1       5.975   4.329  11.261  0.00  0.00    +0.000 F 
ATOM     32  F   UNL     1       7.842   5.275  11.846  0.00  0.00    +0.000 F 
ATOM     33  F   UNL     1       7.652   3.110  11.918  0.00  0.00    +0.000 F 
ENDBRANCH  27  30
ENDBRANCH   6  24
TORSDOF 4
ENDMDL
MODEL 3
REMARK VINA RESULT:      -8.2      0.302      1.256
REMARK  Name = 
REMARK  4 active torsions:
REMARK  status: ('A' for Active; 'I' for Inactive)
REMARK    1  A    between atoms: C_2  and  C_5
REMARK    2  A    between atoms: C_8  and  N_9
REMARK    3  A    between atoms: N_14  and  C_15
REMARK    4  A    between atoms: C_18  and  C_19
REMARK                            x       y       z     vdW  Elec       q    Type
REMARK                         _______ _______ _______ _____ _____    ______ ____
ROOT
ATOM      1  N   UNL     1       1.419   6.660  20.967  0.00  0.00    +0.000 N 
ATOM      2  C   UNL     1       1.998   5.555  20.443  0.00  0.00    +0.000 A 
ATOM      3  N   UNL     1       3.011   5.505  19.603  0.00  0.00    +0.000 NA
ATOM      4  C   UNL     1       3.249   4.197  19.209  0.00  0.00    +0.000 A 
ATOM      5  C   UNL     1       4.188   3.712  18.275  0.00  0.00    +0.000 A 
ATOM      6  N   UNL     1       5.108   4.558  17.638  0.00  0.00    +0.000 N 
ATOM      7  N   UNL     1       4.205   2.376  18.028  0.00  0.00    +0.000 NA
ATOM      8  C   UNL     1       3.370   1.572  18.704  0.00  0.00    +0.000 A 
ATOM      9  N   UNL     1       2.447   1.925  19.606  0.00  0.00    +0.000 NA
ATOM     10  C   UNL     1       2.434   3.253  19.806  0.00  0.00    +0.000 A 
ATOM     11  S   UNL     1       1.352   4.004  20.881  0.00  0.00    +0.000 S 
ATOM     12  H   UNL     1       0.631   6.494  21.581  0.00  0.00    +0.000 HD
ATOM     13  H   UNL     1       5.166   5.481  18.056  0.00  0.00    +0.000 HD
ENDROOT
BRANCH   1  17
ATOM     14  C   UNL     1       1.581  10.518  19.196  0.00  0.00    +0.000 A 
ATOM     15  C   UNL     1       1.898   9.365  18.472  0.00  0.00    +0.000 A 
ATOM     16  C   UNL     1       1.811   8.102  19.062  0.00  0.00    +0.000 A 
ATOM     17  C   UNL     1       1.423   7.954  20.403  0.00  0.00    +0.000 A 
ATOM     18  C   UNL     1       1.067   9.111  21.109  0.00  0.00    +0.000 A 
ATOM     19  C   UNL     1       1.154  10.376  20.523  0.00  0.00    +0.000 A 
BRANCH  14  21
ATOM     20  F   UNL     1       0.509  12.391  18.141  0.00  0.00    +0.000 F 
ATOM     21  C   UNL     1       1.696  11.889  18.580  0.00  0.00    +0.000 C 
ATOM     22  F   UNL     1       2.530  11.909  17.503  0.00  0.00    +0.000 F 
ATOM     23  F   UNL     1       2.190  12.811  19.451  0.00  0.00    +0.000 F 
ENDBRANCH  14  21
ENDBRANCH   1  17
BRANCH   6  24
ATOM     24  C   UNL     1       5.592   4.474  16.321  0.00  0.00    +0.000 A 
ATOM     25  C   UNL     1       6.900   4.840  15.979  0.00  0.00    +0.000 A 
ATOM     26  C   UNL     1       7.354   4.765  14.660  0.00  0.00    +0.000 A 
ATOM     27  C   UNL     1       6.494   4.347  13.636  0.00  0.00    +0.000 A 
ATOM     28  C   UNL     1       5.172   4.013  13.965  0.00  0.00    +0.000 A 
ATOM     29  C   UNL     1       4.731   4.069  15.293  0.00  0.00    +0.000 A 
BRANCH  27  30
ATOM     30  C   UNL     1       6.980   4.245  12.212  0.00  0.00    +0.000 C 
ATOM     31  F   UNL     1       7.657   3.093  11.944  0.00  0.00    +0.000 F 
ATOM     32  F   UNL     1       5.956   4.289  11.311  0.00  0.00    +0.000 F 
ATOM     33  F   UNL     1       7.821   5.260  11.868  0.00  0.00    +0.000 F 
ENDBRANCH  27  30
ENDBRANCH   6  24
TORSDOF 4
ENDMDL
MODEL 4
REMARK VINA RESULT:      -8.2      0.284      1.132
REMARK  Name = 
REMARK  4 active torsions:
REMARK  status: ('A' for Active; 'I' for Inactive)
REMARK    1  A    between atoms: C_2  and  C_5
REMARK    2  A    between atoms: C_8  and  N_9
REMARK    3  A    between atoms: N_14  and  C_15
REMARK    4  A    between atoms: C_18  and  C_19
REMARK                            x       y       z     vdW  Elec       q    Type
REMARK                         _______ _______ _______ _____ _____    ______ ____
ROOT
ATOM      1  N   UNL     1       1.461   6.706  20.959  0.00  0.00    +0.000 N 
ATOM      2  C   UNL     1       2.031   5.608  20.413  0.00  0.00    +0.000 A 
ATOM      3  N   UNL     1       3.027   5.567  19.553  0.00  0.00    +0.000 NA
ATOM      4  C   UNL     1       3.261   4.264  19.142  0.00  0.00    +0.000 A 
ATOM      5  C   UNL     1       4.182   3.790  18.185  0.00  0.00    +0.000 A 
ATOM      6  N   UNL     1       5.087   4.644  17.538  0.00  0.00    +0.000 N 
ATOM      7  N   UNL     1       4.196   2.456  17.925  0.00  0.00    +0.000 NA
ATOM      8  C   UNL     1       3.377   1.644  18.610  0.00  0.00    +0.000 A 
ATOM      9  N   UNL     1       2.470   1.987  19.533  0.00  0.00    +0.000 NA
ATOM     10  C   UNL     1       2.459   3.312  19.747  0.00  0.00    +0.000 A 
ATOM     11  S   UNL     1       1.397   4.051  20.850  0.00  0.00    +0.000 S 
ATOM     12  H   UNL     1       0.685   6.533  21.587  0.00  0.00    +0.000 HD
ATOM     13  H   UNL     1       5.151   5.563  17.963  0.00  0.00    +0.000 HD
ENDROOT
BRANCH   1  17
ATOM     14  C   UNL     1       1.586  10.585  19.232  0.00  0.00    +0.000 A 
ATOM     15  C   UNL     1       1.970   9.450  18.513  0.00  0.00    +0.000 A 
ATOM     16  C   UNL     1       1.894   8.179  19.087  0.00  0.00    +0.000 A 
ATOM     17  C   UNL     1       1.451   8.006  20.408  0.00  0.00    +0.000 A 
ATOM     18  C   UNL     1       1.029   9.145  21.106  0.00  0.00    +0.000 A 
ATOM     19  C   UNL     1       1.104  10.417  20.536  0.00  0.00    +0.000 A 
BRANCH  14  21
ATOM     20  F   UNL     1       0.498  12.450  18.178  0.00  0.00    +0.000 F 
ATOM     21  C   UNL     1       1.686  11.966  18.633  0.00  0.00    +0.000 C 
ATOM     22  F   UNL     1       2.539  12.013  17.573  0.00  0.00    +0.000 F 
ATOM     23  F   UNL     1       2.147  12.886  19.524  0.00  0.00    +0.000 F 
ENDBRANCH  14  21
ENDBRANCH   1  17
BRANCH   6  24
ATOM     24  C   UNL     1       5.545   4.573  16.210  0.00  0.00    +0.000 A 
ATOM     25  C   UNL     1       4.766   4.035  15.178  0.00  0.00    +0.000 A 
ATOM     26  C   UNL     1       5.249   3.959  13.869  0.00  0.00    +0.000 A 
ATOM     27  C   UNL     1       6.544   4.396  13.563  0.00  0.00    +0.000 A 
ATOM     28  C   UNL     1       7.343   4.903  14.599  0.00  0.00    +0.000 A 
ATOM     29  C   UNL     1       6.843   4.997  15.904  0.00  0.00    +0.000 A 
BRANCH  27  30
ATOM     30  C   UNL     1       7.067   4.335  12.150  0.00  0.00    +0.000 C 
ATOM     31  F   UNL     1       7.938   5.338  11.844  0.00  0.00    +0.000 F 
ATOM     32  F   UNL     1       7.736   3.175  11.895  0.00  0.00    +0.000 F 
ATOM     33  F   UNL     1       6.077   4.406  11.218  0.00  0.00    +0.000 F 
ENDBRANCH  27  30
ENDBRANCH   6  24
TORSDOF 4
ENDMDL
MODEL 5
REMARK VINA RESULT:      -8.1      6.211      9.225
REMARK  Name = 
REMARK  4 active torsions:
REMARK  status: ('A' for Active; 'I' for Inactive)
REMARK    1  A    between atoms: C_2  and  C_5
REMARK    2  A    between atoms: C_8  and  N_9
REMARK    3  A    between atoms: N_14  and  C_15
REMARK    4  A    between atoms: C_18  and  C_19
REMARK                            x       y       z     vdW  Elec       q    Type
REMARK                         _______ _______ _______ _____ _____    ______ ____
ROOT
ATOM      1  N   UNL     1      -2.082  15.510  20.504  0.00  0.00    +0.000 N 
ATOM      2  C   UNL     1      -0.984  14.991  19.907  0.00  0.00    +0.000 A 
ATOM      3  N   UNL     1      -0.783  13.738  19.554  0.00  0.00    +0.000 NA
ATOM      4  C   UNL     1       0.505  13.573  19.069  0.00  0.00    +0.000 A 
ATOM      5  C   UNL     1       1.148  12.388  18.653  0.00  0.00    +0.000 A 
ATOM      6  N   UNL     1       0.481  11.155  18.614  0.00  0.00    +0.000 N 
ATOM      7  N   UNL     1       2.442  12.478  18.248  0.00  0.00    +0.000 NA
ATOM      8  C   UNL     1       3.040  13.678  18.218  0.00  0.00    +0.000 A 
ATOM      9  N   UNL     1       2.526  14.857  18.588  0.00  0.00    +0.000 NA
ATOM     10  C   UNL     1       1.257  14.732  19.010  0.00  0.00    +0.000 A 
ATOM     11  S   UNL     1       0.345  16.055  19.565  0.00  0.00    +0.000 S 
ATOM     12  H   UNL     1      -2.039  16.499  20.719  0.00  0.00    +0.000 HD
ATOM     13  H   UNL     1      -0.525  11.235  18.712  0.00  0.00    +0.000 HD
ENDROOT
BRANCH   1  17
ATOM     14  C   UNL     1      -5.005  13.513  22.852  0.00  0.00    +0.000 A 
ATOM     15  C   UNL     1      -5.292  13.982  21.567  0.00  0.00    +0.000 A 
ATOM     16  C   UNL     1      -4.310  14.610  20.797  0.00  0.00    +0.000 A 
ATOM     17  C   UNL     1      -3.013  14.808  21.298  0.00  0.00    +0.000 A 
ATOM     18  C   UNL     1      -2.724  14.298  22.571  0.00  0.00    +0.000 A 
ATOM     19  C   UNL     1      -3.703  13.671  23.344  0.00  0.00    +0.000 A 
BRANCH  14  21
ATOM     20  F   UNL     1      -6.878  13.743  24.338  0.00  0.00    +0.000 F 
ATOM     21  C   UNL     1      -6.062  12.857  23.703  0.00  0.00    +0.000 C 
ATOM     22  F   UNL     1      -5.531  12.073  24.681  0.00  0.00    +0.000 F 
ATOM     23  F   UNL     1      -6.884  12.047  22.980  0.00  0.00    +0.000 F 
ENDBRANCH  14  21
ENDBRANCH   1  17
BRANCH   6  24
ATOM     24  C   UNL     1       1.002   9.881  18.899  0.00  0.00    +0.000 A 
ATOM     25  C   UNL     1       0.975   9.331  20.188  0.00  0.00    +0.000 A 
ATOM     26  C   UNL     1       1.514   8.071  20.451  0.00  0.00    +0.000 A 
ATOM     27  C   UNL     1       2.128   7.333  19.430  0.00  0.00    +0.000 A 
ATOM     28  C   UNL     1       2.192   7.892  18.145  0.00  0.00    +0.000 A 
ATOM     29  C   UNL     1       1.627   9.147  17.884  0.00  0.00    +0.000 A 
BRANCH  27  30
ATOM     30  C   UNL     1       2.697   5.963  19.700  0.00  0.00    +0.000 C 
ATOM     31  F   UNL     1       2.340   5.449  20.911  0.00  0.00    +0.000 F 
ATOM     32  F   UNL     1       2.296   5.044  18.776  0.00  0.00    +0.000 F 
ATOM     33  F   UNL     1       4.059   5.945  19.676  0.00  0.00    +0.000 F 
ENDBRANCH  27  30
ENDBRANCH   6  24
TORSDOF 4
ENDMDL
MODEL 6
REMARK VINA RESULT:      -8.0      6.253      9.257
REMARK  Name = 
REMARK  4 active torsions:
REMARK  status: ('A' for Active; 'I' for Inactive)
REMARK    1  A    between atoms: C_2  and  C_5
REMARK    2  A    between atoms: C_8  and  N_9
REMARK    3  A    between atoms: N_14  and  C_15
REMARK    4  A    between atoms: C_18  and  C_19
REMARK                            x       y       z     vdW  Elec       q    Type
REMARK                         _______ _______ _______ _____ _____    ______ ____
ROOT
ATOM      1  N   UNL     1      -1.990  15.586  20.504  0.00  0.00    +0.000 N 
ATOM      2  C   UNL     1      -0.895  15.073  19.899  0.00  0.00    +0.000 A 
ATOM      3  N   UNL     1      -0.694  13.824  19.534  0.00  0.00    +0.000 NA
ATOM      4  C   UNL     1       0.593  13.663  19.042  0.00  0.00    +0.000 A 
ATOM      5  C   UNL     1       1.234  12.482  18.614  0.00  0.00    +0.000 A 
ATOM      6  N   UNL     1       0.568  11.249  18.567  0.00  0.00    +0.000 N 
ATOM      7  N   UNL     1       2.527  12.575  18.205  0.00  0.00    +0.000 NA
ATOM      8  C   UNL     1       3.124  13.776  18.183  0.00  0.00    +0.000 A 
ATOM      9  N   UNL     1       2.611  14.952  18.566  0.00  0.00    +0.000 NA
ATOM     10  C   UNL     1       1.344  14.823  18.991  0.00  0.00    +0.000 A 
ATOM     11  S   UNL     1       0.433  16.140  19.562  0.00  0.00    +0.000 S 
ATOM     12  H   UNL     1      -1.947  16.573  20.728  0.00  0.00    +0.000 HD
ATOM     13  H   UNL     1      -0.439  11.328  18.669  0.00  0.00    +0.000 HD
ENDROOT
BRANCH   1  17
ATOM     14  C   UNL     1      -4.905  13.564  22.840  0.00  0.00    +0.000 A 
ATOM     15  C   UNL     1      -5.184  14.010  21.546  0.00  0.00    +0.000 A 
ATOM     16  C   UNL     1      -4.204  14.646  20.780  0.00  0.00    +0.000 A 
ATOM     17  C   UNL     1      -2.918  14.877  21.296  0.00  0.00    +0.000 A 
ATOM     18  C   UNL     1      -2.636  14.390  22.579  0.00  0.00    +0.000 A 
ATOM     19  C   UNL     1      -3.613  13.754  23.347  0.00  0.00    +0.000 A 
BRANCH  14  21
ATOM     20  F   UNL     1      -6.780  12.069  22.984  0.00  0.00    +0.000 F 
ATOM     21  C   UNL     1      -5.961  12.899  23.687  0.00  0.00    +0.000 C 
ATOM     22  F   UNL     1      -6.780  13.797  24.301  0.00  0.00    +0.000 F 
ATOM     23  F   UNL     1      -5.427  12.139  24.682  0.00  0.00    +0.000 F 
ENDBRANCH  14  21
ENDBRANCH   1  17
BRANCH   6  24
ATOM     24  C   UNL     1       1.090   9.972  18.839  0.00  0.00    +0.000 A 
ATOM     25  C   UNL     1       1.703   9.188  17.853  0.00  0.00    +0.000 A 
ATOM     26  C   UNL     1       2.199   7.916  18.142  0.00  0.00    +0.000 A 
ATOM     27  C   UNL     1       2.068   7.377  19.429  0.00  0.00    +0.000 A 
ATOM     28  C   UNL     1       1.424   8.142  20.412  0.00  0.00    +0.000 A 
ATOM     29  C   UNL     1       0.949   9.427  20.120  0.00  0.00    +0.000 A 
BRANCH  27  30
ATOM     30  C   UNL     1       2.617   6.011  19.756  0.00  0.00    +0.000 C 
ATOM     31  F   UNL     1       3.979   5.965  19.808  0.00  0.00    +0.000 F 
ATOM     32  F   UNL     1       2.186   5.556  20.967  0.00  0.00    +0.000 F 
ATOM     33  F   UNL     1       2.247   5.064  18.850  0.00  0.00    +0.000 F 
ENDBRANCH  27  30
ENDBRANCH   6  24
TORSDOF 4
ENDMDL
MODEL 7
REMARK VINA RESULT:      -7.9      6.660      9.594
REMARK  Name = 
REMARK  4 active torsions:
REMARK  status: ('A' for Active; 'I' for Inactive)
REMARK    1  A    between atoms: C_2  and  C_5
REMARK    2  A    between atoms: C_8  and  N_9
REMARK    3  A    between atoms: N_14  and  C_15
REMARK    4  A    between atoms: C_18  and  C_19
REMARK                            x       y       z     vdW  Elec       q    Type
REMARK                         _______ _______ _______ _____ _____    ______ ____
ROOT
ATOM      1  N   UNL     1       0.723  11.342  19.003  0.00  0.00    +0.000 N 
ATOM      2  C   UNL     1       1.397  12.511  18.904  0.00  0.00    +0.000 A 
ATOM      3  N   UNL     1       2.591  12.704  18.383  0.00  0.00    +0.000 NA
ATOM      4  C   UNL     1       2.990  14.020  18.561  0.00  0.00    +0.000 A 
ATOM      5  C   UNL     1       4.217  14.626  18.219  0.00  0.00    +0.000 A 
ATOM      6  N   UNL     1       5.228  13.928  17.543  0.00  0.00    +0.000 N 
ATOM      7  N   UNL     1       4.386  15.937  18.535  0.00  0.00    +0.000 NA
ATOM      8  C   UNL     1       3.379  16.610  19.112  0.00  0.00    +0.000 A 
ATOM      9  N   UNL     1       2.182  16.135  19.476  0.00  0.00    +0.000 NA
ATOM     10  C   UNL     1       2.055  14.832  19.179  0.00  0.00    +0.000 A 
ATOM     11  S   UNL     1       0.652  13.944  19.542  0.00  0.00    +0.000 S 
ATOM     12  H   UNL     1      -0.179  11.391  19.460  0.00  0.00    +0.000 HD
ATOM     13  H   UNL     1       4.919  13.042  17.156  0.00  0.00    +0.000 HD
ENDROOT
BRANCH   1  17
ATOM     14  C   UNL     1       2.353   7.419  18.934  0.00  0.00    +0.000 A 
ATOM     15  C   UNL     1       2.362   8.237  17.801  0.00  0.00    +0.000 A 
ATOM     16  C   UNL     1       1.849   9.535  17.850  0.00  0.00    +0.000 A 
ATOM     17  C   UNL     1       1.290  10.049  19.031  0.00  0.00    +0.000 A 
ATOM     18  C   UNL     1       1.322   9.237  20.172  0.00  0.00    +0.000 A 
ATOM     19  C   UNL     1       1.834   7.938  20.127  0.00  0.00    +0.000 A 
BRANCH  14  21
ATOM     20  F   UNL     1       3.273   5.612  17.646  0.00  0.00    +0.000 F 
ATOM     21  C   UNL     1       2.880   6.007  18.889  0.00  0.00    +0.000 C 
ATOM     22  F   UNL     1       1.957   5.092  19.296  0.00  0.00    +0.000 F 
ATOM     23  F   UNL     1       3.962   5.829  19.695  0.00  0.00    +0.000 F 
ENDBRANCH  14  21
ENDBRANCH   1  17
BRANCH   6  24
ATOM     24  C   UNL     1       6.619  14.049  17.704  0.00  0.00    +0.000 A 
ATOM     25  C   UNL     1       7.228  15.257  18.068  0.00  0.00    +0.000 A 
ATOM     26  C   UNL     1       8.614  15.358  18.205  0.00  0.00    +0.000 A 
ATOM     27  C   UNL     1       9.437  14.253  17.950  0.00  0.00    +0.000 A 
ATOM     28  C   UNL     1       8.837  13.050  17.550  0.00  0.00    +0.000 A 
ATOM     29  C   UNL     1       7.444  12.949  17.438  0.00  0.00    +0.000 A 
BRANCH  27  30
ATOM     30  C   UNL     1      10.933  14.347  18.113  0.00  0.00    +0.000 C 
ATOM     31  F   UNL     1      11.405  15.626  18.111  0.00  0.00    +0.000 F 
ATOM     32  F   UNL     1      11.362  13.796  19.284  0.00  0.00    +0.000 F 
ATOM     33  F   UNL     1      11.612  13.699  17.125  0.00  0.00    +0.000 F 
ENDBRANCH  27  30
ENDBRANCH   6  24
TORSDOF 4
ENDMDL
MODEL 8
REMARK VINA RESULT:      -7.9      5.301      7.943
REMARK  Name = 
REMARK  4 active torsions:
REMARK  status: ('A' for Active; 'I' for Inactive)
REMARK    1  A    between atoms: C_2  and  C_5
REMARK    2  A    between atoms: C_8  and  N_9
REMARK    3  A    between atoms: N_14  and  C_15
REMARK    4  A    between atoms: C_18  and  C_19
REMARK                            x       y       z     vdW  Elec       q    Type
REMARK                         _______ _______ _______ _____ _____    ______ ____
ROOT
ATOM      1  N   UNL     1       2.389  15.146  19.295  0.00  0.00    +0.000 N 
ATOM      2  C   UNL     1       1.513  14.118  19.231  0.00  0.00    +0.000 A 
ATOM      3  N   UNL     1       1.744  12.851  19.507  0.00  0.00    +0.000 NA
ATOM      4  C   UNL     1       0.627  12.081  19.221  0.00  0.00    +0.000 A 
ATOM      5  C   UNL     1       0.473  10.682  19.304  0.00  0.00    +0.000 A 
ATOM      6  N   UNL     1       1.492   9.849  19.791  0.00  0.00    +0.000 N 
ATOM      7  N   UNL     1      -0.720  10.151  18.928  0.00  0.00    +0.000 NA
ATOM      8  C   UNL     1      -1.709  10.969  18.538  0.00  0.00    +0.000 A 
ATOM      9  N   UNL     1      -1.670  12.303  18.423  0.00  0.00    +0.000 NA
ATOM     10  C   UNL     1      -0.471  12.794  18.773  0.00  0.00    +0.000 A 
ATOM     11  S   UNL     1      -0.110  14.454  18.712  0.00  0.00    +0.000 S 
ATOM     12  H   UNL     1       2.027  16.051  19.019  0.00  0.00    +0.000 HD
ATOM     13  H   UNL     1       2.241  10.354  20.253  0.00  0.00    +0.000 HD
ENDROOT
BRANCH   1  17
ATOM     14  C   UNL     1       6.598  14.746  18.872  0.00  0.00    +0.000 A 
ATOM     15  C   UNL     1       5.747  14.752  17.764  0.00  0.00    +0.000 A 
ATOM     16  C   UNL     1       4.368  14.915  17.919  0.00  0.00    +0.000 A 
ATOM     17  C   UNL     1       3.794  15.055  19.193  0.00  0.00    +0.000 A 
ATOM     18  C   UNL     1       4.659  15.090  20.295  0.00  0.00    +0.000 A 
ATOM     19  C   UNL     1       6.038  14.926  20.144  0.00  0.00    +0.000 A 
BRANCH  14  21
ATOM     20  F   UNL     1       8.416  13.622  17.778  0.00  0.00    +0.000 F 
ATOM     21  C   UNL     1       8.084  14.546  18.721  0.00  0.00    +0.000 C 
ATOM     22  F   UNL     1       8.674  14.128  19.876  0.00  0.00    +0.000 F 
ATOM     23  F   UNL     1       8.730  15.690  18.365  0.00  0.00    +0.000 F 
ENDBRANCH  14  21
ENDBRANCH   1  17
BRANCH   6  24
ATOM     24  C   UNL     1       1.830   8.554  19.362  0.00  0.00    +0.000 A 
ATOM     25  C   UNL     1       1.851   7.458  20.234  0.00  0.00    +0.000 A 
ATOM     26  C   UNL     1       2.207   6.183  19.789  0.00  0.00    +0.000 A 
ATOM     27  C   UNL     1       2.582   5.975  18.456  0.00  0.00    +0.000 A 
ATOM     28  C   UNL     1       2.598   7.074  17.585  0.00  0.00    +0.000 A 
ATOM     29  C   UNL     1       2.218   8.346  18.033  0.00  0.00    +0.000 A 
BRANCH  27  30
ATOM     30  C   UNL     1       2.950   4.599  17.961  0.00  0.00    +0.000 C 
ATOM     31  F   UNL     1       3.269   3.725  18.957  0.00  0.00    +0.000 F 
ATOM     32  F   UNL     1       1.937   4.011  17.264  0.00  0.00    +0.000 F 
ATOM     33  F   UNL     1       4.022   4.610  17.119  0.00  0.00    +0.000 F 
ENDBRANCH  27  30
ENDBRANCH   6  24
TORSDOF 4
ENDMDL
MODEL 9
REMARK VINA RESULT:      -7.9      5.352      7.962
REMARK  Name = 
REMARK  4 active torsions:
REMARK  status: ('A' for Active; 'I' for Inactive)
REMARK    1  A    between atoms: C_2  and  C_5
REMARK    2  A    between atoms: C_8  and  N_9
REMARK    3  A    between atoms: N_14  and  C_15
REMARK    4  A    between atoms: C_18  and  C_19
REMARK                            x       y       z     vdW  Elec       q    Type
REMARK                         _______ _______ _______ _____ _____    ______ ____
ROOT
ATOM      1  N   UNL     1       2.399  15.100  19.272  0.00  0.00    +0.000 N 
ATOM      2  C   UNL     1       1.513  14.078  19.251  0.00  0.00    +0.000 A 
ATOM      3  N   UNL     1       1.743  12.814  19.541  0.00  0.00    +0.000 NA
ATOM      4  C   UNL     1       0.614  12.048  19.299  0.00  0.00    +0.000 A 
ATOM      5  C   UNL     1       0.453  10.651  19.410  0.00  0.00    +0.000 A 
ATOM      6  N   UNL     1       1.479   9.819  19.883  0.00  0.00    +0.000 N 
ATOM      7  N   UNL     1      -0.754  10.124  19.077  0.00  0.00    +0.000 NA
ATOM      8  C   UNL     1      -1.748  10.942  18.701  0.00  0.00    +0.000 A 
ATOM      9  N   UNL     1      -1.703  12.273  18.563  0.00  0.00    +0.000 NA
ATOM     10  C   UNL     1      -0.491  12.761  18.871  0.00  0.00    +0.000 A 
ATOM     11  S   UNL     1      -0.121  14.417  18.770  0.00  0.00    +0.000 S 
ATOM     12  H   UNL     1       2.035  16.003  18.991  0.00  0.00    +0.000 HD
ATOM     13  H   UNL     1       2.244  10.326  20.315  0.00  0.00    +0.000 HD
ENDROOT
BRANCH   1  17
ATOM     14  C   UNL     1       6.632  14.924  18.959  0.00  0.00    +0.000 A 
ATOM     15  C   UNL     1       5.995  15.097  20.191  0.00  0.00    +0.000 A 
ATOM     16  C   UNL     1       4.601  15.122  20.279  0.00  0.00    +0.000 A 
ATOM     17  C   UNL     1       3.800  14.997  19.132  0.00  0.00    +0.000 A 
ATOM     18  C   UNL     1       4.447  14.784  17.908  0.00  0.00    +0.000 A 
ATOM     19  C   UNL     1       5.840  14.758  17.816  0.00  0.00    +0.000 A 
BRANCH  14  21
ATOM     20  F   UNL     1       8.766  15.394  19.956  0.00  0.00    +0.000 F 
ATOM     21  C   UNL     1       8.135  14.920  18.846  0.00  0.00    +0.000 C 
ATOM     22  F   UNL     1       8.582  15.683  17.810  0.00  0.00    +0.000 F 
ATOM     23  F   UNL     1       8.638  13.673  18.636  0.00  0.00    +0.000 F 
ENDBRANCH  14  21
ENDBRANCH   1  17
BRANCH   6  24
ATOM     24  C   UNL     1       1.795   8.514  19.467  0.00  0.00    +0.000 A 
ATOM     25  C   UNL     1       1.805   7.428  20.351  0.00  0.00    +0.000 A 
ATOM     26  C   UNL     1       2.140   6.143  19.918  0.00  0.00    +0.000 A 
ATOM     27  C   UNL     1       2.505   5.914  18.585  0.00  0.00    +0.000 A 
ATOM     28  C   UNL     1       2.533   7.004  17.702  0.00  0.00    +0.000 A 
ATOM     29  C   UNL     1       2.173   8.286  18.138  0.00  0.00    +0.000 A 
BRANCH  27  30
ATOM     30  C   UNL     1       2.851   4.528  18.104  0.00  0.00    +0.000 C 
ATOM     31  F   UNL     1       3.352   3.718  19.079  0.00  0.00    +0.000 F 
ATOM     32  F   UNL     1       1.768   3.871  17.599  0.00  0.00    +0.000 F 
ATOM     33  F   UNL     1       3.781   4.532  17.109  0.00  0.00    +0.000 F 
ENDBRANCH  27  30
ENDBRANCH   6  24
TORSDOF 4
ENDMDL
