MODEL 1
REMARK VINA RESULT:      -6.9      0.000      0.000
REMARK  Name = 
REMARK  12 active torsions:
REMARK  status: ('A' for Active; 'I' for Inactive)
REMARK    1  A    between atoms: C_1  and  C_2
REMARK    2  A    between atoms: C_2  and  O_3
REMARK    3  A    between atoms: O_3  and  C_4
REMARK    4  A    between atoms: C_4  and  C_6
REMARK    5  A    between atoms: C_12  and  O_13
REMARK    6  A    between atoms: O_13  and  C_14
REMARK    7  A    between atoms: C_14  and  C_15
REMARK    8  A    between atoms: C_18  and  N_19
REMARK    9  A    between atoms: N_19  and  C_20
REMARK   10  A    between atoms: C_20  and  C_21
REMARK   11  A    between atoms: C_21  and  C_22
REMARK   12  A    between atoms: C_22  and  N_23
REMARK                            x       y       z     vdW  Elec       q    Type
REMARK                         _______ _______ _______ _____ _____    ______ ____
ROOT
ATOM      1  C   UNL     1       3.254   4.491  18.575  0.00  0.00    +0.000 A 
ATOM      2  C   UNL     1       4.120   3.613  19.193  0.00  0.00    +0.000 A 
ATOM      3  N   UNL     1       5.448   3.823  19.298  0.00  0.00    +0.000 NA
ATOM      4  C   UNL     1       5.964   4.944  18.774  0.00  0.00    +0.000 A 
ATOM      5  C   UNL     1       7.349   5.100  18.833  0.00  0.00    +0.000 A 
ATOM      6  C   UNL     1       8.021   6.206  18.294  0.00  0.00    +0.000 A 
ATOM      7  C   UNL     1       7.291   7.198  17.686  0.00  0.00    +0.000 A 
ATOM      8  C   UNL     1       5.907   7.056  17.632  0.00  0.00    +0.000 A 
ATOM      9  C   UNL     1       5.182   5.941  18.151  0.00  0.00    +0.000 A 
ATOM     10  C   UNL     1       3.771   5.716  18.057  0.00  0.00    +0.000 A 
ENDROOT
BRANCH   1  11
ATOM     11  C   UNL     1       1.818   4.158  18.431  0.00  0.00    +0.000 C 
ATOM     12  O   UNL     1       1.294   3.967  17.348  0.00  0.00    +0.000 OA
BRANCH  11  13
ATOM     13  O   UNL     1       1.169   4.226  19.625  0.00  0.00    +0.000 OA
BRANCH  13  15
ATOM     14  C   UNL     1       1.383   2.765  21.485  0.00  0.00    +0.000 C 
ATOM     15  C   UNL     1       0.743   2.944  20.122  0.00  0.00    +0.000 C 
ENDBRANCH  13  15
ENDBRANCH  11  13
ENDBRANCH   1  11
BRANCH  10  16
ATOM     16  N   UNL     1       2.831   6.652  17.583  0.00  0.00    +0.000 N 
ATOM     17  H   UNL     1       2.986   6.899  16.598  0.00  0.00    +0.000 HD
BRANCH  16  18
ATOM     18  C   UNL     1       2.167   7.666  18.379  0.00  0.00    +0.000 C 
BRANCH  18  19
ATOM     19  C   UNL     1       2.507   9.085  17.938  0.00  0.00    +0.000 C 
BRANCH  19  20
ATOM     20  C   UNL     1       1.271   9.955  18.121  0.00  0.00    +0.000 C 
BRANCH  20  21
ATOM     21  N   UNL     1       0.463   9.748  19.329  0.00  0.00    +0.000 NA
ATOM     22  C   UNL     1      -0.930  10.175  19.026  0.00  0.00    +0.000 C 
ATOM     23  C   UNL     1      -1.096  11.702  18.937  0.00  0.00    +0.000 C 
ATOM     24  O   UNL     1      -0.679  12.344  20.145  0.00  0.00    +0.000 OA
ATOM     25  C   UNL     1       0.692  12.029  20.435  0.00  0.00    +0.000 C 
ATOM     26  C   UNL     1       0.921  10.509  20.512  0.00  0.00    +0.000 C 
ENDBRANCH  20  21
ENDBRANCH  19  20
ENDBRANCH  18  19
ENDBRANCH  16  18
ENDBRANCH  10  16
BRANCH   7  27
ATOM     27  O   UNL     1       7.746   8.340  17.093  0.00  0.00    +0.000 OA
BRANCH  27  28
ATOM     28  C   UNL     1       7.720   9.549  17.843  0.00  0.00    +0.000 C 
ATOM     29  C   UNL     1       8.995   9.599  18.671  0.00  0.00    +0.000 C 
ENDBRANCH  27  28
ENDBRANCH   7  27
TORSDOF 10
ENDMDL
MODEL 2
REMARK VINA RESULT:      -6.9      0.804      1.035
REMARK  Name = 
REMARK  12 active torsions:
REMARK  status: ('A' for Active; 'I' for Inactive)
REMARK    1  A    between atoms: C_1  and  C_2
REMARK    2  A    between atoms: C_2  and  O_3
REMARK    3  A    between atoms: O_3  and  C_4
REMARK    4  A    between atoms: C_4  and  C_6
REMARK    5  A    between atoms: C_12  and  O_13
REMARK    6  A    between atoms: O_13  and  C_14
REMARK    7  A    between atoms: C_14  and  C_15
REMARK    8  A    between atoms: C_18  and  N_19
REMARK    9  A    between atoms: N_19  and  C_20
REMARK   10  A    between atoms: C_20  and  C_21
REMARK   11  A    between atoms: C_21  and  C_22
REMARK   12  A    between atoms: C_22  and  N_23
REMARK                            x       y       z     vdW  Elec       q    Type
REMARK                         _______ _______ _______ _____ _____    ______ ____
ROOT
ATOM      1  C   UNL     1       3.224   4.502  18.557  0.00  0.00    +0.000 A 
ATOM      2  C   UNL     1       4.066   3.585  19.153  0.00  0.00    +0.000 A 
ATOM      3  N   UNL     1       5.402   3.746  19.243  0.00  0.00    +0.000 NA
ATOM      4  C   UNL     1       5.950   4.854  18.725  0.00  0.00    +0.000 A 
ATOM      5  C   UNL     1       7.341   4.958  18.768  0.00  0.00    +0.000 A 
ATOM      6  C   UNL     1       8.046   6.047  18.234  0.00  0.00    +0.000 A 
ATOM      7  C   UNL     1       7.345   7.072  17.647  0.00  0.00    +0.000 A 
ATOM      8  C   UNL     1       5.956   6.980  17.610  0.00  0.00    +0.000 A 
ATOM      9  C   UNL     1       5.197   5.885  18.124  0.00  0.00    +0.000 A 
ATOM     10  C   UNL     1       3.778   5.713  18.047  0.00  0.00    +0.000 A 
ENDROOT
BRANCH   1  11
ATOM     11  C   UNL     1       1.775   4.223  18.428  0.00  0.00    +0.000 C 
ATOM     12  O   UNL     1       1.218   4.129  17.348  0.00  0.00    +0.000 OA
BRANCH  11  13
ATOM     13  O   UNL     1       1.159   4.220  19.641  0.00  0.00    +0.000 OA
BRANCH  13  15
ATOM     14  C   UNL     1       1.362   2.716  21.469  0.00  0.00    +0.000 C 
ATOM     15  C   UNL     1       0.770   2.906  20.086  0.00  0.00    +0.000 C 
ENDBRANCH  13  15
ENDBRANCH  11  13
ENDBRANCH   1  11
BRANCH  10  16
ATOM     16  N   UNL     1       2.867   6.688  17.597  0.00  0.00    +0.000 N 
ATOM     17  H   UNL     1       2.410   6.422  16.717  0.00  0.00    +0.000 HD
BRANCH  16  18
ATOM     18  C   UNL     1       2.963   8.115  17.837  0.00  0.00    +0.000 C 
BRANCH  18  19
ATOM     19  C   UNL     1       1.603   8.804  17.877  0.00  0.00    +0.000 C 
BRANCH  19  20
ATOM     20  C   UNL     1       1.386   9.359  19.278  0.00  0.00    +0.000 C 
BRANCH  20  21
ATOM     21  N   UNL     1       0.037   9.820  19.629  0.00  0.00    +0.000 NA
ATOM     22  C   UNL     1       0.051  11.308  19.637  0.00  0.00    +0.000 C 
ATOM     23  C   UNL     1       0.785  11.906  20.851  0.00  0.00    +0.000 C 
ATOM     24  O   UNL     1       0.216  11.451  22.081  0.00  0.00    +0.000 OA
ATOM     25  C   UNL     1       0.258  10.018  22.157  0.00  0.00    +0.000 C 
ATOM     26  C   UNL     1      -0.443   9.365  20.952  0.00  0.00    +0.000 C 
ENDBRANCH  20  21
ENDBRANCH  19  20
ENDBRANCH  18  19
ENDBRANCH  16  18
ENDBRANCH  10  16
BRANCH   7  27
ATOM     27  O   UNL     1       7.833   8.203  17.062  0.00  0.00    +0.000 OA
BRANCH  27  28
ATOM     28  C   UNL     1       7.685   9.440  17.751  0.00  0.00    +0.000 C 
ATOM     29  C   UNL     1       8.915   9.622  18.628  0.00  0.00    +0.000 C 
ENDBRANCH  27  28
ENDBRANCH   7  27
TORSDOF 10
ENDMDL
MODEL 3
REMARK VINA RESULT:      -6.8      0.618      1.099
REMARK  Name = 
REMARK  12 active torsions:
REMARK  status: ('A' for Active; 'I' for Inactive)
REMARK    1  A    between atoms: C_1  and  C_2
REMARK    2  A    between atoms: C_2  and  O_3
REMARK    3  A    between atoms: O_3  and  C_4
REMARK    4  A    between atoms: C_4  and  C_6
REMARK    5  A    between atoms: C_12  and  O_13
REMARK    6  A    between atoms: O_13  and  C_14
REMARK    7  A    between atoms: C_14  and  C_15
REMARK    8  A    between atoms: C_18  and  N_19
REMARK    9  A    between atoms: N_19  and  C_20
REMARK   10  A    between atoms: C_20  and  C_21
REMARK   11  A    between atoms: C_21  and  C_22
REMARK   12  A    between atoms: C_22  and  N_23
REMARK                            x       y       z     vdW  Elec       q    Type
REMARK                         _______ _______ _______ _____ _____    ______ ____
ROOT
ATOM      1  C   UNL     1       3.191   4.575  18.514  0.00  0.00    +0.000 A 
ATOM      2  C   UNL     1       4.052   3.608  18.991  0.00  0.00    +0.000 A 
ATOM      3  N   UNL     1       5.393   3.754  19.027  0.00  0.00    +0.000 NA
ATOM      4  C   UNL     1       5.926   4.897  18.575  0.00  0.00    +0.000 A 
ATOM      5  C   UNL     1       7.318   4.990  18.558  0.00  0.00    +0.000 A 
ATOM      6  C   UNL     1       8.007   6.114  18.079  0.00  0.00    +0.000 A 
ATOM      7  C   UNL     1       7.288   7.188  17.614  0.00  0.00    +0.000 A 
ATOM      8  C   UNL     1       5.898   7.107  17.638  0.00  0.00    +0.000 A 
ATOM      9  C   UNL     1       5.155   5.979  18.098  0.00  0.00    +0.000 A 
ATOM     10  C   UNL     1       3.732   5.821  18.077  0.00  0.00    +0.000 A 
ENDROOT
BRANCH   1  11
ATOM     11  C   UNL     1       1.735   4.316  18.434  0.00  0.00    +0.000 C 
ATOM     12  O   UNL     1       1.153   4.161  17.375  0.00  0.00    +0.000 OA
BRANCH  11  13
ATOM     13  O   UNL     1       1.147   4.406  19.658  0.00  0.00    +0.000 OA
BRANCH  13  15
ATOM     14  C   UNL     1       1.392   2.819  21.408  0.00  0.00    +0.000 C 
ATOM     15  C   UNL     1       0.629   3.152  20.141  0.00  0.00    +0.000 C 
ENDBRANCH  13  15
ENDBRANCH  11  13
ENDBRANCH   1  11
BRANCH  10  16
ATOM     16  N   UNL     1       2.810   6.835  17.754  0.00  0.00    +0.000 N 
ATOM     17  H   UNL     1       2.864   7.115  16.767  0.00  0.00    +0.000 HD
BRANCH  16  18
ATOM     18  C   UNL     1       2.315   7.854  18.659  0.00  0.00    +0.000 C 
BRANCH  18  19
ATOM     19  C   UNL     1       1.793   9.090  17.935  0.00  0.00    +0.000 C 
BRANCH  19  20
ATOM     20  C   UNL     1       0.740   9.753  18.813  0.00  0.00    +0.000 C 
BRANCH  20  21
ATOM     21  N   UNL     1       0.805  11.210  18.976  0.00  0.00    +0.000 NA
ATOM     22  C   UNL     1       1.065  11.498  20.412  0.00  0.00    +0.000 C 
ATOM     23  C   UNL     1      -0.156  11.253  21.316  0.00  0.00    +0.000 C 
ATOM     24  O   UNL     1      -1.281  12.030  20.895  0.00  0.00    +0.000 OA
ATOM     25  C   UNL     1      -1.625  11.722  19.536  0.00  0.00    +0.000 C 
ATOM     26  C   UNL     1      -0.429  11.928  18.588  0.00  0.00    +0.000 C 
ENDBRANCH  20  21
ENDBRANCH  19  20
ENDBRANCH  18  19
ENDBRANCH  16  18
ENDBRANCH  10  16
BRANCH   7  27
ATOM     27  O   UNL     1       7.758   8.361  17.099  0.00  0.00    +0.000 OA
BRANCH  27  28
ATOM     28  C   UNL     1       7.623   9.544  17.878  0.00  0.00    +0.000 C 
ATOM     29  C   UNL     1       9.006   9.905  18.400  0.00  0.00    +0.000 C 
ENDBRANCH  27  28
ENDBRANCH   7  27
TORSDOF 10
ENDMDL
MODEL 4
REMARK VINA RESULT:      -6.8      4.224      6.829
REMARK  Name = 
REMARK  12 active torsions:
REMARK  status: ('A' for Active; 'I' for Inactive)
REMARK    1  A    between atoms: C_1  and  C_2
REMARK    2  A    between atoms: C_2  and  O_3
REMARK    3  A    between atoms: O_3  and  C_4
REMARK    4  A    between atoms: C_4  and  C_6
REMARK    5  A    between atoms: C_12  and  O_13
REMARK    6  A    between atoms: O_13  and  C_14
REMARK    7  A    between atoms: C_14  and  C_15
REMARK    8  A    between atoms: C_18  and  N_19
REMARK    9  A    between atoms: N_19  and  C_20
REMARK   10  A    between atoms: C_20  and  C_21
REMARK   11  A    between atoms: C_21  and  C_22
REMARK   12  A    between atoms: C_22  and  N_23
REMARK                            x       y       z     vdW  Elec       q    Type
REMARK                         _______ _______ _______ _____ _____    ______ ____
ROOT
ATOM      1  C   UNL     1       6.215   5.117  16.606  0.00  0.00    +0.000 A 
ATOM      2  C   UNL     1       7.364   5.675  16.082  0.00  0.00    +0.000 A 
ATOM      3  N   UNL     1       7.740   5.539  14.794  0.00  0.00    +0.000 NA
ATOM      4  C   UNL     1       6.961   4.824  13.970  0.00  0.00    +0.000 A 
ATOM      5  C   UNL     1       7.412   4.640  12.663  0.00  0.00    +0.000 A 
ATOM      6  C   UNL     1       6.713   3.887  11.708  0.00  0.00    +0.000 A 
ATOM      7  C   UNL     1       5.520   3.306  12.061  0.00  0.00    +0.000 A 
ATOM      8  C   UNL     1       5.057   3.493  13.362  0.00  0.00    +0.000 A 
ATOM      9  C   UNL     1       5.742   4.236  14.370  0.00  0.00    +0.000 A 
ATOM     10  C   UNL     1       5.343   4.398  15.736  0.00  0.00    +0.000 A 
ENDROOT
BRANCH   1  11
ATOM     11  C   UNL     1       5.905   5.245  18.048  0.00  0.00    +0.000 C 
ATOM     12  O   UNL     1       4.955   5.887  18.461  0.00  0.00    +0.000 OA
BRANCH  11  13
ATOM     13  O   UNL     1       6.872   4.676  18.817  0.00  0.00    +0.000 OA
BRANCH  13  15
ATOM     14  C   UNL     1       8.228   6.607  19.095  0.00  0.00    +0.000 C 
ATOM     15  C   UNL     1       7.404   5.561  19.821  0.00  0.00    +0.000 C 
ENDBRANCH  13  15
ENDBRANCH  11  13
ENDBRANCH   1  11
BRANCH  10  16
ATOM     16  N   UNL     1       4.107   3.988  16.273  0.00  0.00    +0.000 N 
ATOM     17  H   UNL     1       3.431   4.760  16.332  0.00  0.00    +0.000 HD
BRANCH  16  18
ATOM     18  C   UNL     1       3.909   2.916  17.228  0.00  0.00    +0.000 C 
BRANCH  18  19
ATOM     19  C   UNL     1       2.438   2.570  17.437  0.00  0.00    +0.000 C 
BRANCH  19  20
ATOM     20  C   UNL     1       1.793   3.687  18.247  0.00  0.00    +0.000 C 
BRANCH  20  21
ATOM     21  N   UNL     1       0.982   3.306  19.410  0.00  0.00    +0.000 NA
ATOM     22  C   UNL     1       0.806   4.514  20.260  0.00  0.00    +0.000 C 
ATOM     23  C   UNL     1       2.079   4.911  21.029  0.00  0.00    +0.000 C 
ATOM     24  O   UNL     1       2.545   3.840  21.854  0.00  0.00    +0.000 OA
ATOM     25  C   UNL     1       2.811   2.673  21.063  0.00  0.00    +0.000 C 
ATOM     26  C   UNL     1       1.575   2.244  20.252  0.00  0.00    +0.000 C 
ENDBRANCH  20  21
ENDBRANCH  19  20
ENDBRANCH  18  19
ENDBRANCH  16  18
ENDBRANCH  10  16
BRANCH   7  27
ATOM     27  O   UNL     1       4.698   2.531  11.296  0.00  0.00    +0.000 OA
BRANCH  27  28
ATOM     28  C   UNL     1       3.357   2.962  11.093  0.00  0.00    +0.000 C 
ATOM     29  C   UNL     1       3.367   3.952   9.938  0.00  0.00    +0.000 C 
ENDBRANCH  27  28
ENDBRANCH   7  27
TORSDOF 10
ENDMDL
MODEL 5
REMARK VINA RESULT:      -6.7      3.110      7.162
REMARK  Name = 
REMARK  12 active torsions:
REMARK  status: ('A' for Active; 'I' for Inactive)
REMARK    1  A    between atoms: C_1  and  C_2
REMARK    2  A    between atoms: C_2  and  O_3
REMARK    3  A    between atoms: O_3  and  C_4
REMARK    4  A    between atoms: C_4  and  C_6
REMARK    5  A    between atoms: C_12  and  O_13
REMARK    6  A    between atoms: O_13  and  C_14
REMARK    7  A    between atoms: C_14  and  C_15
REMARK    8  A    between atoms: C_18  and  N_19
REMARK    9  A    between atoms: N_19  and  C_20
REMARK   10  A    between atoms: C_20  and  C_21
REMARK   11  A    between atoms: C_21  and  C_22
REMARK   12  A    between atoms: C_22  and  N_23
REMARK                            x       y       z     vdW  Elec       q    Type
REMARK                         _______ _______ _______ _____ _____    ______ ____
ROOT
ATOM      1  C   UNL     1       6.014   4.928  16.594  0.00  0.00    +0.000 A 
ATOM      2  C   UNL     1       5.109   3.886  16.603  0.00  0.00    +0.000 A 
ATOM      3  N   UNL     1       3.837   4.004  17.036  0.00  0.00    +0.000 NA
ATOM      4  C   UNL     1       3.422   5.197  17.485  0.00  0.00    +0.000 A 
ATOM      5  C   UNL     1       2.124   5.272  17.993  0.00  0.00    +0.000 A 
ATOM      6  C   UNL     1       1.575   6.447  18.525  0.00  0.00    +0.000 A 
ATOM      7  C   UNL     1       2.335   7.591  18.541  0.00  0.00    +0.000 A 
ATOM      8  C   UNL     1       3.627   7.527  18.025  0.00  0.00    +0.000 A 
ATOM      9  C   UNL     1       4.234   6.351  17.491  0.00  0.00    +0.000 A 
ATOM     10  C   UNL     1       5.579   6.219  17.016  0.00  0.00    +0.000 A 
ENDROOT
BRANCH   1  11
ATOM     11  C   UNL     1       7.417   4.705  16.175  0.00  0.00    +0.000 C 
ATOM     12  O   UNL     1       8.226   4.122  16.875  0.00  0.00    +0.000 OA
BRANCH  11  13
ATOM     13  O   UNL     1       7.692   5.336  15.002  0.00  0.00    +0.000 OA
BRANCH  13  15
ATOM     14  C   UNL     1       7.836   5.202  12.634  0.00  0.00    +0.000 C 
ATOM     15  C   UNL     1       7.082   4.712  13.856  0.00  0.00    +0.000 C 
ENDBRANCH  13  15
ENDBRANCH  11  13
ENDBRANCH   1  11
BRANCH  10  16
ATOM     16  N   UNL     1       6.482   7.284  16.836  0.00  0.00    +0.000 N 
ATOM     17  H   UNL     1       6.738   7.419  15.850  0.00  0.00    +0.000 HD
BRANCH  16  18
ATOM     18  C   UNL     1       7.469   7.733  17.799  0.00  0.00    +0.000 C 
BRANCH  18  19
ATOM     19  C   UNL     1       7.969   9.147  17.522  0.00  0.00    +0.000 C 
BRANCH  19  20
ATOM     20  C   UNL     1       8.859   9.577  18.680  0.00  0.00    +0.000 C 
BRANCH  20  21
ATOM     21  N   UNL     1       8.770  10.973  19.127  0.00  0.00    +0.000 NA
ATOM     22  C   UNL     1       9.125  11.845  17.975  0.00  0.00    +0.000 C 
ATOM     23  C   UNL     1      10.628  11.840  17.644  0.00  0.00    +0.000 C 
ATOM     24  O   UNL     1      11.412  12.237  18.772  0.00  0.00    +0.000 OA
ATOM     25  C   UNL     1      11.167  11.369  19.888  0.00  0.00    +0.000 C 
ATOM     26  C   UNL     1       9.671  11.317  20.249  0.00  0.00    +0.000 C 
ENDBRANCH  20  21
ENDBRANCH  19  20
ENDBRANCH  18  19
ENDBRANCH  16  18
ENDBRANCH  10  16
BRANCH   7  27
ATOM     27  O   UNL     1       1.998   8.823  19.019  0.00  0.00    +0.000 OA
BRANCH  27  28
ATOM     28  C   UNL     1       1.624   9.832  18.088  0.00  0.00    +0.000 C 
ATOM     29  C   UNL     1       0.104   9.879  18.055  0.00  0.00    +0.000 C 
ENDBRANCH  27  28
ENDBRANCH   7  27
TORSDOF 10
ENDMDL
MODEL 6
REMARK VINA RESULT:      -6.6      1.188      1.396
REMARK  Name = 
REMARK  12 active torsions:
REMARK  status: ('A' for Active; 'I' for Inactive)
REMARK    1  A    between atoms: C_1  and  C_2
REMARK    2  A    between atoms: C_2  and  O_3
REMARK    3  A    between atoms: O_3  and  C_4
REMARK    4  A    between atoms: C_4  and  C_6
REMARK    5  A    between atoms: C_12  and  O_13
REMARK    6  A    between atoms: O_13  and  C_14
REMARK    7  A    between atoms: C_14  and  C_15
REMARK    8  A    between atoms: C_18  and  N_19
REMARK    9  A    between atoms: N_19  and  C_20
REMARK   10  A    between atoms: C_20  and  C_21
REMARK   11  A    between atoms: C_21  and  C_22
REMARK   12  A    between atoms: C_22  and  N_23
REMARK                            x       y       z     vdW  Elec       q    Type
REMARK                         _______ _______ _______ _____ _____    ______ ____
ROOT
ATOM      1  C   UNL     1       2.882   4.338  17.890  0.00  0.00    +0.000 A 
ATOM      2  C   UNL     1       3.635   3.292  17.397  0.00  0.00    +0.000 A 
ATOM      3  N   UNL     1       4.924   3.413  17.019  0.00  0.00    +0.000 NA
ATOM      4  C   UNL     1       5.513   4.612  17.123  0.00  0.00    +0.000 A 
ATOM      5  C   UNL     1       6.824   4.723  16.657  0.00  0.00    +0.000 A 
ATOM      6  C   UNL     1       7.546   5.925  16.675  0.00  0.00    +0.000 A 
ATOM      7  C   UNL     1       6.950   7.053  17.184  0.00  0.00    +0.000 A 
ATOM      8  C   UNL     1       5.646   6.948  17.662  0.00  0.00    +0.000 A 
ATOM      9  C   UNL     1       4.867   5.752  17.648  0.00  0.00    +0.000 A 
ATOM     10  C   UNL     1       3.503   5.611  18.061  0.00  0.00    +0.000 A 
ENDROOT
BRANCH   1  11
ATOM     11  C   UNL     1       1.449   4.149  18.215  0.00  0.00    +0.000 C 
ATOM     12  O   UNL     1       0.592   4.032  17.357  0.00  0.00    +0.000 OA
BRANCH  11  13
ATOM     13  O   UNL     1       1.224   4.255  19.552  0.00  0.00    +0.000 OA
BRANCH  13  15
ATOM     14  C   UNL     1       1.929   3.050  21.474  0.00  0.00    +0.000 C 
ATOM     15  C   UNL     1       1.086   2.985  20.215  0.00  0.00    +0.000 C 
ENDBRANCH  13  15
ENDBRANCH  11  13
ENDBRANCH   1  11
BRANCH  10  16
ATOM     16  N   UNL     1       2.749   6.603  18.717  0.00  0.00    +0.000 N 
ATOM     17  H   UNL     1       2.122   6.212  19.430  0.00  0.00    +0.000 HD
BRANCH  16  18
ATOM     18  C   UNL     1       2.325   7.866  18.144  0.00  0.00    +0.000 C 
BRANCH  18  19
ATOM     19  C   UNL     1       1.628   8.772  19.154  0.00  0.00    +0.000 C 
BRANCH  19  20
ATOM     20  C   UNL     1       1.303  10.093  18.470  0.00  0.00    +0.000 C 
BRANCH  20  21
ATOM     21  N   UNL     1       1.386  11.318  19.275  0.00  0.00    +0.000 NA
ATOM     22  C   UNL     1       0.547  11.124  20.489  0.00  0.00    +0.000 C 
ATOM     23  C   UNL     1      -0.965  11.178  20.203  0.00  0.00    +0.000 C 
ATOM     24  O   UNL     1      -1.336  12.415  19.588  0.00  0.00    +0.000 OA
ATOM     25  C   UNL     1      -0.612  12.606  18.364  0.00  0.00    +0.000 C 
ATOM     26  C   UNL     1       0.910  12.538  18.587  0.00  0.00    +0.000 C 
ENDBRANCH  20  21
ENDBRANCH  19  20
ENDBRANCH  18  19
ENDBRANCH  16  18
ENDBRANCH  10  16
BRANCH   7  27
ATOM     27  O   UNL     1       7.468   8.312  17.282  0.00  0.00    +0.000 OA
BRANCH  27  28
ATOM     28  C   UNL     1       8.427   8.573  18.300  0.00  0.00    +0.000 C 
ATOM     29  C   UNL     1       8.749  10.059  18.251  0.00  0.00    +0.000 C 
ENDBRANCH  27  28
ENDBRANCH   7  27
TORSDOF 10
ENDMDL
MODEL 7
REMARK VINA RESULT:      -6.5      1.281      1.455
REMARK  Name = 
REMARK  12 active torsions:
REMARK  status: ('A' for Active; 'I' for Inactive)
REMARK    1  A    between atoms: C_1  and  C_2
REMARK    2  A    between atoms: C_2  and  O_3
REMARK    3  A    between atoms: O_3  and  C_4
REMARK    4  A    between atoms: C_4  and  C_6
REMARK    5  A    between atoms: C_12  and  O_13
REMARK    6  A    between atoms: O_13  and  C_14
REMARK    7  A    between atoms: C_14  and  C_15
REMARK    8  A    between atoms: C_18  and  N_19
REMARK    9  A    between atoms: N_19  and  C_20
REMARK   10  A    between atoms: C_20  and  C_21
REMARK   11  A    between atoms: C_21  and  C_22
REMARK   12  A    between atoms: C_22  and  N_23
REMARK                            x       y       z     vdW  Elec       q    Type
REMARK                         _______ _______ _______ _____ _____    ______ ____
ROOT
ATOM      1  C   UNL     1       3.014   4.132  17.656  0.00  0.00    +0.000 A 
ATOM      2  C   UNL     1       3.837   3.125  17.194  0.00  0.00    +0.000 A 
ATOM      3  N   UNL     1       5.135   3.307  16.878  0.00  0.00    +0.000 NA
ATOM      4  C   UNL     1       5.664   4.531  17.016  0.00  0.00    +0.000 A 
ATOM      5  C   UNL     1       6.988   4.705  16.613  0.00  0.00    +0.000 A 
ATOM      6  C   UNL     1       7.652   5.939  16.672  0.00  0.00    +0.000 A 
ATOM      7  C   UNL     1       6.983   7.034  17.158  0.00  0.00    +0.000 A 
ATOM      8  C   UNL     1       5.663   6.867  17.573  0.00  0.00    +0.000 A 
ATOM      9  C   UNL     1       4.942   5.636  17.516  0.00  0.00    +0.000 A 
ATOM     10  C   UNL     1       3.568   5.430  17.863  0.00  0.00    +0.000 A 
ENDROOT
BRANCH   1  11
ATOM     11  C   UNL     1       1.578   3.875  17.912  0.00  0.00    +0.000 C 
ATOM     12  O   UNL     1       0.693   4.371  17.238  0.00  0.00    +0.000 OA
BRANCH  11  13
ATOM     13  O   UNL     1       1.398   3.143  19.044  0.00  0.00    +0.000 OA
BRANCH  13  15
ATOM     14  C   UNL     1       1.915   3.704  21.294  0.00  0.00    +0.000 C 
ATOM     15  C   UNL     1       0.928   3.919  20.163  0.00  0.00    +0.000 C 
ENDBRANCH  13  15
ENDBRANCH  11  13
ENDBRANCH   1  11
BRANCH  10  16
ATOM     16  N   UNL     1       2.739   6.382  18.488  0.00  0.00    +0.000 N 
ATOM     17  H   UNL     1       2.004   5.947  19.060  0.00  0.00    +0.000 HD
BRANCH  16  18
ATOM     18  C   UNL     1       2.427   7.703  17.978  0.00  0.00    +0.000 C 
BRANCH  18  19
ATOM     19  C   UNL     1       1.658   8.560  18.978  0.00  0.00    +0.000 C 
BRANCH  19  20
ATOM     20  C   UNL     1       1.512   9.960  18.398  0.00  0.00    +0.000 C 
BRANCH  20  21
ATOM     21  N   UNL     1       0.328  10.738  18.784  0.00  0.00    +0.000 NA
ATOM     22  C   UNL     1       0.718  12.174  18.822  0.00  0.00    +0.000 C 
ATOM     23  C   UNL     1       1.597  12.538  20.032  0.00  0.00    +0.000 C 
ATOM     24  O   UNL     1       0.948  12.212  21.264  0.00  0.00    +0.000 OA
ATOM     25  C   UNL     1       0.628  10.814  21.311  0.00  0.00    +0.000 C 
ATOM     26  C   UNL     1      -0.233  10.388  20.108  0.00  0.00    +0.000 C 
ENDBRANCH  20  21
ENDBRANCH  19  20
ENDBRANCH  18  19
ENDBRANCH  16  18
ENDBRANCH  10  16
BRANCH   7  27
ATOM     27  O   UNL     1       7.436   8.314  17.287  0.00  0.00    +0.000 OA
BRANCH  27  28
ATOM     28  C   UNL     1       8.394   8.595  18.301  0.00  0.00    +0.000 C 
ATOM     29  C   UNL     1       8.721  10.079  18.221  0.00  0.00    +0.000 C 
ENDBRANCH  27  28
ENDBRANCH   7  27
TORSDOF 10
ENDMDL
MODEL 8
REMARK VINA RESULT:      -6.5      1.751      2.103
REMARK  Name = 
REMARK  12 active torsions:
REMARK  status: ('A' for Active; 'I' for Inactive)
REMARK    1  A    between atoms: C_1  and  C_2
REMARK    2  A    between atoms: C_2  and  O_3
REMARK    3  A    between atoms: O_3  and  C_4
REMARK    4  A    between atoms: C_4  and  C_6
REMARK    5  A    between atoms: C_12  and  O_13
REMARK    6  A    between atoms: O_13  and  C_14
REMARK    7  A    between atoms: C_14  and  C_15
REMARK    8  A    between atoms: C_18  and  N_19
REMARK    9  A    between atoms: N_19  and  C_20
REMARK   10  A    between atoms: C_20  and  C_21
REMARK   11  A    between atoms: C_21  and  C_22
REMARK   12  A    between atoms: C_22  and  N_23
REMARK                            x       y       z     vdW  Elec       q    Type
REMARK                         _______ _______ _______ _____ _____    ______ ____
ROOT
ATOM      1  C   UNL     1       2.391   3.706  18.646  0.00  0.00    +0.000 A 
ATOM      2  C   UNL     1       2.905   2.683  17.875  0.00  0.00    +0.000 A 
ATOM      3  N   UNL     1       4.026   2.798  17.134  0.00  0.00    +0.000 NA
ATOM      4  C   UNL     1       4.682   3.967  17.140  0.00  0.00    +0.000 A 
ATOM      5  C   UNL     1       5.797   4.078  16.308  0.00  0.00    +0.000 A 
ATOM      6  C   UNL     1       6.554   5.253  16.192  0.00  0.00    +0.000 A 
ATOM      7  C   UNL     1       6.199   6.351  16.937  0.00  0.00    +0.000 A 
ATOM      8  C   UNL     1       5.094   6.244  17.778  0.00  0.00    +0.000 A 
ATOM      9  C   UNL     1       4.285   5.077  17.916  0.00  0.00    +0.000 A 
ATOM     10  C   UNL     1       3.101   4.941  18.711  0.00  0.00    +0.000 A 
ENDROOT
BRANCH   1  11
ATOM     11  C   UNL     1       1.114   3.532  19.375  0.00  0.00    +0.000 C 
ATOM     12  O   UNL     1       0.058   3.318  18.807  0.00  0.00    +0.000 OA
BRANCH  11  13
ATOM     13  O   UNL     1       1.264   3.768  20.706  0.00  0.00    +0.000 OA
BRANCH  13  15
ATOM     14  C   UNL     1       2.941   2.387  21.668  0.00  0.00    +0.000 C 
ATOM     15  C   UNL     1       1.446   2.572  21.487  0.00  0.00    +0.000 C 
ENDBRANCH  13  15
ENDBRANCH  11  13
ENDBRANCH   1  11
BRANCH  10  16
ATOM     16  N   UNL     1       2.633   5.896  19.634  0.00  0.00    +0.000 N 
ATOM     17  H   UNL     1       2.129   5.467  20.420  0.00  0.00    +0.000 HD
BRANCH  16  18
ATOM     18  C   UNL     1       2.253   7.261  19.326  0.00  0.00    +0.000 C 
BRANCH  18  19
ATOM     19  C   UNL     1       1.805   8.045  20.554  0.00  0.00    +0.000 C 
BRANCH  19  20
ATOM     20  C   UNL     1       1.051   9.282  20.086  0.00  0.00    +0.000 C 
BRANCH  20  21
ATOM     21  N   UNL     1      -0.333   9.453  20.545  0.00  0.00    +0.000 NA
ATOM     22  C   UNL     1      -0.627  10.911  20.578  0.00  0.00    +0.000 C 
ATOM     23  C   UNL     1       0.059  11.647  21.743  0.00  0.00    +0.000 C 
ATOM     24  O   UNL     1      -0.307  11.083  23.005  0.00  0.00    +0.000 OA
ATOM     25  C   UNL     1       0.037   9.690  23.053  0.00  0.00    +0.000 C 
ATOM     26  C   UNL     1      -0.605   8.907  21.893  0.00  0.00    +0.000 C 
ENDBRANCH  20  21
ENDBRANCH  19  20
ENDBRANCH  18  19
ENDBRANCH  16  18
ENDBRANCH  10  16
BRANCH   7  27
ATOM     27  O   UNL     1       6.787   7.581  16.962  0.00  0.00    +0.000 OA
BRANCH  27  28
ATOM     28  C   UNL     1       8.001   7.737  17.689  0.00  0.00    +0.000 C 
ATOM     29  C   UNL     1       8.152   9.216  18.012  0.00  0.00    +0.000 C 
ENDBRANCH  27  28
ENDBRANCH   7  27
TORSDOF 10
ENDMDL
MODEL 9
REMARK VINA RESULT:      -6.5      4.027      6.547
REMARK  Name = 
REMARK  12 active torsions:
REMARK  status: ('A' for Active; 'I' for Inactive)
REMARK    1  A    between atoms: C_1  and  C_2
REMARK    2  A    between atoms: C_2  and  O_3
REMARK    3  A    between atoms: O_3  and  C_4
REMARK    4  A    between atoms: C_4  and  C_6
REMARK    5  A    between atoms: C_12  and  O_13
REMARK    6  A    between atoms: O_13  and  C_14
REMARK    7  A    between atoms: C_14  and  C_15
REMARK    8  A    between atoms: C_18  and  N_19
REMARK    9  A    between atoms: N_19  and  C_20
REMARK   10  A    between atoms: C_20  and  C_21
REMARK   11  A    between atoms: C_21  and  C_22
REMARK   12  A    between atoms: C_22  and  N_23
REMARK                            x       y       z     vdW  Elec       q    Type
REMARK                         _______ _______ _______ _____ _____    ______ ____
ROOT
ATOM      1  C   UNL     1       6.300   5.206  17.386  0.00  0.00    +0.000 A 
ATOM      2  C   UNL     1       7.166   6.147  16.867  0.00  0.00    +0.000 A 
ATOM      3  N   UNL     1       7.551   6.176  15.574  0.00  0.00    +0.000 NA
ATOM      4  C   UNL     1       7.071   5.242  14.741  0.00  0.00    +0.000 A 
ATOM      5  C   UNL     1       7.543   5.254  13.428  0.00  0.00    +0.000 A 
ATOM      6  C   UNL     1       7.150   4.315  12.463  0.00  0.00    +0.000 A 
ATOM      7  C   UNL     1       6.249   3.338  12.811  0.00  0.00    +0.000 A 
ATOM      8  C   UNL     1       5.765   3.326  14.117  0.00  0.00    +0.000 A 
ATOM      9  C   UNL     1       6.149   4.249  15.136  0.00  0.00    +0.000 A 
ATOM     10  C   UNL     1       5.735   4.235  16.507  0.00  0.00    +0.000 A 
ENDROOT
BRANCH   1  11
ATOM     11  C   UNL     1       5.981   5.191  18.832  0.00  0.00    +0.000 C 
ATOM     12  O   UNL     1       6.776   4.813  19.675  0.00  0.00    +0.000 OA
BRANCH  11  13
ATOM     13  O   UNL     1       4.681   5.519  19.058  0.00  0.00    +0.000 OA
BRANCH  13  15
ATOM     14  C   UNL     1       2.816   6.961  18.756  0.00  0.00    +0.000 C 
ATOM     15  C   UNL     1       4.250   6.691  18.340  0.00  0.00    +0.000 C 
ENDBRANCH  13  15
ENDBRANCH  11  13
ENDBRANCH   1  11
BRANCH  10  16
ATOM     16  N   UNL     1       4.734   3.400  17.042  0.00  0.00    +0.000 N 
ATOM     17  H   UNL     1       5.069   2.443  17.207  0.00  0.00    +0.000 HD
BRANCH  16  18
ATOM     18  C   UNL     1       3.308   3.526  16.808  0.00  0.00    +0.000 C 
BRANCH  18  19
ATOM     19  C   UNL     1       2.496   2.426  17.483  0.00  0.00    +0.000 C 
BRANCH  19  20
ATOM     20  C   UNL     1       3.029   2.233  18.896  0.00  0.00    +0.000 C 
BRANCH  20  21
ATOM     21  N   UNL     1       2.051   2.048  19.975  0.00  0.00    +0.000 NA
ATOM     22  C   UNL     1       0.792   2.730  19.572  0.00  0.00    +0.000 C 
ATOM     23  C   UNL     1       0.877   4.265  19.645  0.00  0.00    +0.000 C 
ATOM     24  O   UNL     1       1.231   4.706  20.958  0.00  0.00    +0.000 OA
ATOM     25  C   UNL     1       2.488   4.140  21.359  0.00  0.00    +0.000 C 
ATOM     26  C   UNL     1       2.467   2.602  21.282  0.00  0.00    +0.000 C 
ENDBRANCH  20  21
ENDBRANCH  19  20
ENDBRANCH  18  19
ENDBRANCH  16  18
ENDBRANCH  10  16
BRANCH   7  27
ATOM     27  O   UNL     1       5.752   2.332  12.035  0.00  0.00    +0.000 OA
BRANCH  27  28
ATOM     28  C   UNL     1       6.658   1.584  11.233  0.00  0.00    +0.000 C 
ATOM     29  C   UNL     1       6.142   0.155  11.176  0.00  0.00    +0.000 C 
ENDBRANCH  27  28
ENDBRANCH   7  27
TORSDOF 10
ENDMDL
