MODEL 1
REMARK VINA RESULT:      -8.5      0.000      0.000
REMARK  Name = 
REMARK  6 active torsions:
REMARK  status: ('A' for Active; 'I' for Inactive)
REMARK    1  A    between atoms: C_2  and  C_13
REMARK    2  A    between atoms: N_3  and  C_4
REMARK    3  A    between atoms: C_4  and  C_5
REMARK    4  A    between atoms: C_5  and  C_6
REMARK    5  A    between atoms: C_6  and  N_7
REMARK    6  A    between atoms: C_17  and  N_18
REMARK                            x       y       z     vdW  Elec       q    Type
REMARK                         _______ _______ _______ _____ _____    ______ ____
ROOT
ATOM      1  C   UNL     1       5.804   5.382  17.026  0.00  0.00    +0.000 A 
ATOM      2  C   UNL     1       5.200   4.594  16.116  0.00  0.00    +0.000 A 
ATOM      3  C   UNL     1       5.808   4.355  14.813  0.00  0.00    +0.000 A 
ATOM      4  C   UNL     1       5.227   3.528  13.846  0.00  0.00    +0.000 A 
ATOM      5  C   UNL     1       5.824   3.428  12.574  0.00  0.00    +0.000 A 
ATOM      6  C   UNL     1       6.984   4.149  12.263  0.00  0.00    +0.000 A 
ATOM      7  C   UNL     1       7.571   4.956  13.238  0.00  0.00    +0.000 A 
ATOM      8  C   UNL     1       6.981   5.036  14.498  0.00  0.00    +0.000 A 
ATOM      9  O   UNL     1       7.632   5.828  15.459  0.00  0.00    +0.000 OA
ATOM     10  C   UNL     1       7.144   5.944  16.755  0.00  0.00    +0.000 A 
ATOM     11  O   UNL     1       7.807   6.501  17.626  0.00  0.00    +0.000 OA
ENDROOT
BRANCH   1  13
ATOM     12  O   UNL     1       5.547   5.466  19.389  0.00  0.00    +0.000 OA
ATOM     13  C   UNL     1       5.049   5.678  18.286  0.00  0.00    +0.000 C 
ATOM     14  N   UNL     1       3.783   6.190  18.132  0.00  0.00    +0.000 N 
ATOM     15  H   UNL     1       3.435   6.374  17.191  0.00  0.00    +0.000 HD
BRANCH  14  16
ATOM     16  C   UNL     1       2.948   6.568  19.260  0.00  0.00    +0.000 C 
BRANCH  16  17
ATOM     17  C   UNL     1       2.058   5.403  19.687  0.00  0.00    +0.000 C 
BRANCH  17  18
ATOM     18  C   UNL     1       1.705   4.457  18.529  0.00  0.00    +0.000 C 
BRANCH  18  19
ATOM     19  N   UNL     1       1.507   3.070  18.986  0.00  0.00    +0.000 NA
ATOM     20  C   UNL     1       2.098   2.766  20.309  0.00  0.00    +0.000 C 
ATOM     21  C   UNL     1       3.631   2.615  20.317  0.00  0.00    +0.000 C 
ATOM     22  O   UNL     1       4.087   1.678  19.334  0.00  0.00    +0.000 OA
ATOM     23  C   UNL     1       3.595   2.012  18.031  0.00  0.00    +0.000 C 
ATOM     24  C   UNL     1       2.059   2.087  18.023  0.00  0.00    +0.000 C 
ENDBRANCH  18  19
ENDBRANCH  17  18
ENDBRANCH  16  17
ENDBRANCH  14  16
ENDBRANCH   1  13
BRANCH   5  25
ATOM     25  N   UNL     1       5.212   2.564  11.549  0.00  0.00    +0.000 N 
ATOM     26  O   UNL     1       4.144   2.934  11.050  0.00  0.00    +0.000 OA
ATOM     27  O   UNL     1       5.803   1.513  11.254  0.00  0.00    +0.000 OA
ENDBRANCH   5  25
TORSDOF 6
ENDMDL
MODEL 2
REMARK VINA RESULT:      -7.8      0.786      1.244
REMARK  Name = 
REMARK  6 active torsions:
REMARK  status: ('A' for Active; 'I' for Inactive)
REMARK    1  A    between atoms: C_2  and  C_13
REMARK    2  A    between atoms: N_3  and  C_4
REMARK    3  A    between atoms: C_4  and  C_5
REMARK    4  A    between atoms: C_5  and  C_6
REMARK    5  A    between atoms: C_6  and  N_7
REMARK    6  A    between atoms: C_17  and  N_18
REMARK                            x       y       z     vdW  Elec       q    Type
REMARK                         _______ _______ _______ _____ _____    ______ ____
ROOT
ATOM      1  C   UNL     1       5.771   5.506  16.877  0.00  0.00    +0.000 A 
ATOM      2  C   UNL     1       5.159   4.706  15.984  0.00  0.00    +0.000 A 
ATOM      3  C   UNL     1       5.784   4.398  14.704  0.00  0.00    +0.000 A 
ATOM      4  C   UNL     1       5.194   3.555  13.755  0.00  0.00    +0.000 A 
ATOM      5  C   UNL     1       5.812   3.387  12.501  0.00  0.00    +0.000 A 
ATOM      6  C   UNL     1       7.003   4.056  12.189  0.00  0.00    +0.000 A 
ATOM      7  C   UNL     1       7.598   4.877  13.146  0.00  0.00    +0.000 A 
ATOM      8  C   UNL     1       6.986   5.025  14.390  0.00  0.00    +0.000 A 
ATOM      9  O   UNL     1       7.646   5.829  15.335  0.00  0.00    +0.000 OA
ATOM     10  C   UNL     1       7.136   6.011  16.615  0.00  0.00    +0.000 A 
ATOM     11  O   UNL     1       7.800   6.576  17.479  0.00  0.00    +0.000 OA
ENDROOT
BRANCH   1  13
ATOM     12  O   UNL     1       5.492   5.742  19.228  0.00  0.00    +0.000 OA
ATOM     13  C   UNL     1       5.002   5.875  18.109  0.00  0.00    +0.000 C 
ATOM     14  N   UNL     1       3.732   6.360  17.912  0.00  0.00    +0.000 N 
ATOM     15  H   UNL     1       3.389   6.477  16.958  0.00  0.00    +0.000 HD
BRANCH  14  16
ATOM     16  C   UNL     1       2.882   6.801  19.006  0.00  0.00    +0.000 C 
BRANCH  16  17
ATOM     17  C   UNL     1       2.936   5.808  20.165  0.00  0.00    +0.000 C 
BRANCH  17  18
ATOM     18  C   UNL     1       1.699   4.901  20.241  0.00  0.00    +0.000 C 
BRANCH  18  19
ATOM     19  N   UNL     1       2.046   3.517  20.611  0.00  0.00    +0.000 NA
ATOM     20  C   UNL     1       3.339   3.040  20.068  0.00  0.00    +0.000 C 
ATOM     21  C   UNL     1       3.327   2.702  18.566  0.00  0.00    +0.000 C 
ATOM     22  O   UNL     1       2.272   1.795  18.224  0.00  0.00    +0.000 OA
ATOM     23  C   UNL     1       1.001   2.288  18.663  0.00  0.00    +0.000 C 
ATOM     24  C   UNL     1       1.006   2.553  20.179  0.00  0.00    +0.000 C 
ENDBRANCH  18  19
ENDBRANCH  17  18
ENDBRANCH  16  17
ENDBRANCH  14  16
ENDBRANCH   1  13
BRANCH   5  25
ATOM     25  N   UNL     1       5.191   2.507  11.496  0.00  0.00    +0.000 N 
ATOM     26  O   UNL     1       5.796   1.476  11.184  0.00  0.00    +0.000 OA
ATOM     27  O   UNL     1       4.101   2.858  11.018  0.00  0.00    +0.000 OA
ENDBRANCH   5  25
TORSDOF 6
ENDMDL
MODEL 3
REMARK VINA RESULT:      -7.7      5.187      7.088
REMARK  Name = 
REMARK  6 active torsions:
REMARK  status: ('A' for Active; 'I' for Inactive)
REMARK    1  A    between atoms: C_2  and  C_13
REMARK    2  A    between atoms: N_3  and  C_4
REMARK    3  A    between atoms: C_4  and  C_5
REMARK    4  A    between atoms: C_5  and  C_6
REMARK    5  A    between atoms: C_6  and  N_7
REMARK    6  A    between atoms: C_17  and  N_18
REMARK                            x       y       z     vdW  Elec       q    Type
REMARK                         _______ _______ _______ _____ _____    ______ ____
ROOT
ATOM      1  C   UNL     1       2.350   7.943  18.557  0.00  0.00    +0.000 A 
ATOM      2  C   UNL     1       3.147   7.649  17.512  0.00  0.00    +0.000 A 
ATOM      3  C   UNL     1       4.045   6.503  17.557  0.00  0.00    +0.000 A 
ATOM      4  C   UNL     1       4.875   6.148  16.487  0.00  0.00    +0.000 A 
ATOM      5  C   UNL     1       5.789   5.088  16.644  0.00  0.00    +0.000 A 
ATOM      6  C   UNL     1       5.882   4.390  17.855  0.00  0.00    +0.000 A 
ATOM      7  C   UNL     1       5.037   4.733  18.911  0.00  0.00    +0.000 A 
ATOM      8  C   UNL     1       4.126   5.774  18.740  0.00  0.00    +0.000 A 
ATOM      9  O   UNL     1       3.269   6.055  19.817  0.00  0.00    +0.000 OA
ATOM     10  C   UNL     1       2.301   7.050  19.734  0.00  0.00    +0.000 A 
ATOM     11  O   UNL     1       1.454   7.174  20.614  0.00  0.00    +0.000 OA
ENDROOT
BRANCH   1  13
ATOM     12  O   UNL     1       1.216   9.683  17.397  0.00  0.00    +0.000 OA
ATOM     13  C   UNL     1       1.556   9.211  18.479  0.00  0.00    +0.000 C 
ATOM     14  N   UNL     1       1.239   9.806  19.677  0.00  0.00    +0.000 N 
ATOM     15  H   UNL     1       1.521   9.352  20.545  0.00  0.00    +0.000 HD
BRANCH  14  16
ATOM     16  C   UNL     1       0.436  11.015  19.763  0.00  0.00    +0.000 C 
BRANCH  16  17
ATOM     17  C   UNL     1      -1.050  10.672  19.829  0.00  0.00    +0.000 C 
BRANCH  17  18
ATOM     18  C   UNL     1      -1.842  11.183  18.616  0.00  0.00    +0.000 C 
BRANCH  18  19
ATOM     19  N   UNL     1      -2.676  10.128  18.012  0.00  0.00    +0.000 NA
ATOM     20  C   UNL     1      -2.298   9.760  16.629  0.00  0.00    +0.000 C 
ATOM     21  C   UNL     1      -2.702  10.783  15.550  0.00  0.00    +0.000 C 
ATOM     22  O   UNL     1      -4.093  11.120  15.620  0.00  0.00    +0.000 OA
ATOM     23  C   UNL     1      -4.454  11.566  16.932  0.00  0.00    +0.000 C 
ATOM     24  C   UNL     1      -4.110  10.503  17.990  0.00  0.00    +0.000 C 
ENDBRANCH  18  19
ENDBRANCH  17  18
ENDBRANCH  16  17
ENDBRANCH  14  16
ENDBRANCH   1  13
BRANCH   5  25
ATOM     25  N   UNL     1       6.671   4.715  15.524  0.00  0.00    +0.000 N 
ATOM     26  O   UNL     1       7.688   5.393  15.345  0.00  0.00    +0.000 OA
ATOM     27  O   UNL     1       6.335   3.747  14.824  0.00  0.00    +0.000 OA
ENDBRANCH   5  25
TORSDOF 6
ENDMDL
MODEL 4
REMARK VINA RESULT:      -7.7      1.079      1.672
REMARK  Name = 
REMARK  6 active torsions:
REMARK  status: ('A' for Active; 'I' for Inactive)
REMARK    1  A    between atoms: C_2  and  C_13
REMARK    2  A    between atoms: N_3  and  C_4
REMARK    3  A    between atoms: C_4  and  C_5
REMARK    4  A    between atoms: C_5  and  C_6
REMARK    5  A    between atoms: C_6  and  N_7
REMARK    6  A    between atoms: C_17  and  N_18
REMARK                            x       y       z     vdW  Elec       q    Type
REMARK                         _______ _______ _______ _____ _____    ______ ____
ROOT
ATOM      1  C   UNL     1       5.796   5.587  16.761  0.00  0.00    +0.000 A 
ATOM      2  C   UNL     1       5.175   4.779  15.881  0.00  0.00    +0.000 A 
ATOM      3  C   UNL     1       5.809   4.423  14.618  0.00  0.00    +0.000 A 
ATOM      4  C   UNL     1       5.211   3.571  13.683  0.00  0.00    +0.000 A 
ATOM      5  C   UNL     1       5.841   3.355  12.442  0.00  0.00    +0.000 A 
ATOM      6  C   UNL     1       7.052   3.986  12.129  0.00  0.00    +0.000 A 
ATOM      7  C   UNL     1       7.656   4.816  13.073  0.00  0.00    +0.000 A 
ATOM      8  C   UNL     1       7.031   5.011  14.304  0.00  0.00    +0.000 A 
ATOM      9  O   UNL     1       7.698   5.823  15.237  0.00  0.00    +0.000 OA
ATOM     10  C   UNL     1       7.177   6.050  16.506  0.00  0.00    +0.000 A 
ATOM     11  O   UNL     1       7.844   6.621  17.363  0.00  0.00    +0.000 OA
ENDROOT
BRANCH   1  13
ATOM     12  O   UNL     1       5.409   5.726  19.104  0.00  0.00    +0.000 OA
ATOM     13  C   UNL     1       5.021   6.006  17.973  0.00  0.00    +0.000 C 
ATOM     14  N   UNL     1       3.863   6.709  17.742  0.00  0.00    +0.000 N 
ATOM     15  H   UNL     1       3.607   6.939  16.781  0.00  0.00    +0.000 HD
BRANCH  14  16
ATOM     16  C   UNL     1       3.029   7.222  18.817  0.00  0.00    +0.000 C 
BRANCH  16  17
ATOM     17  C   UNL     1       1.888   6.255  19.122  0.00  0.00    +0.000 C 
BRANCH  17  18
ATOM     18  C   UNL     1       2.065   5.514  20.456  0.00  0.00    +0.000 C 
BRANCH  18  19
ATOM     19  N   UNL     1       2.845   4.272  20.303  0.00  0.00    +0.000 NA
ATOM     20  C   UNL     1       2.595   3.539  19.041  0.00  0.00    +0.000 C 
ATOM     21  C   UNL     1       1.257   2.778  18.986  0.00  0.00    +0.000 C 
ATOM     22  O   UNL     1       1.080   1.914  20.114  0.00  0.00    +0.000 OA
ATOM     23  C   UNL     1       1.230   2.630  21.345  0.00  0.00    +0.000 C 
ATOM     24  C   UNL     1       2.601   3.325  21.416  0.00  0.00    +0.000 C 
ENDBRANCH  18  19
ENDBRANCH  17  18
ENDBRANCH  16  17
ENDBRANCH  14  16
ENDBRANCH   1  13
BRANCH   5  25
ATOM     25  N   UNL     1       5.211   2.465  11.450  0.00  0.00    +0.000 N 
ATOM     26  O   UNL     1       5.817   1.435  11.138  0.00  0.00    +0.000 OA
ATOM     27  O   UNL     1       4.113   2.808  10.984  0.00  0.00    +0.000 OA
ENDBRANCH   5  25
TORSDOF 6
ENDMDL
MODEL 5
REMARK VINA RESULT:      -7.7      5.507      8.481
REMARK  Name = 
REMARK  6 active torsions:
REMARK  status: ('A' for Active; 'I' for Inactive)
REMARK    1  A    between atoms: C_2  and  C_13
REMARK    2  A    between atoms: N_3  and  C_4
REMARK    3  A    between atoms: C_4  and  C_5
REMARK    4  A    between atoms: C_5  and  C_6
REMARK    5  A    between atoms: C_6  and  N_7
REMARK    6  A    between atoms: C_17  and  N_18
REMARK                            x       y       z     vdW  Elec       q    Type
REMARK                         _______ _______ _______ _____ _____    ______ ____
ROOT
ATOM      1  C   UNL     1       1.578   8.647  19.653  0.00  0.00    +0.000 A 
ATOM      2  C   UNL     1       1.627   7.632  20.536  0.00  0.00    +0.000 A 
ATOM      3  C   UNL     1       2.043   6.299  20.120  0.00  0.00    +0.000 A 
ATOM      4  C   UNL     1       2.129   5.219  21.006  0.00  0.00    +0.000 A 
ATOM      5  C   UNL     1       2.441   3.939  20.509  0.00  0.00    +0.000 A 
ATOM      6  C   UNL     1       2.658   3.731  19.141  0.00  0.00    +0.000 A 
ATOM      7  C   UNL     1       2.593   4.814  18.264  0.00  0.00    +0.000 A 
ATOM      8  C   UNL     1       2.299   6.080  18.769  0.00  0.00    +0.000 A 
ATOM      9  O   UNL     1       2.286   7.145  17.853  0.00  0.00    +0.000 OA
ATOM     10  C   UNL     1       2.039   8.451  18.262  0.00  0.00    +0.000 A 
ATOM     11  O   UNL     1       2.193   9.389  17.486  0.00  0.00    +0.000 OA
ENDROOT
BRANCH   1  13
ATOM     12  O   UNL     1       0.756  10.129  21.323  0.00  0.00    +0.000 OA
ATOM     13  C   UNL     1       1.016   9.949  20.135  0.00  0.00    +0.000 C 
ATOM     14  N   UNL     1       0.809  10.915  19.179  0.00  0.00    +0.000 N 
ATOM     15  H   UNL     1       1.072  10.719  18.213  0.00  0.00    +0.000 HD
BRANCH  14  16
ATOM     16  C   UNL     1       0.311  12.242  19.501  0.00  0.00    +0.000 C 
BRANCH  16  17
ATOM     17  C   UNL     1      -1.213  12.279  19.433  0.00  0.00    +0.000 C 
BRANCH  17  18
ATOM     18  C   UNL     1      -1.762  12.012  18.024  0.00  0.00    +0.000 C 
BRANCH  18  19
ATOM     19  N   UNL     1      -2.441  10.707  17.930  0.00  0.00    +0.000 NA
ATOM     20  C   UNL     1      -2.091   9.915  16.729  0.00  0.00    +0.000 C 
ATOM     21  C   UNL     1      -2.726  10.410  15.416  0.00  0.00    +0.000 C 
ATOM     22  O   UNL     1      -4.147  10.558  15.525  0.00  0.00    +0.000 OA
ATOM     23  C   UNL     1      -4.498  11.397  16.630  0.00  0.00    +0.000 C 
ATOM     24  C   UNL     1      -3.917  10.850  17.945  0.00  0.00    +0.000 C 
ENDBRANCH  18  19
ENDBRANCH  17  18
ENDBRANCH  16  17
ENDBRANCH  14  16
ENDBRANCH   1  13
BRANCH   5  25
ATOM     25  N   UNL     1       2.525   2.798  21.438  0.00  0.00    +0.000 N 
ATOM     26  O   UNL     1       1.526   2.537  22.116  0.00  0.00    +0.000 OA
ATOM     27  O   UNL     1       3.595   2.173  21.487  0.00  0.00    +0.000 OA
ENDBRANCH   5  25
TORSDOF 6
ENDMDL
MODEL 6
REMARK VINA RESULT:      -7.6      3.026      4.720
REMARK  Name = 
REMARK  6 active torsions:
REMARK  status: ('A' for Active; 'I' for Inactive)
REMARK    1  A    between atoms: C_2  and  C_13
REMARK    2  A    between atoms: N_3  and  C_4
REMARK    3  A    between atoms: C_4  and  C_5
REMARK    4  A    between atoms: C_5  and  C_6
REMARK    5  A    between atoms: C_6  and  N_7
REMARK    6  A    between atoms: C_17  and  N_18
REMARK                            x       y       z     vdW  Elec       q    Type
REMARK                         _______ _______ _______ _____ _____    ______ ____
ROOT
ATOM      1  C   UNL     1       5.408   5.699  16.819  0.00  0.00    +0.000 A 
ATOM      2  C   UNL     1       4.890   4.869  15.894  0.00  0.00    +0.000 A 
ATOM      3  C   UNL     1       5.653   4.502  14.708  0.00  0.00    +0.000 A 
ATOM      4  C   UNL     1       5.164   3.627  13.731  0.00  0.00    +0.000 A 
ATOM      5  C   UNL     1       5.919   3.401  12.564  0.00  0.00    +0.000 A 
ATOM      6  C   UNL     1       7.147   4.044  12.365  0.00  0.00    +0.000 A 
ATOM      7  C   UNL     1       7.642   4.898  13.351  0.00  0.00    +0.000 A 
ATOM      8  C   UNL     1       6.893   5.103  14.509  0.00  0.00    +0.000 A 
ATOM      9  O   UNL     1       7.452   5.939  15.491  0.00  0.00    +0.000 OA
ATOM     10  C   UNL     1       6.801   6.179  16.696  0.00  0.00    +0.000 A 
ATOM     11  O   UNL     1       7.371   6.772  17.607  0.00  0.00    +0.000 OA
ENDROOT
BRANCH   1  13
ATOM     12  O   UNL     1       4.591   5.612  19.051  0.00  0.00    +0.000 OA
ATOM     13  C   UNL     1       4.509   6.126  17.938  0.00  0.00    +0.000 C 
ATOM     14  N   UNL     1       3.596   7.111  17.645  0.00  0.00    +0.000 N 
ATOM     15  H   UNL     1       3.595   7.523  16.711  0.00  0.00    +0.000 HD
BRANCH  14  16
ATOM     16  C   UNL     1       2.688   7.660  18.638  0.00  0.00    +0.000 C 
BRANCH  16  17
ATOM     17  C   UNL     1       1.614   8.516  17.973  0.00  0.00    +0.000 C 
BRANCH  17  18
ATOM     18  C   UNL     1       1.801  10.021  18.221  0.00  0.00    +0.000 C 
BRANCH  18  19
ATOM     19  N   UNL     1       0.566  10.663  18.704  0.00  0.00    +0.000 NA
ATOM     20  C   UNL     1       0.707  12.099  19.035  0.00  0.00    +0.000 C 
ATOM     21  C   UNL     1       1.448  12.392  20.353  0.00  0.00    +0.000 C 
ATOM     22  O   UNL     1       0.889  11.672  21.459  0.00  0.00    +0.000 OA
ATOM     23  C   UNL     1       0.831  10.267  21.187  0.00  0.00    +0.000 C 
ATOM     24  C   UNL     1       0.025   9.986  19.907  0.00  0.00    +0.000 C 
ENDBRANCH  18  19
ENDBRANCH  17  18
ENDBRANCH  16  17
ENDBRANCH  14  16
ENDBRANCH   1  13
BRANCH   5  25
ATOM     25  N   UNL     1       5.404   2.487  11.530  0.00  0.00    +0.000 N 
ATOM     26  O   UNL     1       6.127   1.545  11.186  0.00  0.00    +0.000 OA
ATOM     27  O   UNL     1       4.279   2.722  11.062  0.00  0.00    +0.000 OA
ENDBRANCH   5  25
TORSDOF 6
ENDMDL
MODEL 7
REMARK VINA RESULT:      -7.6      4.473      8.208
REMARK  Name = 
REMARK  6 active torsions:
REMARK  status: ('A' for Active; 'I' for Inactive)
REMARK    1  A    between atoms: C_2  and  C_13
REMARK    2  A    between atoms: N_3  and  C_4
REMARK    3  A    between atoms: C_4  and  C_5
REMARK    4  A    between atoms: C_5  and  C_6
REMARK    5  A    between atoms: C_6  and  N_7
REMARK    6  A    between atoms: C_17  and  N_18
REMARK                            x       y       z     vdW  Elec       q    Type
REMARK                         _______ _______ _______ _____ _____    ______ ____
ROOT
ATOM      1  C   UNL     1       6.604   5.060  18.350  0.00  0.00    +0.000 A 
ATOM      2  C   UNL     1       5.589   4.754  19.180  0.00  0.00    +0.000 A 
ATOM      3  C   UNL     1       4.436   3.999  18.706  0.00  0.00    +0.000 A 
ATOM      4  C   UNL     1       3.370   3.641  19.538  0.00  0.00    +0.000 A 
ATOM      5  C   UNL     1       2.245   3.000  18.983  0.00  0.00    +0.000 A 
ATOM      6  C   UNL     1       2.177   2.724  17.611  0.00  0.00    +0.000 A 
ATOM      7  C   UNL     1       3.251   3.064  16.790  0.00  0.00    +0.000 A 
ATOM      8  C   UNL     1       4.367   3.684  17.352  0.00  0.00    +0.000 A 
ATOM      9  O   UNL     1       5.440   3.968  16.492  0.00  0.00    +0.000 OA
ATOM     10  C   UNL     1       6.611   4.552  16.961  0.00  0.00    +0.000 A 
ATOM     11  O   UNL     1       7.599   4.643  16.237  0.00  0.00    +0.000 OA
ENDROOT
BRANCH   1  13
ATOM     12  O   UNL     1       8.430   5.570  19.787  0.00  0.00    +0.000 OA
ATOM     13  C   UNL     1       7.685   5.948  18.885  0.00  0.00    +0.000 C 
ATOM     14  N   UNL     1       7.788   7.194  18.315  0.00  0.00    +0.000 N 
ATOM     15  H   UNL     1       7.162   7.441  17.549  0.00  0.00    +0.000 HD
BRANCH  14  16
ATOM     16  C   UNL     1       8.815   8.149  18.698  0.00  0.00    +0.000 C 
BRANCH  16  17
ATOM     17  C   UNL     1       8.444   9.556  18.237  0.00  0.00    +0.000 C 
BRANCH  17  18
ATOM     18  C   UNL     1       8.951  10.655  19.181  0.00  0.00    +0.000 C 
BRANCH  18  19
ATOM     19  N   UNL     1       9.517  11.802  18.447  0.00  0.00    +0.000 NA
ATOM     20  C   UNL     1      10.894  11.594  17.946  0.00  0.00    +0.000 C 
ATOM     21  C   UNL     1      11.994  11.661  19.022  0.00  0.00    +0.000 C 
ATOM     22  O   UNL     1      11.917  12.862  19.800  0.00  0.00    +0.000 OA
ATOM     23  C   UNL     1      10.612  13.030  20.367  0.00  0.00    +0.000 C 
ATOM     24  C   UNL     1       9.531  13.033  19.272  0.00  0.00    +0.000 C 
ENDBRANCH  18  19
ENDBRANCH  17  18
ENDBRANCH  16  17
ENDBRANCH  14  16
ENDBRANCH   1  13
BRANCH   5  25
ATOM     25  N   UNL     1       1.116   2.628  19.854  0.00  0.00    +0.000 N 
ATOM     26  O   UNL     1       1.339   2.515  21.064  0.00  0.00    +0.000 OA
ATOM     27  O   UNL     1       0.012   2.443  19.318  0.00  0.00    +0.000 OA
ENDBRANCH   5  25
TORSDOF 6
ENDMDL
MODEL 8
REMARK VINA RESULT:      -7.6      5.583      8.198
REMARK  Name = 
REMARK  6 active torsions:
REMARK  status: ('A' for Active; 'I' for Inactive)
REMARK    1  A    between atoms: C_2  and  C_13
REMARK    2  A    between atoms: N_3  and  C_4
REMARK    3  A    between atoms: C_4  and  C_5
REMARK    4  A    between atoms: C_5  and  C_6
REMARK    5  A    between atoms: C_6  and  N_7
REMARK    6  A    between atoms: C_17  and  N_18
REMARK                            x       y       z     vdW  Elec       q    Type
REMARK                         _______ _______ _______ _____ _____    ______ ____
ROOT
ATOM      1  C   UNL     1       1.342   8.749  19.888  0.00  0.00    +0.000 A 
ATOM      2  C   UNL     1       1.632   7.570  20.469  0.00  0.00    +0.000 A 
ATOM      3  C   UNL     1       2.397   6.554  19.757  0.00  0.00    +0.000 A 
ATOM      4  C   UNL     1       2.739   5.323  20.329  0.00  0.00    +0.000 A 
ATOM      5  C   UNL     1       3.392   4.354  19.543  0.00  0.00    +0.000 A 
ATOM      6  C   UNL     1       3.698   4.602  18.199  0.00  0.00    +0.000 A 
ATOM      7  C   UNL     1       3.375   5.839  17.640  0.00  0.00    +0.000 A 
ATOM      8  C   UNL     1       2.742   6.797  18.430  0.00  0.00    +0.000 A 
ATOM      9  O   UNL     1       2.475   8.041  17.835  0.00  0.00    +0.000 OA
ATOM     10  C   UNL     1       1.880   9.075  18.549  0.00  0.00    +0.000 A 
ATOM     11  O   UNL     1       1.803  10.203  18.071  0.00  0.00    +0.000 OA
ENDROOT
BRANCH   1  13
ATOM     12  O   UNL     1       0.312   9.595  21.858  0.00  0.00    +0.000 OA
ATOM     13  C   UNL     1       0.442   9.682  20.639  0.00  0.00    +0.000 C 
ATOM     14  N   UNL     1      -0.222  10.623  19.890  0.00  0.00    +0.000 N 
ATOM     15  H   UNL     1      -0.050  10.667  18.885  0.00  0.00    +0.000 HD
BRANCH  14  16
ATOM     16  C   UNL     1      -1.094  11.624  20.482  0.00  0.00    +0.000 C 
BRANCH  16  17
ATOM     17  C   UNL     1      -1.586  12.606  19.423  0.00  0.00    +0.000 C 
BRANCH  17  18
ATOM     18  C   UNL     1      -1.637  11.999  18.013  0.00  0.00    +0.000 C 
BRANCH  18  19
ATOM     19  N   UNL     1      -2.404  10.740  17.977  0.00  0.00    +0.000 NA
ATOM     20  C   UNL     1      -2.119   9.879  16.807  0.00  0.00    +0.000 C 
ATOM     21  C   UNL     1      -2.732  10.362  15.479  0.00  0.00    +0.000 C 
ATOM     22  O   UNL     1      -4.139  10.611  15.592  0.00  0.00    +0.000 OA
ATOM     23  C   UNL     1      -4.422  11.516  16.665  0.00  0.00    +0.000 C 
ATOM     24  C   UNL     1      -3.866  10.983  17.998  0.00  0.00    +0.000 C 
ENDBRANCH  18  19
ENDBRANCH  17  18
ENDBRANCH  16  17
ENDBRANCH  14  16
ENDBRANCH   1  13
BRANCH   5  25
ATOM     25  N   UNL     1       3.747   3.053  20.138  0.00  0.00    +0.000 N 
ATOM     26  O   UNL     1       2.885   2.474  20.806  0.00  0.00    +0.000 OA
ATOM     27  O   UNL     1       4.893   2.621  19.937  0.00  0.00    +0.000 OA
ENDBRANCH   5  25
TORSDOF 6
ENDMDL
MODEL 9
REMARK VINA RESULT:      -7.4      4.614      8.500
REMARK  Name = 
REMARK  6 active torsions:
REMARK  status: ('A' for Active; 'I' for Inactive)
REMARK    1  A    between atoms: C_2  and  C_13
REMARK    2  A    between atoms: N_3  and  C_4
REMARK    3  A    between atoms: C_4  and  C_5
REMARK    4  A    between atoms: C_5  and  C_6
REMARK    5  A    between atoms: C_6  and  N_7
REMARK    6  A    between atoms: C_17  and  N_18
REMARK                            x       y       z     vdW  Elec       q    Type
REMARK                         _______ _______ _______ _____ _____    ______ ____
ROOT
ATOM      1  C   UNL     1       6.663   5.991  17.890  0.00  0.00    +0.000 A 
ATOM      2  C   UNL     1       5.951   5.578  18.956  0.00  0.00    +0.000 A 
ATOM      3  C   UNL     1       4.870   4.612  18.803  0.00  0.00    +0.000 A 
ATOM      4  C   UNL     1       4.118   4.139  19.884  0.00  0.00    +0.000 A 
ATOM      5  C   UNL     1       3.024   3.284  19.644  0.00  0.00    +0.000 A 
ATOM      6  C   UNL     1       2.677   2.908  18.340  0.00  0.00    +0.000 A 
ATOM      7  C   UNL     1       3.443   3.364  17.268  0.00  0.00    +0.000 A 
ATOM      8  C   UNL     1       4.533   4.197  17.518  0.00  0.00    +0.000 A 
ATOM      9  O   UNL     1       5.298   4.597  16.410  0.00  0.00    +0.000 OA
ATOM     10  C   UNL     1       6.425   5.398  16.557  0.00  0.00    +0.000 A 
ATOM     11  O   UNL     1       7.176   5.603  15.608  0.00  0.00    +0.000 OA
ENDROOT
BRANCH   1  13
ATOM     12  O   UNL     1       8.589   6.940  18.915  0.00  0.00    +0.000 OA
ATOM     13  C   UNL     1       7.666   7.081  18.116  0.00  0.00    +0.000 C 
ATOM     14  N   UNL     1       7.489   8.232  17.388  0.00  0.00    +0.000 N 
ATOM     15  H   UNL     1       6.722   8.281  16.716  0.00  0.00    +0.000 HD
BRANCH  14  16
ATOM     16  C   UNL     1       8.406   9.358  17.466  0.00  0.00    +0.000 C 
BRANCH  16  17
ATOM     17  C   UNL     1       8.816   9.621  18.912  0.00  0.00    +0.000 C 
BRANCH  17  18
ATOM     18  C   UNL     1       9.310  11.056  19.149  0.00  0.00    +0.000 C 
BRANCH  18  19
ATOM     19  N   UNL     1      10.343  11.456  18.176  0.00  0.00    +0.000 NA
ATOM     20  C   UNL     1      11.716  11.517  18.727  0.00  0.00    +0.000 C 
ATOM     21  C   UNL     1      12.002  12.735  19.625  0.00  0.00    +0.000 C 
ATOM     22  O   UNL     1      11.660  13.971  18.986  0.00  0.00    +0.000 OA
ATOM     23  C   UNL     1      10.303  13.959  18.528  0.00  0.00    +0.000 C 
ATOM     24  C   UNL     1      10.052  12.779  17.574  0.00  0.00    +0.000 C 
ENDBRANCH  18  19
ENDBRANCH  17  18
ENDBRANCH  16  17
ENDBRANCH  14  16
ENDBRANCH   1  13
BRANCH   5  25
ATOM     25  N   UNL     1       2.224   2.789  20.778  0.00  0.00    +0.000 N 
ATOM     26  O   UNL     1       1.002   2.698  20.621  0.00  0.00    +0.000 OA
ATOM     27  O   UNL     1       2.825   2.501  21.825  0.00  0.00    +0.000 OA
ENDBRANCH   5  25
TORSDOF 6
ENDMDL
