MODEL 1
REMARK VINA RESULT:      -9.4      0.000      0.000
REMARK  Name = 
REMARK  4 active torsions:
REMARK  status: ('A' for Active; 'I' for Inactive)
REMARK    1  A    between atoms: C_4  and  O_5
REMARK    2  A    between atoms: O_5  and  C_6
REMARK    3  A    between atoms: C_6  and  C_7
REMARK    4  A    between atoms: C_19  and  C_20
REMARK                            x       y       z     vdW  Elec       q    Type
REMARK                         _______ _______ _______ _____ _____    ______ ____
ROOT
ATOM      1  O   UNL     1       3.677   1.576  19.059  0.00  0.00    +0.000 OA
ATOM      2  C   UNL     1       3.721   2.683  18.529  0.00  0.00    +0.000 A 
ATOM      3  N   UNL     1       4.413   2.858  17.359  0.00  0.00    +0.000 NA
ATOM      4  C   UNL     1       4.391   4.030  16.849  0.00  0.00    +0.000 A 
ATOM      5  C   UNL     1       3.731   5.222  17.374  0.00  0.00    +0.000 A 
ATOM      6  C   UNL     1       3.085   5.056  18.536  0.00  0.00    +0.000 A 
ATOM      7  N   UNL     1       3.066   3.791  19.110  0.00  0.00    +0.000 N 
ATOM      8  C   UNL     1       2.352   3.502  20.341  0.00  0.00    +0.000 C 
ATOM      9  C   UNL     1       1.633   4.631  21.056  0.00  0.00    +0.000 C 
ATOM     10  C   UNL     1       1.714   5.983  20.416  0.00  0.00    +0.000 A 
ATOM     11  C   UNL     1       1.062   7.050  21.078  0.00  0.00    +0.000 A 
ATOM     12  C   UNL     1       1.078   8.360  20.586  0.00  0.00    +0.000 A 
ATOM     13  C   UNL     1       1.774   8.564  19.389  0.00  0.00    +0.000 A 
ATOM     14  C   UNL     1       2.418   7.509  18.721  0.00  0.00    +0.000 A 
ATOM     15  C   UNL     1       2.402   6.193  19.217  0.00  0.00    +0.000 A 
ENDROOT
BRANCH  12  16
ATOM     16  C   UNL     1       0.411   9.468  21.304  0.00  0.00    +0.000 A 
ATOM     17  C   UNL     1      -0.014  10.636  20.653  0.00  0.00    +0.000 A 
ATOM     18  C   UNL     1      -0.611  11.675  21.368  0.00  0.00    +0.000 A 
ATOM     19  C   UNL     1      -0.783  11.521  22.731  0.00  0.00    +0.000 A 
ATOM     20  N   UNL     1      -0.414  10.418  23.406  0.00  0.00    +0.000 NA
ATOM     21  C   UNL     1       0.169   9.428  22.681  0.00  0.00    +0.000 A 
ENDBRANCH  12  16
BRANCH   4  22
ATOM     22  O   UNL     1       5.009   4.350  15.691  0.00  0.00    +0.000 OA
BRANCH  22  23
ATOM     23  C   UNL     1       6.362   3.877  15.502  0.00  0.00    +0.000 C 
BRANCH  23  24
ATOM     24  C   UNL     1       7.290   4.886  16.183  0.00  0.00    +0.000 C 
ATOM     25  C   UNL     1       7.438   4.701  17.685  0.00  0.00    +0.000 C 
ATOM     26  C   UNL     1       7.717   6.111  18.152  0.00  0.00    +0.000 C 
ATOM     27  C   UNL     1       6.844   6.931  17.231  0.00  0.00    +0.000 C 
ATOM     28  O   UNL     1       6.772   6.223  15.990  0.00  0.00    +0.000 OA
ENDBRANCH  23  24
ENDBRANCH  22  23
ENDBRANCH   4  22
TORSDOF 4
ENDMDL
MODEL 2
REMARK VINA RESULT:      -8.8      3.007      5.357
REMARK  Name = 
REMARK  4 active torsions:
REMARK  status: ('A' for Active; 'I' for Inactive)
REMARK    1  A    between atoms: C_4  and  O_5
REMARK    2  A    between atoms: O_5  and  C_6
REMARK    3  A    between atoms: C_6  and  C_7
REMARK    4  A    between atoms: C_19  and  C_20
REMARK                            x       y       z     vdW  Elec       q    Type
REMARK                         _______ _______ _______ _____ _____    ______ ____
ROOT
ATOM      1  O   UNL     1       2.881   8.192  17.105  0.00  0.00    +0.000 OA
ATOM      2  C   UNL     1       2.474   7.871  18.218  0.00  0.00    +0.000 A 
ATOM      3  N   UNL     1       2.720   6.614  18.705  0.00  0.00    +0.000 NA
ATOM      4  C   UNL     1       2.292   6.359  19.882  0.00  0.00    +0.000 A 
ATOM      5  C   UNL     1       1.552   7.245  20.776  0.00  0.00    +0.000 A 
ATOM      6  C   UNL     1       1.283   8.462  20.284  0.00  0.00    +0.000 A 
ATOM      7  N   UNL     1       1.751   8.785  19.016  0.00  0.00    +0.000 N 
ATOM      8  C   UNL     1       1.552  10.093  18.418  0.00  0.00    +0.000 C 
ATOM      9  C   UNL     1       0.766  11.140  19.187  0.00  0.00    +0.000 C 
ATOM     10  C   UNL     1       0.252  10.732  20.533  0.00  0.00    +0.000 A 
ATOM     11  C   UNL     1      -0.495  11.691  21.256  0.00  0.00    +0.000 A 
ATOM     12  C   UNL     1      -1.039  11.423  22.518  0.00  0.00    +0.000 A 
ATOM     13  C   UNL     1      -0.798  10.146  23.038  0.00  0.00    +0.000 A 
ATOM     14  C   UNL     1      -0.050   9.191  22.331  0.00  0.00    +0.000 A 
ATOM     15  C   UNL     1       0.494   9.461  21.063  0.00  0.00    +0.000 A 
ENDROOT
BRANCH  12  16
ATOM     16  C   UNL     1      -1.839  12.430  23.249  0.00  0.00    +0.000 A 
ATOM     17  C   UNL     1      -3.153  12.181  23.673  0.00  0.00    +0.000 A 
ATOM     18  C   UNL     1      -3.889  13.166  24.332  0.00  0.00    +0.000 A 
ATOM     19  C   UNL     1      -3.289  14.389  24.567  0.00  0.00    +0.000 A 
ATOM     20  N   UNL     1      -2.027  14.679  24.201  0.00  0.00    +0.000 NA
ATOM     21  C   UNL     1      -1.341  13.700  23.557  0.00  0.00    +0.000 A 
ENDBRANCH  12  16
BRANCH   4  22
ATOM     22  O   UNL     1       2.476   5.173  20.501  0.00  0.00    +0.000 OA
BRANCH  22  23
ATOM     23  C   UNL     1       1.324   4.311  20.651  0.00  0.00    +0.000 C 
BRANCH  23  24
ATOM     24  C   UNL     1       1.585   3.061  19.808  0.00  0.00    +0.000 C 
ATOM     25  C   UNL     1       3.008   2.530  19.881  0.00  0.00    +0.000 C 
ATOM     26  C   UNL     1       3.172   1.877  18.528  0.00  0.00    +0.000 C 
ATOM     27  C   UNL     1       2.395   2.810  17.627  0.00  0.00    +0.000 C 
ATOM     28  O   UNL     1       1.335   3.358  18.415  0.00  0.00    +0.000 OA
ENDBRANCH  23  24
ENDBRANCH  22  23
ENDBRANCH   4  22
TORSDOF 4
ENDMDL
MODEL 3
REMARK VINA RESULT:      -8.7      1.341      2.116
REMARK  Name = 
REMARK  4 active torsions:
REMARK  status: ('A' for Active; 'I' for Inactive)
REMARK    1  A    between atoms: C_4  and  O_5
REMARK    2  A    between atoms: O_5  and  C_6
REMARK    3  A    between atoms: C_6  and  C_7
REMARK    4  A    between atoms: C_19  and  C_20
REMARK                            x       y       z     vdW  Elec       q    Type
REMARK                         _______ _______ _______ _____ _____    ______ ____
ROOT
ATOM      1  O   UNL     1       4.329   2.470  19.234  0.00  0.00    +0.000 OA
ATOM      2  C   UNL     1       4.209   3.538  18.640  0.00  0.00    +0.000 A 
ATOM      3  N   UNL     1       4.840   3.732  17.439  0.00  0.00    +0.000 NA
ATOM      4  C   UNL     1       4.647   4.857  16.864  0.00  0.00    +0.000 A 
ATOM      5  C   UNL     1       3.845   5.979  17.340  0.00  0.00    +0.000 A 
ATOM      6  C   UNL     1       3.257   5.801  18.531  0.00  0.00    +0.000 A 
ATOM      7  N   UNL     1       3.424   4.582  19.177  0.00  0.00    +0.000 N 
ATOM      8  C   UNL     1       2.788   4.276  20.446  0.00  0.00    +0.000 C 
ATOM      9  C   UNL     1       1.941   5.341  21.119  0.00  0.00    +0.000 C 
ATOM     10  C   UNL     1       1.821   6.649  20.399  0.00  0.00    +0.000 A 
ATOM     11  C   UNL     1       1.047   7.658  21.020  0.00  0.00    +0.000 A 
ATOM     12  C   UNL     1       0.873   8.926  20.452  0.00  0.00    +0.000 A 
ATOM     13  C   UNL     1       1.504   9.147  19.223  0.00  0.00    +0.000 A 
ATOM     14  C   UNL     1       2.268   8.148  18.596  0.00  0.00    +0.000 A 
ATOM     15  C   UNL     1       2.444   6.876  19.168  0.00  0.00    +0.000 A 
ENDROOT
BRANCH  12  16
ATOM     16  C   UNL     1       0.080   9.977  21.127  0.00  0.00    +0.000 A 
ATOM     17  C   UNL     1      -0.671  10.923  20.415  0.00  0.00    +0.000 A 
ATOM     18  C   UNL     1      -1.381  11.922  21.084  0.00  0.00    +0.000 A 
ATOM     19  C   UNL     1      -1.335  11.948  22.465  0.00  0.00    +0.000 A 
ATOM     20  N   UNL     1      -0.649  11.056  23.202  0.00  0.00    +0.000 NA
ATOM     21  C   UNL     1       0.036  10.102  22.519  0.00  0.00    +0.000 A 
ENDBRANCH  12  16
BRANCH   4  22
ATOM     22  O   UNL     1       5.186   5.183  15.668  0.00  0.00    +0.000 OA
BRANCH  22  23
ATOM     23  C   UNL     1       6.624   5.320  15.598  0.00  0.00    +0.000 C 
BRANCH  23  24
ATOM     24  C   UNL     1       7.105   4.426  14.453  0.00  0.00    +0.000 C 
ATOM     25  C   UNL     1       7.516   5.173  13.193  0.00  0.00    +0.000 C 
ATOM     26  C   UNL     1       7.217   4.159  12.113  0.00  0.00    +0.000 C 
ATOM     27  C   UNL     1       5.962   3.497  12.634  0.00  0.00    +0.000 C 
ATOM     28  O   UNL     1       6.040   3.530  14.061  0.00  0.00    +0.000 OA
ENDBRANCH  23  24
ENDBRANCH  22  23
ENDBRANCH   4  22
TORSDOF 4
ENDMDL
MODEL 4
REMARK VINA RESULT:      -8.6      2.870      5.126
REMARK  Name = 
REMARK  4 active torsions:
REMARK  status: ('A' for Active; 'I' for Inactive)
REMARK    1  A    between atoms: C_4  and  O_5
REMARK    2  A    between atoms: O_5  and  C_6
REMARK    3  A    between atoms: C_6  and  C_7
REMARK    4  A    between atoms: C_19  and  C_20
REMARK                            x       y       z     vdW  Elec       q    Type
REMARK                         _______ _______ _______ _____ _____    ______ ____
ROOT
ATOM      1  O   UNL     1       3.117   7.578  17.242  0.00  0.00    +0.000 OA
ATOM      2  C   UNL     1       2.672   7.331  18.360  0.00  0.00    +0.000 A 
ATOM      3  N   UNL     1       2.868   6.096  18.921  0.00  0.00    +0.000 NA
ATOM      4  C   UNL     1       2.403   5.919  20.099  0.00  0.00    +0.000 A 
ATOM      5  C   UNL     1       1.666   6.873  20.921  0.00  0.00    +0.000 A 
ATOM      6  C   UNL     1       1.445   8.068  20.357  0.00  0.00    +0.000 A 
ATOM      7  N   UNL     1       1.955   8.307  19.086  0.00  0.00    +0.000 N 
ATOM      8  C   UNL     1       1.810   9.585  18.412  0.00  0.00    +0.000 C 
ATOM      9  C   UNL     1       1.036  10.694  19.100  0.00  0.00    +0.000 C 
ATOM     10  C   UNL     1       0.475  10.376  20.452  0.00  0.00    +0.000 A 
ATOM     11  C   UNL     1      -0.263  11.394  21.100  0.00  0.00    +0.000 A 
ATOM     12  C   UNL     1      -0.847  11.212  22.360  0.00  0.00    +0.000 A 
ATOM     13  C   UNL     1      -0.657   9.960  22.956  0.00  0.00    +0.000 A 
ATOM     14  C   UNL     1       0.081   8.946  22.322  0.00  0.00    +0.000 A 
ATOM     15  C   UNL     1       0.666   9.130  21.057  0.00  0.00    +0.000 A 
ENDROOT
BRANCH  12  16
ATOM     16  C   UNL     1      -1.636  12.280  23.012  0.00  0.00    +0.000 A 
ATOM     17  C   UNL     1      -1.106  13.552  23.270  0.00  0.00    +0.000 A 
ATOM     18  C   UNL     1      -1.869  14.525  23.918  0.00  0.00    +0.000 A 
ATOM     19  C   UNL     1      -3.163  14.208  24.288  0.00  0.00    +0.000 A 
ATOM     20  N   UNL     1      -3.731  13.012  24.049  0.00  0.00    +0.000 NA
ATOM     21  C   UNL     1      -2.959  12.087  23.423  0.00  0.00    +0.000 A 
ENDBRANCH  12  16
BRANCH   4  22
ATOM     22  O   UNL     1       2.536   4.764  20.786  0.00  0.00    +0.000 OA
BRANCH  22  23
ATOM     23  C   UNL     1       1.403   3.866  20.810  0.00  0.00    +0.000 C 
BRANCH  23  24
ATOM     24  C   UNL     1       1.779   2.646  19.967  0.00  0.00    +0.000 C 
ATOM     25  C   UNL     1       3.274   2.408  19.822  0.00  0.00    +0.000 C 
ATOM     26  C   UNL     1       3.356   1.725  18.476  0.00  0.00    +0.000 C 
ATOM     27  C   UNL     1       2.279   2.436  17.690  0.00  0.00    +0.000 C 
ATOM     28  O   UNL     1       1.264   2.810  18.626  0.00  0.00    +0.000 OA
ENDBRANCH  23  24
ENDBRANCH  22  23
ENDBRANCH   4  22
TORSDOF 4
ENDMDL
MODEL 5
REMARK VINA RESULT:      -8.6      1.990      2.751
REMARK  Name = 
REMARK  4 active torsions:
REMARK  status: ('A' for Active; 'I' for Inactive)
REMARK    1  A    between atoms: C_4  and  O_5
REMARK    2  A    between atoms: O_5  and  C_6
REMARK    3  A    between atoms: C_6  and  C_7
REMARK    4  A    between atoms: C_19  and  C_20
REMARK                            x       y       z     vdW  Elec       q    Type
REMARK                         _______ _______ _______ _____ _____    ______ ____
ROOT
ATOM      1  O   UNL     1       3.164   2.840  20.597  0.00  0.00    +0.000 OA
ATOM      2  C   UNL     1       3.404   3.595  19.658  0.00  0.00    +0.000 A 
ATOM      3  N   UNL     1       4.197   3.176  18.622  0.00  0.00    +0.000 NA
ATOM      4  C   UNL     1       4.380   4.005  17.667  0.00  0.00    +0.000 A 
ATOM      5  C   UNL     1       3.859   5.363  17.549  0.00  0.00    +0.000 A 
ATOM      6  C   UNL     1       3.113   5.783  18.579  0.00  0.00    +0.000 A 
ATOM      7  N   UNL     1       2.872   4.903  19.627  0.00  0.00    +0.000 N 
ATOM      8  C   UNL     1       2.037   5.249  20.764  0.00  0.00    +0.000 C 
ATOM      9  C   UNL     1       1.435   6.641  20.836  0.00  0.00    +0.000 C 
ATOM     10  C   UNL     1       1.753   7.564  19.700  0.00  0.00    +0.000 A 
ATOM     11  C   UNL     1       1.213   8.870  19.759  0.00  0.00    +0.000 A 
ATOM     12  C   UNL     1       1.451   9.827  18.766  0.00  0.00    +0.000 A 
ATOM     13  C   UNL     1       2.254   9.421  17.694  0.00  0.00    +0.000 A 
ATOM     14  C   UNL     1       2.789   8.123  17.623  0.00  0.00    +0.000 A 
ATOM     15  C   UNL     1       2.550   7.164  18.623  0.00  0.00    +0.000 A 
ENDROOT
BRANCH  12  16
ATOM     16  C   UNL     1       0.897  11.196  18.856  0.00  0.00    +0.000 A 
ATOM     17  C   UNL     1       1.668  12.336  18.586  0.00  0.00    +0.000 A 
ATOM     18  C   UNL     1       1.121  13.614  18.714  0.00  0.00    +0.000 A 
ATOM     19  C   UNL     1      -0.201  13.728  19.101  0.00  0.00    +0.000 A 
ATOM     20  N   UNL     1      -0.994  12.671  19.354  0.00  0.00    +0.000 NA
ATOM     21  C   UNL     1      -0.429  11.443  19.226  0.00  0.00    +0.000 A 
ENDBRANCH  12  16
BRANCH   4  22
ATOM     22  O   UNL     1       5.119   3.726  16.570  0.00  0.00    +0.000 OA
BRANCH  22  23
ATOM     23  C   UNL     1       6.256   4.576  16.297  0.00  0.00    +0.000 C 
BRANCH  23  24
ATOM     24  C   UNL     1       6.193   4.950  14.815  0.00  0.00    +0.000 C 
ATOM     25  C   UNL     1       5.944   3.780  13.875  0.00  0.00    +0.000 C 
ATOM     26  C   UNL     1       6.638   4.238  12.611  0.00  0.00    +0.000 C 
ATOM     27  C   UNL     1       7.843   4.969  13.155  0.00  0.00    +0.000 C 
ATOM     28  O   UNL     1       7.453   5.532  14.411  0.00  0.00    +0.000 OA
ENDBRANCH  23  24
ENDBRANCH  22  23
ENDBRANCH   4  22
TORSDOF 4
ENDMDL
MODEL 6
REMARK VINA RESULT:      -8.5      1.358      1.678
REMARK  Name = 
REMARK  4 active torsions:
REMARK  status: ('A' for Active; 'I' for Inactive)
REMARK    1  A    between atoms: C_4  and  O_5
REMARK    2  A    between atoms: O_5  and  C_6
REMARK    3  A    between atoms: C_6  and  C_7
REMARK    4  A    between atoms: C_19  and  C_20
REMARK                            x       y       z     vdW  Elec       q    Type
REMARK                         _______ _______ _______ _____ _____    ______ ____
ROOT
ATOM      1  O   UNL     1       3.607   2.897  19.948  0.00  0.00    +0.000 OA
ATOM      2  C   UNL     1       3.702   3.824  19.147  0.00  0.00    +0.000 A 
ATOM      3  N   UNL     1       4.465   3.682  18.018  0.00  0.00    +0.000 NA
ATOM      4  C   UNL     1       4.493   4.677  17.215  0.00  0.00    +0.000 A 
ATOM      5  C   UNL     1       3.822   5.965  17.363  0.00  0.00    +0.000 A 
ATOM      6  C   UNL     1       3.105   6.114  18.485  0.00  0.00    +0.000 A 
ATOM      7  N   UNL     1       3.031   5.046  19.371  0.00  0.00    +0.000 N 
ATOM      8  C   UNL     1       2.240   5.094  20.589  0.00  0.00    +0.000 C 
ATOM      9  C   UNL     1       1.498   6.373  20.932  0.00  0.00    +0.000 C 
ATOM     10  C   UNL     1       1.639   7.506  19.964  0.00  0.00    +0.000 A 
ATOM     11  C   UNL     1       0.966   8.710  20.277  0.00  0.00    +0.000 A 
ATOM     12  C   UNL     1       1.034   9.843  19.457  0.00  0.00    +0.000 A 
ATOM     13  C   UNL     1       1.803   9.722  18.294  0.00  0.00    +0.000 A 
ATOM     14  C   UNL     1       2.468   8.527  17.972  0.00  0.00    +0.000 A 
ATOM     15  C   UNL     1       2.401   7.391  18.797  0.00  0.00    +0.000 A 
ENDROOT
BRANCH  12  16
ATOM     16  C   UNL     1       0.343  11.102  19.812  0.00  0.00    +0.000 A 
ATOM     17  C   UNL     1      -0.883  11.472  19.241  0.00  0.00    +0.000 A 
ATOM     18  C   UNL     1      -1.490  12.684  19.576  0.00  0.00    +0.000 A 
ATOM     19  C   UNL     1      -0.860  13.504  20.493  0.00  0.00    +0.000 A 
ATOM     20  N   UNL     1       0.306  13.193  21.088  0.00  0.00    +0.000 NA
ATOM     21  C   UNL     1       0.872  12.010  20.735  0.00  0.00    +0.000 A 
ENDBRANCH  12  16
BRANCH   4  22
ATOM     22  O   UNL     1       5.184   4.677  16.054  0.00  0.00    +0.000 OA
BRANCH  22  23
ATOM     23  C   UNL     1       6.465   4.005  16.038  0.00  0.00    +0.000 C 
BRANCH  23  24
ATOM     24  C   UNL     1       7.483   4.965  16.658  0.00  0.00    +0.000 C 
ATOM     25  C   UNL     1       7.467   5.013  18.179  0.00  0.00    +0.000 C 
ATOM     26  C   UNL     1       7.934   6.424  18.454  0.00  0.00    +0.000 C 
ATOM     27  C   UNL     1       7.291   7.199  17.327  0.00  0.00    +0.000 C 
ATOM     28  O   UNL     1       7.212   6.312  16.208  0.00  0.00    +0.000 OA
ENDBRANCH  23  24
ENDBRANCH  22  23
ENDBRANCH   4  22
TORSDOF 4
ENDMDL
MODEL 7
REMARK VINA RESULT:      -8.5      1.992      2.853
REMARK  Name = 
REMARK  4 active torsions:
REMARK  status: ('A' for Active; 'I' for Inactive)
REMARK    1  A    between atoms: C_4  and  O_5
REMARK    2  A    between atoms: O_5  and  C_6
REMARK    3  A    between atoms: C_6  and  C_7
REMARK    4  A    between atoms: C_19  and  C_20
REMARK                            x       y       z     vdW  Elec       q    Type
REMARK                         _______ _______ _______ _____ _____    ______ ____
ROOT
ATOM      1  O   UNL     1       5.168   3.363  19.177  0.00  0.00    +0.000 OA
ATOM      2  C   UNL     1       5.039   4.372  18.489  0.00  0.00    +0.000 A 
ATOM      3  N   UNL     1       5.845   4.569  17.399  0.00  0.00    +0.000 NA
ATOM      4  C   UNL     1       5.635   5.627  16.713  0.00  0.00    +0.000 A 
ATOM      5  C   UNL     1       4.646   6.671  16.959  0.00  0.00    +0.000 A 
ATOM      6  C   UNL     1       3.882   6.494  18.046  0.00  0.00    +0.000 A 
ATOM      7  N   UNL     1       4.065   5.344  18.805  0.00  0.00    +0.000 N 
ATOM      8  C   UNL     1       3.254   5.039  19.971  0.00  0.00    +0.000 C 
ATOM      9  C   UNL     1       2.192   6.033  20.407  0.00  0.00    +0.000 C 
ATOM     10  C   UNL     1       2.059   7.273  19.577  0.00  0.00    +0.000 A 
ATOM     11  C   UNL     1       1.085   8.216  19.979  0.00  0.00    +0.000 A 
ATOM     12  C   UNL     1       0.877   9.419  19.293  0.00  0.00    +0.000 A 
ATOM     13  C   UNL     1       1.685   9.641  18.172  0.00  0.00    +0.000 A 
ATOM     14  C   UNL     1       2.649   8.706  17.761  0.00  0.00    +0.000 A 
ATOM     15  C   UNL     1       2.859   7.499  18.453  0.00  0.00    +0.000 A 
ENDROOT
BRANCH  12  16
ATOM     16  C   UNL     1      -0.130  10.405  19.742  0.00  0.00    +0.000 A 
ATOM     17  C   UNL     1      -1.041  11.003  18.858  0.00  0.00    +0.000 A 
ATOM     18  C   UNL     1      -1.956  11.954  19.311  0.00  0.00    +0.000 A 
ATOM     19  C   UNL     1      -1.951  12.284  20.653  0.00  0.00    +0.000 A 
ATOM     20  N   UNL     1      -1.116  11.730  21.551  0.00  0.00    +0.000 NA
ATOM     21  C   UNL     1      -0.234  10.813  21.075  0.00  0.00    +0.000 A 
ENDBRANCH  12  16
BRANCH   4  22
ATOM     22  O   UNL     1       6.335   5.945  15.602  0.00  0.00    +0.000 OA
BRANCH  22  23
ATOM     23  C   UNL     1       7.042   4.877  14.929  0.00  0.00    +0.000 C 
BRANCH  23  24
ATOM     24  C   UNL     1       6.394   4.706  13.553  0.00  0.00    +0.000 C 
ATOM     25  C   UNL     1       5.297   3.655  13.493  0.00  0.00    +0.000 C 
ATOM     26  C   UNL     1       5.383   3.191  12.057  0.00  0.00    +0.000 C 
ATOM     27  C   UNL     1       6.870   3.239  11.793  0.00  0.00    +0.000 C 
ATOM     28  O   UNL     1       7.398   4.299  12.595  0.00  0.00    +0.000 OA
ENDBRANCH  23  24
ENDBRANCH  22  23
ENDBRANCH   4  22
TORSDOF 4
ENDMDL
MODEL 8
REMARK VINA RESULT:      -8.5      1.674      2.175
REMARK  Name = 
REMARK  4 active torsions:
REMARK  status: ('A' for Active; 'I' for Inactive)
REMARK    1  A    between atoms: C_4  and  O_5
REMARK    2  A    between atoms: O_5  and  C_6
REMARK    3  A    between atoms: C_6  and  C_7
REMARK    4  A    between atoms: C_19  and  C_20
REMARK                            x       y       z     vdW  Elec       q    Type
REMARK                         _______ _______ _______ _____ _____    ______ ____
ROOT
ATOM      1  O   UNL     1       3.181   3.327  20.212  0.00  0.00    +0.000 OA
ATOM      2  C   UNL     1       3.339   4.198  19.361  0.00  0.00    +0.000 A 
ATOM      3  N   UNL     1       4.107   3.947  18.254  0.00  0.00    +0.000 NA
ATOM      4  C   UNL     1       4.203   4.890  17.396  0.00  0.00    +0.000 A 
ATOM      5  C   UNL     1       3.605   6.220  17.458  0.00  0.00    +0.000 A 
ATOM      6  C   UNL     1       2.883   6.475  18.557  0.00  0.00    +0.000 A 
ATOM      7  N   UNL     1       2.736   5.467  19.503  0.00  0.00    +0.000 N 
ATOM      8  C   UNL     1       1.934   5.631  20.702  0.00  0.00    +0.000 C 
ATOM      9  C   UNL     1       1.262   6.968  20.959  0.00  0.00    +0.000 C 
ATOM     10  C   UNL     1       1.480   8.032  19.929  0.00  0.00    +0.000 A 
ATOM     11  C   UNL     1       0.873   9.289  20.161  0.00  0.00    +0.000 A 
ATOM     12  C   UNL     1       1.016  10.366  19.278  0.00  0.00    +0.000 A 
ATOM     13  C   UNL     1       1.793  10.134  18.138  0.00  0.00    +0.000 A 
ATOM     14  C   UNL     1       2.392   8.886  17.895  0.00  0.00    +0.000 A 
ATOM     15  C   UNL     1       2.250   7.806  18.784  0.00  0.00    +0.000 A 
ENDROOT
BRANCH  12  16
ATOM     16  C   UNL     1       0.394  11.681  19.549  0.00  0.00    +0.000 A 
ATOM     17  C   UNL     1       1.140  12.791  19.970  0.00  0.00    +0.000 A 
ATOM     18  C   UNL     1       0.515  14.008  20.248  0.00  0.00    +0.000 A 
ATOM     19  C   UNL     1      -0.855  14.095  20.088  0.00  0.00    +0.000 A 
ATOM     20  N   UNL     1      -1.620  13.070  19.669  0.00  0.00    +0.000 NA
ATOM     21  C   UNL     1      -0.980  11.899  19.413  0.00  0.00    +0.000 A 
ENDBRANCH  12  16
BRANCH   4  22
ATOM     22  O   UNL     1       4.907   4.783  16.248  0.00  0.00    +0.000 OA
BRANCH  22  23
ATOM     23  C   UNL     1       6.155   4.053  16.295  0.00  0.00    +0.000 C 
BRANCH  23  24
ATOM     24  C   UNL     1       7.231   5.032  16.770  0.00  0.00    +0.000 C 
ATOM     25  C   UNL     1       7.369   5.141  18.280  0.00  0.00    +0.000 C 
ATOM     26  C   UNL     1       7.862   6.561  18.450  0.00  0.00    +0.000 C 
ATOM     27  C   UNL     1       7.109   7.292  17.363  0.00  0.00    +0.000 C 
ATOM     28  O   UNL     1       6.916   6.361  16.295  0.00  0.00    +0.000 OA
ENDBRANCH  23  24
ENDBRANCH  22  23
ENDBRANCH   4  22
TORSDOF 4
ENDMDL
MODEL 9
REMARK VINA RESULT:      -8.4      2.999      8.386
REMARK  Name = 
REMARK  4 active torsions:
REMARK  status: ('A' for Active; 'I' for Inactive)
REMARK    1  A    between atoms: C_4  and  O_5
REMARK    2  A    between atoms: O_5  and  C_6
REMARK    3  A    between atoms: C_6  and  C_7
REMARK    4  A    between atoms: C_19  and  C_20
REMARK                            x       y       z     vdW  Elec       q    Type
REMARK                         _______ _______ _______ _____ _____    ______ ____
ROOT
ATOM      1  O   UNL     1       1.120   3.378  21.224  0.00  0.00    +0.000 OA
ATOM      2  C   UNL     1       1.579   4.388  20.699  0.00  0.00    +0.000 A 
ATOM      3  N   UNL     1       1.294   5.624  21.218  0.00  0.00    +0.000 NA
ATOM      4  C   UNL     1       1.830   6.629  20.637  0.00  0.00    +0.000 A 
ATOM      5  C   UNL     1       2.703   6.625  19.467  0.00  0.00    +0.000 A 
ATOM      6  C   UNL     1       2.952   5.419  18.941  0.00  0.00    +0.000 A 
ATOM      7  N   UNL     1       2.406   4.300  19.557  0.00  0.00    +0.000 N 
ATOM      8  C   UNL     1       2.659   2.948  19.090  0.00  0.00    +0.000 C 
ATOM      9  C   UNL     1       3.518   2.746  17.855  0.00  0.00    +0.000 C 
ATOM     10  C   UNL     1       4.054   3.985  17.207  0.00  0.00    +0.000 A 
ATOM     11  C   UNL     1       4.844   3.816  16.045  0.00  0.00    +0.000 A 
ATOM     12  C   UNL     1       5.388   4.898  15.343  0.00  0.00    +0.000 A 
ATOM     13  C   UNL     1       5.114   6.170  15.856  0.00  0.00    +0.000 A 
ATOM     14  C   UNL     1       4.337   6.347  17.013  0.00  0.00    +0.000 A 
ATOM     15  C   UNL     1       3.789   5.260  17.717  0.00  0.00    +0.000 A 
ENDROOT
BRANCH  12  16
ATOM     16  C   UNL     1       6.192   4.703  14.117  0.00  0.00    +0.000 A 
ATOM     17  C   UNL     1       5.879   3.724  13.162  0.00  0.00    +0.000 A 
ATOM     18  C   UNL     1       6.679   3.546  12.032  0.00  0.00    +0.000 A 
ATOM     19  C   UNL     1       7.781   4.366  11.872  0.00  0.00    +0.000 A 
ATOM     20  N   UNL     1       8.119   5.334  12.743  0.00  0.00    +0.000 NA
ATOM     21  C   UNL     1       7.323   5.475  13.834  0.00  0.00    +0.000 A 
ENDBRANCH  12  16
BRANCH   4  22
ATOM     22  O   UNL     1       1.657   7.905  21.047  0.00  0.00    +0.000 OA
BRANCH  22  23
ATOM     23  C   UNL     1       1.098   8.841  20.097  0.00  0.00    +0.000 C 
BRANCH  23  24
ATOM     24  C   UNL     1      -0.045   9.571  20.806  0.00  0.00    +0.000 C 
ATOM     25  C   UNL     1       0.284  10.986  21.255  0.00  0.00    +0.000 C 
ATOM     26  C   UNL     1      -0.611  11.152  22.461  0.00  0.00    +0.000 C 
ATOM     27  C   UNL     1      -0.577   9.772  23.076  0.00  0.00    +0.000 C 
ATOM     28  O   UNL     1      -0.414   8.844  22.000  0.00  0.00    +0.000 OA
ENDBRANCH  23  24
ENDBRANCH  22  23
ENDBRANCH   4  22
TORSDOF 4
ENDMDL
