MODEL 1
REMARK VINA RESULT:      -6.9      0.000      0.000
REMARK  Name = 
REMARK  4 active torsions:
REMARK  status: ('A' for Active; 'I' for Inactive)
REMARK    1  A    between atoms: N_3  and  C_4
REMARK    2  A    between atoms: C_6  and  C_7
REMARK    3  A    between atoms: C_7  and  O_8
REMARK    4  A    between atoms: C_10  and  N_11
REMARK                            x       y       z     vdW  Elec       q    Type
REMARK                         _______ _______ _______ _____ _____    ______ ____
ROOT
ATOM      1  N   UNL     1       2.544   6.701  18.903  0.00  0.00    +0.000 N 
ATOM      2  C   UNL     1       2.926   7.163  17.669  0.00  0.00    +0.000 A 
ATOM      3  N   UNL     1       2.540   8.404  17.462  0.00  0.00    +0.000 NA
ATOM      4  C   UNL     1       1.912   8.772  18.632  0.00  0.00    +0.000 A 
ATOM      5  C   UNL     1       1.258   9.952  19.020  0.00  0.00    +0.000 A 
ATOM      6  N   UNL     1       1.066  11.026  18.161  0.00  0.00    +0.000 N 
ATOM      7  N   UNL     1       0.789  10.042  20.286  0.00  0.00    +0.000 NA
ATOM      8  C   UNL     1       0.937   8.973  21.099  0.00  0.00    +0.000 A 
ATOM      9  N   UNL     1       1.498   7.775  20.825  0.00  0.00    +0.000 NA
ATOM     10  C   UNL     1       1.961   7.748  19.564  0.00  0.00    +0.000 A 
ATOM     11  H   UNL     1       1.684  11.027  17.358  0.00  0.00    +0.000 HD
ATOM     12  H   UNL     1       0.894  11.897  18.642  0.00  0.00    +0.000 HD
ENDROOT
BRANCH   1  17
ATOM     13  C   UNL     1       4.079   4.899  19.824  0.00  0.00    +0.000 C 
ATOM     14  C   UNL     1       4.196   3.399  19.513  0.00  0.00    +0.000 C 
ATOM     15  C   UNL     1       3.588   3.179  18.132  0.00  0.00    +0.000 C 
ATOM     16  S   UNL     1       2.014   4.079  18.245  0.00  0.00    +0.000 S 
ATOM     17  C   UNL     1       2.653   5.346  19.412  0.00  0.00    +0.000 C 
BRANCH  13  20
ATOM     18  N   UNL     1       7.349   5.362  19.942  0.00  0.00    +0.000 NA
ATOM     19  N   UNL     1       6.298   5.487  19.524  0.00  0.00    +0.000 NA
ATOM     20  N   UNL     1       5.142   5.606  19.075  0.00  0.00    +0.000 NA
ENDBRANCH  13  20
BRANCH  15  21
ATOM     21  C   UNL     1       3.368   1.711  17.776  0.00  0.00    +0.000 C 
BRANCH  21  22
ATOM     22  O   UNL     1       4.234   0.876  18.539  0.00  0.00    +0.000 OA
ATOM     23  H   UNL     1       5.073   0.815  18.044  0.00  0.00    +0.000 HD
ENDBRANCH  21  22
ENDBRANCH  15  21
ENDBRANCH   1  17
TORSDOF 4
ENDMDL
MODEL 2
REMARK VINA RESULT:      -6.9      3.361      5.131
REMARK  Name = 
REMARK  4 active torsions:
REMARK  status: ('A' for Active; 'I' for Inactive)
REMARK    1  A    between atoms: N_3  and  C_4
REMARK    2  A    between atoms: C_6  and  C_7
REMARK    3  A    between atoms: C_7  and  O_8
REMARK    4  A    between atoms: C_10  and  N_11
REMARK                            x       y       z     vdW  Elec       q    Type
REMARK                         _______ _______ _______ _____ _____    ______ ____
ROOT
ATOM      1  N   UNL     1       4.493   5.978  17.381  0.00  0.00    +0.000 N 
ATOM      2  C   UNL     1       5.148   7.164  17.165  0.00  0.00    +0.000 A 
ATOM      3  N   UNL     1       6.091   7.051  16.254  0.00  0.00    +0.000 NA
ATOM      4  C   UNL     1       6.015   5.741  15.836  0.00  0.00    +0.000 A 
ATOM      5  C   UNL     1       6.772   4.999  14.914  0.00  0.00    +0.000 A 
ATOM      6  N   UNL     1       7.881   5.517  14.259  0.00  0.00    +0.000 N 
ATOM      7  N   UNL     1       6.407   3.721  14.661  0.00  0.00    +0.000 NA
ATOM      8  C   UNL     1       5.357   3.211  15.341  0.00  0.00    +0.000 A 
ATOM      9  N   UNL     1       4.589   3.805  16.281  0.00  0.00    +0.000 NA
ATOM     10  C   UNL     1       4.985   5.074  16.478  0.00  0.00    +0.000 A 
ATOM     11  H   UNL     1       7.920   6.530  14.252  0.00  0.00    +0.000 HD
ATOM     12  H   UNL     1       8.116   5.017  13.413  0.00  0.00    +0.000 HD
ENDROOT
BRANCH   1  17
ATOM     13  C   UNL     1       4.077   5.046  19.706  0.00  0.00    +0.000 C 
ATOM     14  C   UNL     1       3.005   4.086  20.247  0.00  0.00    +0.000 C 
ATOM     15  C   UNL     1       2.470   3.297  19.057  0.00  0.00    +0.000 C 
ATOM     16  S   UNL     1       2.151   4.599  17.830  0.00  0.00    +0.000 S 
ATOM     17  C   UNL     1       3.514   5.685  18.412  0.00  0.00    +0.000 C 
BRANCH  13  20
ATOM     18  N   UNL     1       7.355   5.415  19.912  0.00  0.00    +0.000 NA
ATOM     19  N   UNL     1       6.385   4.861  19.696  0.00  0.00    +0.000 NA
ATOM     20  N   UNL     1       5.313   4.266  19.472  0.00  0.00    +0.000 NA
ENDBRANCH  13  20
BRANCH  15  21
ATOM     21  C   UNL     1       1.208   2.494  19.361  0.00  0.00    +0.000 C 
BRANCH  21  22
ATOM     22  O   UNL     1       0.388   3.185  20.298  0.00  0.00    +0.000 OA
ATOM     23  H   UNL     1       0.466   4.136  20.091  0.00  0.00    +0.000 HD
ENDBRANCH  21  22
ENDBRANCH  15  21
ENDBRANCH   1  17
TORSDOF 4
ENDMDL
MODEL 3
REMARK VINA RESULT:      -6.8      3.954      5.310
REMARK  Name = 
REMARK  4 active torsions:
REMARK  status: ('A' for Active; 'I' for Inactive)
REMARK    1  A    between atoms: N_3  and  C_4
REMARK    2  A    between atoms: C_6  and  C_7
REMARK    3  A    between atoms: C_7  and  O_8
REMARK    4  A    between atoms: C_10  and  N_11
REMARK                            x       y       z     vdW  Elec       q    Type
REMARK                         _______ _______ _______ _____ _____    ______ ____
ROOT
ATOM      1  N   UNL     1       4.480   4.331  17.818  0.00  0.00    +0.000 N 
ATOM      2  C   UNL     1       3.468   5.177  17.439  0.00  0.00    +0.000 A 
ATOM      3  N   UNL     1       2.404   5.051  18.203  0.00  0.00    +0.000 NA
ATOM      4  C   UNL     1       2.759   4.106  19.141  0.00  0.00    +0.000 A 
ATOM      5  C   UNL     1       2.051   3.516  20.199  0.00  0.00    +0.000 A 
ATOM      6  N   UNL     1       0.710   3.776  20.448  0.00  0.00    +0.000 N 
ATOM      7  N   UNL     1       2.704   2.649  21.007  0.00  0.00    +0.000 NA
ATOM      8  C   UNL     1       3.995   2.365  20.727  0.00  0.00    +0.000 A 
ATOM      9  N   UNL     1       4.762   2.827  19.715  0.00  0.00    +0.000 NA
ATOM     10  C   UNL     1       4.069   3.694  18.957  0.00  0.00    +0.000 A 
ATOM     11  H   UNL     1       0.370   4.631  20.022  0.00  0.00    +0.000 HD
ATOM     12  H   UNL     1       0.429   3.561  21.394  0.00  0.00    +0.000 HD
ENDROOT
BRANCH   1  17
ATOM     13  C   UNL     1       6.798   5.195  17.244  0.00  0.00    +0.000 C 
ATOM     14  C   UNL     1       7.579   5.228  15.921  0.00  0.00    +0.000 C 
ATOM     15  C   UNL     1       6.555   5.135  14.795  0.00  0.00    +0.000 C 
ATOM     16  S   UNL     1       5.506   3.750  15.328  0.00  0.00    +0.000 S 
ATOM     17  C   UNL     1       5.729   4.081  17.122  0.00  0.00    +0.000 C 
BRANCH  13  20
ATOM     18  N   UNL     1       7.739   8.362  17.352  0.00  0.00    +0.000 NA
ATOM     19  N   UNL     1       7.003   7.495  17.410  0.00  0.00    +0.000 NA
ATOM     20  N   UNL     1       6.210   6.535  17.462  0.00  0.00    +0.000 NA
ENDBRANCH  13  20
BRANCH  15  21
ATOM     21  C   UNL     1       7.165   4.877  13.420  0.00  0.00    +0.000 C 
BRANCH  21  22
ATOM     22  O   UNL     1       8.339   5.663  13.236  0.00  0.00    +0.000 OA
ATOM     23  H   UNL     1       8.544   6.068  14.101  0.00  0.00    +0.000 HD
ENDBRANCH  21  22
ENDBRANCH  15  21
ENDBRANCH   1  17
TORSDOF 4
ENDMDL
MODEL 4
REMARK VINA RESULT:      -6.6      3.248      4.347
REMARK  Name = 
REMARK  4 active torsions:
REMARK  status: ('A' for Active; 'I' for Inactive)
REMARK    1  A    between atoms: N_3  and  C_4
REMARK    2  A    between atoms: C_6  and  C_7
REMARK    3  A    between atoms: C_7  and  O_8
REMARK    4  A    between atoms: C_10  and  N_11
REMARK                            x       y       z     vdW  Elec       q    Type
REMARK                         _______ _______ _______ _____ _____    ______ ____
ROOT
ATOM      1  N   UNL     1       4.272   5.192  17.991  0.00  0.00    +0.000 N 
ATOM      2  C   UNL     1       3.910   6.501  17.796  0.00  0.00    +0.000 A 
ATOM      3  N   UNL     1       3.000   6.898  18.659  0.00  0.00    +0.000 NA
ATOM      4  C   UNL     1       2.792   5.806  19.473  0.00  0.00    +0.000 A 
ATOM      5  C   UNL     1       1.922   5.586  20.552  0.00  0.00    +0.000 A 
ATOM      6  N   UNL     1       0.984   6.522  20.967  0.00  0.00    +0.000 N 
ATOM      7  N   UNL     1       1.997   4.406  21.210  0.00  0.00    +0.000 NA
ATOM      8  C   UNL     1       2.878   3.483  20.767  0.00  0.00    +0.000 A 
ATOM      9  N   UNL     1       3.726   3.560  19.717  0.00  0.00    +0.000 NA
ATOM     10  C   UNL     1       3.621   4.756  19.113  0.00  0.00    +0.000 A 
ATOM     11  H   UNL     1       1.175   7.466  20.652  0.00  0.00    +0.000 HD
ATOM     12  H   UNL     1       0.673   6.382  21.918  0.00  0.00    +0.000 HD
ENDROOT
BRANCH   1  17
ATOM     13  C   UNL     1       6.624   4.363  17.513  0.00  0.00    +0.000 C 
ATOM     14  C   UNL     1       7.417   4.235  16.203  0.00  0.00    +0.000 C 
ATOM     15  C   UNL     1       6.782   5.192  15.200  0.00  0.00    +0.000 C 
ATOM     16  S   UNL     1       5.011   4.818  15.363  0.00  0.00    +0.000 S 
ATOM     17  C   UNL     1       5.120   4.374  17.143  0.00  0.00    +0.000 C 
BRANCH  13  20
ATOM     18  N   UNL     1       7.836   5.340  20.429  0.00  0.00    +0.000 NA
ATOM     19  N   UNL     1       7.462   5.476  19.362  0.00  0.00    +0.000 NA
ATOM     20  N   UNL     1       7.058   5.606  18.191  0.00  0.00    +0.000 NA
ENDBRANCH  13  20
BRANCH  15  21
ATOM     21  C   UNL     1       7.264   4.998  13.765  0.00  0.00    +0.000 C 
BRANCH  21  22
ATOM     22  O   UNL     1       8.435   5.772  13.521  0.00  0.00    +0.000 OA
ATOM     23  H   UNL     1       9.198   5.181  13.671  0.00  0.00    +0.000 HD
ENDBRANCH  21  22
ENDBRANCH  15  21
ENDBRANCH   1  17
TORSDOF 4
ENDMDL
MODEL 5
REMARK VINA RESULT:      -6.6      2.832      3.809
REMARK  Name = 
REMARK  4 active torsions:
REMARK  status: ('A' for Active; 'I' for Inactive)
REMARK    1  A    between atoms: N_3  and  C_4
REMARK    2  A    between atoms: C_6  and  C_7
REMARK    3  A    between atoms: C_7  and  O_8
REMARK    4  A    between atoms: C_10  and  N_11
REMARK                            x       y       z     vdW  Elec       q    Type
REMARK                         _______ _______ _______ _____ _____    ______ ____
ROOT
ATOM      1  N   UNL     1       3.973   4.570  18.654  0.00  0.00    +0.000 N 
ATOM      2  C   UNL     1       3.479   4.038  19.818  0.00  0.00    +0.000 A 
ATOM      3  N   UNL     1       2.746   4.902  20.487  0.00  0.00    +0.000 NA
ATOM      4  C   UNL     1       2.737   6.033  19.700  0.00  0.00    +0.000 A 
ATOM      5  C   UNL     1       2.165   7.302  19.880  0.00  0.00    +0.000 A 
ATOM      6  N   UNL     1       1.501   7.673  21.042  0.00  0.00    +0.000 N 
ATOM      7  N   UNL     1       2.272   8.205  18.878  0.00  0.00    +0.000 NA
ATOM      8  C   UNL     1       2.963   7.851  17.772  0.00  0.00    +0.000 A 
ATOM      9  N   UNL     1       3.595   6.687  17.507  0.00  0.00    +0.000 NA
ATOM     10  C   UNL     1       3.441   5.825  18.526  0.00  0.00    +0.000 A 
ATOM     11  H   UNL     1       1.194   6.892  21.609  0.00  0.00    +0.000 HD
ATOM     12  H   UNL     1       0.875   8.455  20.913  0.00  0.00    +0.000 HD
ENDROOT
BRANCH   1  17
ATOM     13  C   UNL     1       6.426   4.249  18.081  0.00  0.00    +0.000 C 
ATOM     14  C   UNL     1       7.185   4.334  16.747  0.00  0.00    +0.000 C 
ATOM     15  C   UNL     1       6.338   5.184  15.805  0.00  0.00    +0.000 C 
ATOM     16  S   UNL     1       4.684   4.456  15.995  0.00  0.00    +0.000 S 
ATOM     17  C   UNL     1       4.938   3.973  17.750  0.00  0.00    +0.000 C 
BRANCH  13  20
ATOM     18  N   UNL     1       8.056   5.416  20.710  0.00  0.00    +0.000 NA
ATOM     19  N   UNL     1       7.369   5.476  19.803  0.00  0.00    +0.000 NA
ATOM     20  N   UNL     1       6.627   5.525  18.804  0.00  0.00    +0.000 NA
ENDBRANCH  13  20
BRANCH  15  21
ATOM     21  C   UNL     1       6.801   5.147  14.351  0.00  0.00    +0.000 C 
BRANCH  21  22
ATOM     22  O   UNL     1       8.123   5.664  14.233  0.00  0.00    +0.000 OA
ATOM     23  H   UNL     1       8.529   5.225  13.461  0.00  0.00    +0.000 HD
ENDBRANCH  21  22
ENDBRANCH  15  21
ENDBRANCH   1  17
TORSDOF 4
ENDMDL
MODEL 6
REMARK VINA RESULT:      -6.6      3.998      5.265
REMARK  Name = 
REMARK  4 active torsions:
REMARK  status: ('A' for Active; 'I' for Inactive)
REMARK    1  A    between atoms: N_3  and  C_4
REMARK    2  A    between atoms: C_6  and  C_7
REMARK    3  A    between atoms: C_7  and  O_8
REMARK    4  A    between atoms: C_10  and  N_11
REMARK                            x       y       z     vdW  Elec       q    Type
REMARK                         _______ _______ _______ _____ _____    ______ ____
ROOT
ATOM      1  N   UNL     1       4.706   4.484  17.810  0.00  0.00    +0.000 N 
ATOM      2  C   UNL     1       4.521   3.596  16.780  0.00  0.00    +0.000 A 
ATOM      3  N   UNL     1       5.355   3.809  15.785  0.00  0.00    +0.000 NA
ATOM      4  C   UNL     1       6.139   4.860  16.208  0.00  0.00    +0.000 A 
ATOM      5  C   UNL     1       7.178   5.570  15.587  0.00  0.00    +0.000 A 
ATOM      6  N   UNL     1       7.574   5.337  14.276  0.00  0.00    +0.000 N 
ATOM      7  N   UNL     1       7.817   6.529  16.296  0.00  0.00    +0.000 NA
ATOM      8  C   UNL     1       7.392   6.782  17.554  0.00  0.00    +0.000 A 
ATOM      9  N   UNL     1       6.379   6.204  18.235  0.00  0.00    +0.000 NA
ATOM     10  C   UNL     1       5.794   5.251  17.491  0.00  0.00    +0.000 A 
ATOM     11  H   UNL     1       7.284   4.437  13.912  0.00  0.00    +0.000 HD
ATOM     12  H   UNL     1       8.508   5.663  14.076  0.00  0.00    +0.000 HD
ENDROOT
BRANCH   1  17
ATOM     13  C   UNL     1       4.263   3.778  20.209  0.00  0.00    +0.000 C 
ATOM     14  C   UNL     1       2.962   3.423  20.947  0.00  0.00    +0.000 C 
ATOM     15  C   UNL     1       1.941   3.025  19.887  0.00  0.00    +0.000 C 
ATOM     16  S   UNL     1       2.091   4.366  18.670  0.00  0.00    +0.000 S 
ATOM     17  C   UNL     1       3.878   4.653  18.990  0.00  0.00    +0.000 C 
BRANCH  13  20
ATOM     18  N   UNL     1       5.525   1.070  21.623  0.00  0.00    +0.000 NA
ATOM     19  N   UNL     1       5.247   1.756  20.758  0.00  0.00    +0.000 NA
ATOM     20  N   UNL     1       4.928   2.514  19.821  0.00  0.00    +0.000 NA
ENDBRANCH  13  20
BRANCH  15  21
ATOM     21  C   UNL     1       0.513   2.907  20.414  0.00  0.00    +0.000 C 
BRANCH  21  22
ATOM     22  O   UNL     1      -0.378   2.535  19.366  0.00  0.00    +0.000 OA
ATOM     23  H   UNL     1      -0.576   1.587  19.490  0.00  0.00    +0.000 HD
ENDBRANCH  21  22
ENDBRANCH  15  21
ENDBRANCH   1  17
TORSDOF 4
ENDMDL
MODEL 7
REMARK VINA RESULT:      -6.6      2.759      4.880
REMARK  Name = 
REMARK  4 active torsions:
REMARK  status: ('A' for Active; 'I' for Inactive)
REMARK    1  A    between atoms: N_3  and  C_4
REMARK    2  A    between atoms: C_6  and  C_7
REMARK    3  A    between atoms: C_7  and  O_8
REMARK    4  A    between atoms: C_10  and  N_11
REMARK                            x       y       z     vdW  Elec       q    Type
REMARK                         _______ _______ _______ _____ _____    ______ ____
ROOT
ATOM      1  N   UNL     1       4.700   5.282  17.221  0.00  0.00    +0.000 N 
ATOM      2  C   UNL     1       4.741   6.012  16.060  0.00  0.00    +0.000 A 
ATOM      3  N   UNL     1       5.769   6.833  16.025  0.00  0.00    +0.000 NA
ATOM      4  C   UNL     1       6.443   6.595  17.202  0.00  0.00    +0.000 A 
ATOM      5  C   UNL     1       7.591   7.176  17.765  0.00  0.00    +0.000 A 
ATOM      6  N   UNL     1       8.258   8.245  17.183  0.00  0.00    +0.000 N 
ATOM      7  N   UNL     1       8.062   6.674  18.930  0.00  0.00    +0.000 NA
ATOM      8  C   UNL     1       7.378   5.665  19.513  0.00  0.00    +0.000 A 
ATOM      9  N   UNL     1       6.242   5.063  19.096  0.00  0.00    +0.000 NA
ATOM     10  C   UNL     1       5.831   5.589  17.930  0.00  0.00    +0.000 A 
ATOM     11  H   UNL     1       8.054   8.373  16.199  0.00  0.00    +0.000 HD
ATOM     12  H   UNL     1       9.214   8.339  17.496  0.00  0.00    +0.000 HD
ENDROOT
BRANCH   1  17
ATOM     13  C   UNL     1       2.416   5.107  18.316  0.00  0.00    +0.000 C 
ATOM     14  C   UNL     1       1.877   4.179  19.416  0.00  0.00    +0.000 C 
ATOM     15  C   UNL     1       3.082   3.664  20.196  0.00  0.00    +0.000 C 
ATOM     16  S   UNL     1       4.211   3.134  18.876  0.00  0.00    +0.000 S 
ATOM     17  C   UNL     1       3.639   4.403  17.676  0.00  0.00    +0.000 C 
BRANCH  13  20
ATOM     18  N   UNL     1       2.019   8.342  17.763  0.00  0.00    +0.000 NA
ATOM     19  N   UNL     1       2.380   7.422  18.328  0.00  0.00    +0.000 NA
ATOM     20  N   UNL     1       2.760   6.404  18.939  0.00  0.00    +0.000 NA
ENDBRANCH  13  20
BRANCH  15  21
ATOM     21  C   UNL     1       2.760   2.517  21.150  0.00  0.00    +0.000 C 
BRANCH  21  22
ATOM     22  O   UNL     1       1.946   2.973  22.227  0.00  0.00    +0.000 OA
ATOM     23  H   UNL     1       2.360   3.790  22.566  0.00  0.00    +0.000 HD
ENDBRANCH  21  22
ENDBRANCH  15  21
ENDBRANCH   1  17
TORSDOF 4
ENDMDL
MODEL 8
REMARK VINA RESULT:      -6.4      3.595      5.483
REMARK  Name = 
REMARK  4 active torsions:
REMARK  status: ('A' for Active; 'I' for Inactive)
REMARK    1  A    between atoms: N_3  and  C_4
REMARK    2  A    between atoms: C_6  and  C_7
REMARK    3  A    between atoms: C_7  and  O_8
REMARK    4  A    between atoms: C_10  and  N_11
REMARK                            x       y       z     vdW  Elec       q    Type
REMARK                         _______ _______ _______ _____ _____    ______ ____
ROOT
ATOM      1  N   UNL     1       4.029   5.170  18.334  0.00  0.00    +0.000 N 
ATOM      2  C   UNL     1       3.207   6.082  18.946  0.00  0.00    +0.000 A 
ATOM      3  N   UNL     1       2.119   5.524  19.432  0.00  0.00    +0.000 NA
ATOM      4  C   UNL     1       2.263   4.183  19.153  0.00  0.00    +0.000 A 
ATOM      5  C   UNL     1       1.428   3.077  19.381  0.00  0.00    +0.000 A 
ATOM      6  N   UNL     1       0.156   3.192  19.926  0.00  0.00    +0.000 N 
ATOM      7  N   UNL     1       1.883   1.847  19.049  0.00  0.00    +0.000 NA
ATOM      8  C   UNL     1       3.102   1.751  18.474  0.00  0.00    +0.000 A 
ATOM      9  N   UNL     1       3.969   2.739  18.161  0.00  0.00    +0.000 NA
ATOM     10  C   UNL     1       3.474   3.933  18.528  0.00  0.00    +0.000 A 
ATOM     11  H   UNL     1      -0.003   4.061  20.422  0.00  0.00    +0.000 HD
ATOM     12  H   UNL     1      -0.185   2.333  20.332  0.00  0.00    +0.000 HD
ENDROOT
BRANCH   1  17
ATOM     13  C   UNL     1       6.564   5.057  18.234  0.00  0.00    +0.000 C 
ATOM     14  C   UNL     1       7.616   6.081  17.778  0.00  0.00    +0.000 C 
ATOM     15  C   UNL     1       6.967   7.458  17.864  0.00  0.00    +0.000 C 
ATOM     16  S   UNL     1       5.371   7.195  17.036  0.00  0.00    +0.000 S 
ATOM     17  C   UNL     1       5.224   5.439  17.556  0.00  0.00    +0.000 C 
BRANCH  13  20
ATOM     18  N   UNL     1       8.592   5.172  20.841  0.00  0.00    +0.000 NA
ATOM     19  N   UNL     1       7.586   5.134  20.309  0.00  0.00    +0.000 NA
ATOM     20  N   UNL     1       6.494   5.101  19.711  0.00  0.00    +0.000 NA
ENDBRANCH  13  20
BRANCH  15  21
ATOM     21  C   UNL     1       7.770   8.567  17.190  0.00  0.00    +0.000 C 
BRANCH  21  22
ATOM     22  O   UNL     1       8.424   9.375  18.164  0.00  0.00    +0.000 OA
ATOM     23  H   UNL     1       8.552  10.254  17.760  0.00  0.00    +0.000 HD
ENDBRANCH  21  22
ENDBRANCH  15  21
ENDBRANCH   1  17
TORSDOF 4
ENDMDL
MODEL 9
REMARK VINA RESULT:      -6.3      3.446      5.235
REMARK  Name = 
REMARK  4 active torsions:
REMARK  status: ('A' for Active; 'I' for Inactive)
REMARK    1  A    between atoms: N_3  and  C_4
REMARK    2  A    between atoms: C_6  and  C_7
REMARK    3  A    between atoms: C_7  and  O_8
REMARK    4  A    between atoms: C_10  and  N_11
REMARK                            x       y       z     vdW  Elec       q    Type
REMARK                         _______ _______ _______ _____ _____    ______ ____
ROOT
ATOM      1  N   UNL     1       4.520   5.958  17.551  0.00  0.00    +0.000 N 
ATOM      2  C   UNL     1       5.261   7.107  17.435  0.00  0.00    +0.000 A 
ATOM      3  N   UNL     1       6.203   7.000  16.522  0.00  0.00    +0.000 NA
ATOM      4  C   UNL     1       6.038   5.737  15.998  0.00  0.00    +0.000 A 
ATOM      5  C   UNL     1       6.749   5.020  15.023  0.00  0.00    +0.000 A 
ATOM      6  N   UNL     1       7.899   5.508  14.417  0.00  0.00    +0.000 N 
ATOM      7  N   UNL     1       6.296   3.796  14.665  0.00  0.00    +0.000 NA
ATOM      8  C   UNL     1       5.205   3.309  15.297  0.00  0.00    +0.000 A 
ATOM      9  N   UNL     1       4.473   3.880  16.278  0.00  0.00    +0.000 NA
ATOM     10  C   UNL     1       4.956   5.096  16.580  0.00  0.00    +0.000 A 
ATOM     11  H   UNL     1       8.010   6.512  14.492  0.00  0.00    +0.000 HD
ATOM     12  H   UNL     1       8.106   5.062  13.534  0.00  0.00    +0.000 HD
ENDROOT
BRANCH   1  17
ATOM     13  C   UNL     1       3.984   4.760  19.725  0.00  0.00    +0.000 C 
ATOM     14  C   UNL     1       2.791   3.888  20.145  0.00  0.00    +0.000 C 
ATOM     15  C   UNL     1       2.149   3.362  18.866  0.00  0.00    +0.000 C 
ATOM     16  S   UNL     1       2.011   4.861  17.848  0.00  0.00    +0.000 S 
ATOM     17  C   UNL     1       3.513   5.653  18.550  0.00  0.00    +0.000 C 
BRANCH  13  20
ATOM     18  N   UNL     1       5.152   1.761  20.481  0.00  0.00    +0.000 NA
ATOM     19  N   UNL     1       5.136   2.764  19.941  0.00  0.00    +0.000 NA
ATOM     20  N   UNL     1       5.100   3.861  19.353  0.00  0.00    +0.000 NA
ENDBRANCH  13  20
BRANCH  15  21
ATOM     21  C   UNL     1       0.789   2.704  19.078  0.00  0.00    +0.000 C 
BRANCH  21  22
ATOM     22  O   UNL     1       0.276   3.018  20.370  0.00  0.00    +0.000 OA
ATOM     23  H   UNL     1       1.042   3.259  20.925  0.00  0.00    +0.000 HD
ENDBRANCH  21  22
ENDBRANCH  15  21
ENDBRANCH   1  17
TORSDOF 4
ENDMDL
