MODEL 1
REMARK VINA RESULT:      -7.1      0.000      0.000
REMARK  Name = 
REMARK  6 active torsions:
REMARK  status: ('A' for Active; 'I' for Inactive)
REMARK    1  A    between atoms: C_1  and  O_2
REMARK    2  A    between atoms: O_2  and  C_3
REMARK    3  A    between atoms: C_6  and  C_7
REMARK    4  A    between atoms: N_10  and  C_11
REMARK    5  A    between atoms: N_20  and  C_21
REMARK    6  A    between atoms: C_21  and  C_22
REMARK                            x       y       z     vdW  Elec       q    Type
REMARK                         _______ _______ _______ _____ _____    ______ ____
ROOT
ATOM      1  C   UNL     1       3.207   5.526  17.869  0.00  0.00    +0.000 C 
ATOM      2  C   UNL     1       2.025   4.506  17.644  0.00  0.00    +0.000 C 
ATOM      3  O   UNL     1       0.914   4.877  17.270  0.00  0.00    +0.000 OA
ATOM      4  N   UNL     1       2.349   3.152  17.817  0.00  0.00    +0.000 N 
ATOM      5  C   UNL     1       3.766   2.843  17.650  0.00  0.00    +0.000 C 
ATOM      6  C   UNL     1       4.666   3.658  18.573  0.00  0.00    +0.000 C 
ATOM      7  O   UNL     1       5.722   3.199  19.007  0.00  0.00    +0.000 OA
ATOM      8  N   UNL     1       4.266   4.981  18.753  0.00  0.00    +0.000 N 
ENDROOT
BRANCH   1  12
ATOM      9  C   UNL     1       1.332   9.137  19.379  0.00  0.00    +0.000 A 
ATOM     10  C   UNL     1       1.560   8.054  20.226  0.00  0.00    +0.000 A 
ATOM     11  C   UNL     1       2.199   6.908  19.752  0.00  0.00    +0.000 A 
ATOM     12  C   UNL     1       2.605   6.820  18.410  0.00  0.00    +0.000 A 
ATOM     13  C   UNL     1       2.391   7.920  17.569  0.00  0.00    +0.000 A 
ATOM     14  C   UNL     1       1.759   9.072  18.049  0.00  0.00    +0.000 A 
BRANCH   9  16
ATOM     15  C   UNL     1      -0.705  10.337  19.554  0.00  0.00    +0.000 C 
ATOM     16  O   UNL     1       0.649  10.174  19.952  0.00  0.00    +0.000 OA
ENDBRANCH   9  16
ENDBRANCH   1  12
BRANCH   4  17
ATOM     17  C   UNL     1       1.468   2.268  18.632  0.00  0.00    +0.000 C 
ATOM     18  C   UNL     1       2.182   1.394  19.687  0.00  0.00    +0.000 C 
ATOM     19  C   UNL     1       2.782   2.226  20.822  0.00  0.00    +0.000 C 
ATOM     20  C   UNL     1       1.757   3.138  21.490  0.00  0.00    +0.000 C 
ATOM     21  C   UNL     1       0.863   3.889  20.504  0.00  0.00    +0.000 C 
ATOM     22  C   UNL     1       0.334   2.997  19.384  0.00  0.00    +0.000 C 
ENDBRANCH   4  17
BRANCH   8  23
ATOM     23  C   UNL     1       5.202   5.883  19.431  0.00  0.00    +0.000 C 
BRANCH  23  24
ATOM     24  C   UNL     1       6.267   6.394  18.522  0.00  0.00    +0.000 A 
ATOM     25  C   UNL     1       7.648   6.421  18.585  0.00  0.00    +0.000 A 
ATOM     26  C   UNL     1       8.088   7.188  17.476  0.00  0.00    +0.000 A 
ATOM     27  C   UNL     1       6.954   7.568  16.800  0.00  0.00    +0.000 A 
ATOM     28  O   UNL     1       5.846   7.080  17.416  0.00  0.00    +0.000 OA
ENDBRANCH  23  24
ENDBRANCH   8  23
TORSDOF 5
ENDMDL
MODEL 2
REMARK VINA RESULT:      -7.0      2.687      4.707
REMARK  Name = 
REMARK  6 active torsions:
REMARK  status: ('A' for Active; 'I' for Inactive)
REMARK    1  A    between atoms: C_1  and  O_2
REMARK    2  A    between atoms: O_2  and  C_3
REMARK    3  A    between atoms: C_6  and  C_7
REMARK    4  A    between atoms: N_10  and  C_11
REMARK    5  A    between atoms: N_20  and  C_21
REMARK    6  A    between atoms: C_21  and  C_22
REMARK                            x       y       z     vdW  Elec       q    Type
REMARK                         _______ _______ _______ _____ _____    ______ ____
ROOT
ATOM      1  C   UNL     1       5.397   5.800  17.109  0.00  0.00    +0.000 C 
ATOM      2  C   UNL     1       4.316   5.761  18.256  0.00  0.00    +0.000 C 
ATOM      3  O   UNL     1       4.035   6.762  18.914  0.00  0.00    +0.000 OA
ATOM      4  N   UNL     1       3.642   4.541  18.416  0.00  0.00    +0.000 N 
ATOM      5  C   UNL     1       3.633   3.694  17.226  0.00  0.00    +0.000 C 
ATOM      6  C   UNL     1       5.033   3.388  16.704  0.00  0.00    +0.000 C 
ATOM      7  O   UNL     1       5.289   2.323  16.144  0.00  0.00    +0.000 OA
ATOM      8  N   UNL     1       5.929   4.453  16.784  0.00  0.00    +0.000 N 
ENDROOT
BRANCH   1  12
ATOM      9  C   UNL     1       8.417   8.602  18.477  0.00  0.00    +0.000 A 
ATOM     10  C   UNL     1       8.399   7.294  18.957  0.00  0.00    +0.000 A 
ATOM     11  C   UNL     1       7.455   6.380  18.488  0.00  0.00    +0.000 A 
ATOM     12  C   UNL     1       6.494   6.770  17.540  0.00  0.00    +0.000 A 
ATOM     13  C   UNL     1       6.529   8.080  17.046  0.00  0.00    +0.000 A 
ATOM     14  C   UNL     1       7.483   8.992  17.511  0.00  0.00    +0.000 A 
BRANCH   9  16
ATOM     15  C   UNL     1       9.413  10.750  18.590  0.00  0.00    +0.000 C 
ATOM     16  O   UNL     1       9.355   9.410  19.057  0.00  0.00    +0.000 OA
ENDBRANCH   9  16
ENDBRANCH   1  12
BRANCH   4  17
ATOM     17  C   UNL     1       3.476   3.948  19.773  0.00  0.00    +0.000 C 
ATOM     18  C   UNL     1       2.407   4.608  20.671  0.00  0.00    +0.000 C 
ATOM     19  C   UNL     1       0.987   4.379  20.150  0.00  0.00    +0.000 C 
ATOM     20  C   UNL     1       0.668   2.902  19.938  0.00  0.00    +0.000 C 
ATOM     21  C   UNL     1       1.779   2.125  19.232  0.00  0.00    +0.000 C 
ATOM     22  C   UNL     1       3.166   2.435  19.788  0.00  0.00    +0.000 C 
ENDBRANCH   4  17
BRANCH   8  23
ATOM     23  C   UNL     1       7.212   4.310  16.092  0.00  0.00    +0.000 C 
BRANCH  23  24
ATOM     24  C   UNL     1       7.098   4.529  14.621  0.00  0.00    +0.000 A 
ATOM     25  C   UNL     1       6.355   3.931  13.619  0.00  0.00    +0.000 A 
ATOM     26  C   UNL     1       6.809   4.486  12.395  0.00  0.00    +0.000 A 
ATOM     27  C   UNL     1       7.786   5.394  12.726  0.00  0.00    +0.000 A 
ATOM     28  O   UNL     1       7.958   5.439  14.072  0.00  0.00    +0.000 OA
ENDBRANCH  23  24
ENDBRANCH   8  23
TORSDOF 5
ENDMDL
MODEL 3
REMARK VINA RESULT:      -7.0      2.333      4.368
REMARK  Name = 
REMARK  6 active torsions:
REMARK  status: ('A' for Active; 'I' for Inactive)
REMARK    1  A    between atoms: C_1  and  O_2
REMARK    2  A    between atoms: O_2  and  C_3
REMARK    3  A    between atoms: C_6  and  C_7
REMARK    4  A    between atoms: N_10  and  C_11
REMARK    5  A    between atoms: N_20  and  C_21
REMARK    6  A    between atoms: C_21  and  C_22
REMARK                            x       y       z     vdW  Elec       q    Type
REMARK                         _______ _______ _______ _____ _____    ______ ____
ROOT
ATOM      1  C   UNL     1       4.188   5.516  17.201  0.00  0.00    +0.000 C 
ATOM      2  C   UNL     1       3.089   6.064  18.191  0.00  0.00    +0.000 C 
ATOM      3  O   UNL     1       3.103   7.227  18.591  0.00  0.00    +0.000 OA
ATOM      4  N   UNL     1       2.059   5.167  18.512  0.00  0.00    +0.000 N 
ATOM      5  C   UNL     1       1.849   4.109  17.529  0.00  0.00    +0.000 C 
ATOM      6  C   UNL     1       3.107   3.292  17.255  0.00  0.00    +0.000 C 
ATOM      7  O   UNL     1       3.045   2.100  16.959  0.00  0.00    +0.000 OA
ATOM      8  N   UNL     1       4.287   4.035  17.226  0.00  0.00    +0.000 N 
ENDROOT
BRANCH   1  12
ATOM      9  C   UNL     1       7.860   7.533  18.337  0.00  0.00    +0.000 A 
ATOM     10  C   UNL     1       7.453   6.380  19.005  0.00  0.00    +0.000 A 
ATOM     11  C   UNL     1       6.295   5.707  18.615  0.00  0.00    +0.000 A 
ATOM     12  C   UNL     1       5.510   6.193  17.555  0.00  0.00    +0.000 A 
ATOM     13  C   UNL     1       5.934   7.341  16.875  0.00  0.00    +0.000 A 
ATOM     14  C   UNL     1       7.101   8.009  17.263  0.00  0.00    +0.000 A 
BRANCH   9  16
ATOM     15  C   UNL     1       8.990   9.546  18.876  0.00  0.00    +0.000 C 
ATOM     16  O   UNL     1       8.979   8.126  18.853  0.00  0.00    +0.000 OA
ENDBRANCH   9  16
ENDBRANCH   1  12
BRANCH   4  17
ATOM     17  C   UNL     1       1.644   4.980  19.932  0.00  0.00    +0.000 C 
ATOM     18  C   UNL     1       0.603   3.869  20.188  0.00  0.00    +0.000 C 
ATOM     19  C   UNL     1       1.169   2.471  19.933  0.00  0.00    +0.000 C 
ATOM     20  C   UNL     1       2.446   2.199  20.723  0.00  0.00    +0.000 C 
ATOM     21  C   UNL     1       3.451   3.350  20.689  0.00  0.00    +0.000 C 
ATOM     22  C   UNL     1       2.801   4.712  20.917  0.00  0.00    +0.000 C 
ENDBRANCH   4  17
BRANCH   8  23
ATOM     23  C   UNL     1       5.495   3.365  16.739  0.00  0.00    +0.000 C 
BRANCH  23  24
ATOM     24  C   UNL     1       5.950   3.889  15.419  0.00  0.00    +0.000 A 
ATOM     25  C   UNL     1       5.440   3.821  14.135  0.00  0.00    +0.000 A 
ATOM     26  C   UNL     1       6.421   4.387  13.281  0.00  0.00    +0.000 A 
ATOM     27  C   UNL     1       7.458   4.777  14.095  0.00  0.00    +0.000 A 
ATOM     28  O   UNL     1       7.176   4.494  15.393  0.00  0.00    +0.000 OA
ENDBRANCH  23  24
ENDBRANCH   8  23
TORSDOF 5
ENDMDL
MODEL 4
REMARK VINA RESULT:      -6.8      4.166      9.282
REMARK  Name = 
REMARK  6 active torsions:
REMARK  status: ('A' for Active; 'I' for Inactive)
REMARK    1  A    between atoms: C_1  and  O_2
REMARK    2  A    between atoms: O_2  and  C_3
REMARK    3  A    between atoms: C_6  and  C_7
REMARK    4  A    between atoms: N_10  and  C_11
REMARK    5  A    between atoms: N_20  and  C_21
REMARK    6  A    between atoms: C_21  and  C_22
REMARK                            x       y       z     vdW  Elec       q    Type
REMARK                         _______ _______ _______ _____ _____    ______ ____
ROOT
ATOM      1  C   UNL     1      -0.270  11.458  19.044  0.00  0.00    +0.000 C 
ATOM      2  C   UNL     1       0.383  12.415  20.113  0.00  0.00    +0.000 C 
ATOM      3  O   UNL     1       1.595  12.418  20.323  0.00  0.00    +0.000 OA
ATOM      4  N   UNL     1      -0.494  13.314  20.741  0.00  0.00    +0.000 N 
ATOM      5  C   UNL     1      -1.706  13.607  19.981  0.00  0.00    +0.000 C 
ATOM      6  C   UNL     1      -2.500  12.356  19.622  0.00  0.00    +0.000 C 
ATOM      7  O   UNL     1      -3.726  12.382  19.526  0.00  0.00    +0.000 OA
ATOM      8  N   UNL     1      -1.721  11.253  19.277  0.00  0.00    +0.000 N 
ENDROOT
BRANCH   1  12
ATOM      9  C   UNL     1       2.097   7.821  19.144  0.00  0.00    +0.000 A 
ATOM     10  C   UNL     1       1.431   8.260  20.287  0.00  0.00    +0.000 A 
ATOM     11  C   UNL     1       0.637   9.406  20.246  0.00  0.00    +0.000 A 
ATOM     12  C   UNL     1       0.512  10.147  19.058  0.00  0.00    +0.000 A 
ATOM     13  C   UNL     1       1.168   9.689  17.908  0.00  0.00    +0.000 A 
ATOM     14  C   UNL     1       1.956   8.533  17.949  0.00  0.00    +0.000 A 
BRANCH   9  16
ATOM     15  C   UNL     1       2.925   5.780  18.267  0.00  0.00    +0.000 C 
ATOM     16  O   UNL     1       2.885   6.719  19.332  0.00  0.00    +0.000 OA
ENDBRANCH   9  16
ENDBRANCH   1  12
BRANCH   4  17
ATOM     17  C   UNL     1      -0.466  13.477  22.222  0.00  0.00    +0.000 C 
ATOM     18  C   UNL     1      -1.303  14.646  22.786  0.00  0.00    +0.000 C 
ATOM     19  C   UNL     1      -2.807  14.422  22.612  0.00  0.00    +0.000 C 
ATOM     20  C   UNL     1      -3.277  13.095  23.201  0.00  0.00    +0.000 C 
ATOM     21  C   UNL     1      -2.374  11.911  22.855  0.00  0.00    +0.000 C 
ATOM     22  C   UNL     1      -0.890  12.227  23.022  0.00  0.00    +0.000 C 
ENDBRANCH   4  17
BRANCH   8  23
ATOM     23  C   UNL     1      -2.409  10.096  18.697  0.00  0.00    +0.000 C 
BRANCH  23  24
ATOM     24  C   UNL     1      -2.813  10.320  17.279  0.00  0.00    +0.000 A 
ATOM     25  C   UNL     1      -3.907  10.916  16.678  0.00  0.00    +0.000 A 
ATOM     26  C   UNL     1      -3.786  10.673  15.287  0.00  0.00    +0.000 A 
ATOM     27  C   UNL     1      -2.624   9.957  15.123  0.00  0.00    +0.000 A 
ATOM     28  O   UNL     1      -2.019   9.752  16.322  0.00  0.00    +0.000 OA
ENDBRANCH  23  24
ENDBRANCH   8  23
TORSDOF 5
ENDMDL
MODEL 5
REMARK VINA RESULT:      -6.8      4.175      9.322
REMARK  Name = 
REMARK  6 active torsions:
REMARK  status: ('A' for Active; 'I' for Inactive)
REMARK    1  A    between atoms: C_1  and  O_2
REMARK    2  A    between atoms: O_2  and  C_3
REMARK    3  A    between atoms: C_6  and  C_7
REMARK    4  A    between atoms: N_10  and  C_11
REMARK    5  A    between atoms: N_20  and  C_21
REMARK    6  A    between atoms: C_21  and  C_22
REMARK                            x       y       z     vdW  Elec       q    Type
REMARK                         _______ _______ _______ _____ _____    ______ ____
ROOT
ATOM      1  C   UNL     1      -0.237  11.480  19.089  0.00  0.00    +0.000 C 
ATOM      2  C   UNL     1       0.352  12.528  20.109  0.00  0.00    +0.000 C 
ATOM      3  O   UNL     1       1.560  12.610  20.325  0.00  0.00    +0.000 OA
ATOM      4  N   UNL     1      -0.578  13.408  20.682  0.00  0.00    +0.000 N 
ATOM      5  C   UNL     1      -1.797  13.593  19.901  0.00  0.00    +0.000 C 
ATOM      6  C   UNL     1      -2.519  12.283  19.604  0.00  0.00    +0.000 C 
ATOM      7  O   UNL     1      -3.743  12.235  19.500  0.00  0.00    +0.000 OA
ATOM      8  N   UNL     1      -1.677  11.208  19.323  0.00  0.00    +0.000 N 
ENDROOT
BRANCH   1  12
ATOM      9  C   UNL     1       2.048   7.795  19.280  0.00  0.00    +0.000 A 
ATOM     10  C   UNL     1       1.968   8.514  18.089  0.00  0.00    +0.000 A 
ATOM     11  C   UNL     1       1.268   9.719  18.036  0.00  0.00    +0.000 A 
ATOM     12  C   UNL     1       0.616  10.217  19.177  0.00  0.00    +0.000 A 
ATOM     13  C   UNL     1       0.717   9.500  20.376  0.00  0.00    +0.000 A 
ATOM     14  C   UNL     1       1.428   8.296  20.429  0.00  0.00    +0.000 A 
BRANCH   9  16
ATOM     15  C   UNL     1       2.284   5.565  20.050  0.00  0.00    +0.000 C 
ATOM     16  O   UNL     1       2.715   6.605  19.184  0.00  0.00    +0.000 OA
ENDBRANCH   9  16
ENDBRANCH   1  12
BRANCH   4  17
ATOM     17  C   UNL     1      -0.572  13.652  22.152  0.00  0.00    +0.000 C 
ATOM     18  C   UNL     1      -1.537  14.747  22.658  0.00  0.00    +0.000 C 
ATOM     19  C   UNL     1      -3.005  14.347  22.500  0.00  0.00    +0.000 C 
ATOM     20  C   UNL     1      -3.325  13.008  23.159  0.00  0.00    +0.000 C 
ATOM     21  C   UNL     1      -2.294  11.917  22.874  0.00  0.00    +0.000 C 
ATOM     22  C   UNL     1      -0.855  12.405  23.018  0.00  0.00    +0.000 C 
ENDBRANCH   4  17
BRANCH   8  23
ATOM     23  C   UNL     1      -2.294   9.985  18.802  0.00  0.00    +0.000 C 
BRANCH  23  24
ATOM     24  C   UNL     1      -2.661  10.097  17.361  0.00  0.00    +0.000 A 
ATOM     25  C   UNL     1      -1.975   9.881  16.179  0.00  0.00    +0.000 A 
ATOM     26  C   UNL     1      -2.830  10.313  15.132  0.00  0.00    +0.000 A 
ATOM     27  C   UNL     1      -3.984  10.750  15.737  0.00  0.00    +0.000 A 
ATOM     28  O   UNL     1      -3.899  10.609  17.085  0.00  0.00    +0.000 OA
ENDBRANCH  23  24
ENDBRANCH   8  23
TORSDOF 5
ENDMDL
MODEL 6
REMARK VINA RESULT:      -6.5      4.395      9.579
REMARK  Name = 
REMARK  6 active torsions:
REMARK  status: ('A' for Active; 'I' for Inactive)
REMARK    1  A    between atoms: C_1  and  O_2
REMARK    2  A    between atoms: O_2  and  C_3
REMARK    3  A    between atoms: C_6  and  C_7
REMARK    4  A    between atoms: N_10  and  C_11
REMARK    5  A    between atoms: N_20  and  C_21
REMARK    6  A    between atoms: C_21  and  C_22
REMARK                            x       y       z     vdW  Elec       q    Type
REMARK                         _______ _______ _______ _____ _____    ______ ____
ROOT
ATOM      1  C   UNL     1       0.114  11.497  18.886  0.00  0.00    +0.000 C 
ATOM      2  C   UNL     1       1.000  12.528  19.686  0.00  0.00    +0.000 C 
ATOM      3  O   UNL     1       2.228  12.452  19.697  0.00  0.00    +0.000 OA
ATOM      4  N   UNL     1       0.304  13.577  20.305  0.00  0.00    +0.000 N 
ATOM      5  C   UNL     1      -0.998  13.872  19.713  0.00  0.00    +0.000 C 
ATOM      6  C   UNL     1      -1.922  12.659  19.673  0.00  0.00    +0.000 C 
ATOM      7  O   UNL     1      -3.142  12.780  19.771  0.00  0.00    +0.000 OA
ATOM      8  N   UNL     1      -1.287  11.455  19.374  0.00  0.00    +0.000 N 
ENDROOT
BRANCH   1  12
ATOM      9  C   UNL     1       2.216   7.710  19.173  0.00  0.00    +0.000 A 
ATOM     10  C   UNL     1       1.599   8.261  20.295  0.00  0.00    +0.000 A 
ATOM     11  C   UNL     1       0.889   9.458  20.196  0.00  0.00    +0.000 A 
ATOM     12  C   UNL     1       0.800  10.136  18.968  0.00  0.00    +0.000 A 
ATOM     13  C   UNL     1       1.405   9.567  17.840  0.00  0.00    +0.000 A 
ATOM     14  C   UNL     1       2.109   8.362  17.941  0.00  0.00    +0.000 A 
BRANCH   9  16
ATOM     15  C   UNL     1       2.177   5.361  19.491  0.00  0.00    +0.000 C 
ATOM     16  O   UNL     1       2.925   6.567  19.417  0.00  0.00    +0.000 OA
ENDBRANCH   9  16
ENDBRANCH   1  12
BRANCH   4  17
ATOM     17  C   UNL     1       0.593  13.935  21.723  0.00  0.00    +0.000 C 
ATOM     18  C   UNL     1       1.677  15.014  21.937  0.00  0.00    +0.000 C 
ATOM     19  C   UNL     1       1.232  16.392  21.443  0.00  0.00    +0.000 C 
ATOM     20  C   UNL     1      -0.094  16.838  22.053  0.00  0.00    +0.000 C 
ATOM     21  C   UNL     1      -1.165  15.748  22.068  0.00  0.00    +0.000 C 
ATOM     22  C   UNL     1      -0.632  14.397  22.540  0.00  0.00    +0.000 C 
ENDBRANCH   4  17
BRANCH   8  23
ATOM     23  C   UNL     1      -2.136  10.296  19.087  0.00  0.00    +0.000 C 
BRANCH  23  24
ATOM     24  C   UNL     1      -2.599  10.260  17.670  0.00  0.00    +0.000 A 
ATOM     25  C   UNL     1      -2.046   9.782  16.495  0.00  0.00    +0.000 A 
ATOM     26  C   UNL     1      -2.914  10.187  15.448  0.00  0.00    +0.000 A 
ATOM     27  C   UNL     1      -3.944  10.871  16.048  0.00  0.00    +0.000 A 
ATOM     28  O   UNL     1      -3.771  10.907  17.395  0.00  0.00    +0.000 OA
ENDBRANCH  23  24
ENDBRANCH   8  23
TORSDOF 5
ENDMDL
MODEL 7
REMARK VINA RESULT:      -6.5      4.486      9.694
REMARK  Name = 
REMARK  6 active torsions:
REMARK  status: ('A' for Active; 'I' for Inactive)
REMARK    1  A    between atoms: C_1  and  O_2
REMARK    2  A    between atoms: O_2  and  C_3
REMARK    3  A    between atoms: C_6  and  C_7
REMARK    4  A    between atoms: N_10  and  C_11
REMARK    5  A    between atoms: N_20  and  C_21
REMARK    6  A    between atoms: C_21  and  C_22
REMARK                            x       y       z     vdW  Elec       q    Type
REMARK                         _______ _______ _______ _____ _____    ______ ____
ROOT
ATOM      1  C   UNL     1       0.268  11.691  18.897  0.00  0.00    +0.000 C 
ATOM      2  C   UNL     1       1.181  12.758  19.615  0.00  0.00    +0.000 C 
ATOM      3  O   UNL     1       2.408  12.703  19.557  0.00  0.00    +0.000 OA
ATOM      4  N   UNL     1       0.502  13.811  20.247  0.00  0.00    +0.000 N 
ATOM      5  C   UNL     1      -0.837  14.068  19.725  0.00  0.00    +0.000 C 
ATOM      6  C   UNL     1      -1.740  12.839  19.771  0.00  0.00    +0.000 C 
ATOM      7  O   UNL     1      -2.954  12.942  19.937  0.00  0.00    +0.000 OA
ATOM      8  N   UNL     1      -1.101  11.638  19.467  0.00  0.00    +0.000 N 
ENDROOT
BRANCH   1  12
ATOM      9  C   UNL     1       2.151   7.783  19.053  0.00  0.00    +0.000 A 
ATOM     10  C   UNL     1       2.165   8.525  17.874  0.00  0.00    +0.000 A 
ATOM     11  C   UNL     1       1.596   9.799  17.833  0.00  0.00    +0.000 A 
ATOM     12  C   UNL     1       0.983  10.344  18.974  0.00  0.00    +0.000 A 
ATOM     13  C   UNL     1       0.991   9.601  20.161  0.00  0.00    +0.000 A 
ATOM     14  C   UNL     1       1.570   8.328  20.202  0.00  0.00    +0.000 A 
BRANCH   9  16
ATOM     15  C   UNL     1       2.435   5.635  20.016  0.00  0.00    +0.000 C 
ATOM     16  O   UNL     1       2.691   6.531  18.944  0.00  0.00    +0.000 OA
ENDBRANCH   9  16
ENDBRANCH   1  12
BRANCH   4  17
ATOM     17  C   UNL     1       0.867  14.212  21.635  0.00  0.00    +0.000 C 
ATOM     18  C   UNL     1       2.244  14.892  21.800  0.00  0.00    +0.000 C 
ATOM     19  C   UNL     1       2.293  16.274  21.145  0.00  0.00    +0.000 C 
ATOM     20  C   UNL     1       1.180  17.197  21.633  0.00  0.00    +0.000 C 
ATOM     21  C   UNL     1      -0.193  16.530  21.697  0.00  0.00    +0.000 C 
ATOM     22  C   UNL     1      -0.150  15.142  22.332  0.00  0.00    +0.000 C 
ENDBRANCH   4  17
BRANCH   8  23
ATOM     23  C   UNL     1      -1.944  10.458  19.261  0.00  0.00    +0.000 C 
BRANCH  23  24
ATOM     24  C   UNL     1      -2.466  10.361  17.868  0.00  0.00    +0.000 A 
ATOM     25  C   UNL     1      -1.951   9.863  16.685  0.00  0.00    +0.000 A 
ATOM     26  C   UNL     1      -2.876  10.206  15.666  0.00  0.00    +0.000 A 
ATOM     27  C   UNL     1      -3.900  10.878  16.289  0.00  0.00    +0.000 A 
ATOM     28  O   UNL     1      -3.670  10.964  17.625  0.00  0.00    +0.000 OA
ENDBRANCH  23  24
ENDBRANCH   8  23
TORSDOF 5
ENDMDL
MODEL 8
REMARK VINA RESULT:      -6.5      2.068      5.231
REMARK  Name = 
REMARK  6 active torsions:
REMARK  status: ('A' for Active; 'I' for Inactive)
REMARK    1  A    between atoms: C_1  and  O_2
REMARK    2  A    between atoms: O_2  and  C_3
REMARK    3  A    between atoms: C_6  and  C_7
REMARK    4  A    between atoms: N_10  and  C_11
REMARK    5  A    between atoms: N_20  and  C_21
REMARK    6  A    between atoms: C_21  and  C_22
REMARK                            x       y       z     vdW  Elec       q    Type
REMARK                         _______ _______ _______ _____ _____    ______ ____
ROOT
ATOM      1  C   UNL     1       4.267   5.710  18.886  0.00  0.00    +0.000 C 
ATOM      2  C   UNL     1       4.589   4.376  19.664  0.00  0.00    +0.000 C 
ATOM      3  O   UNL     1       5.676   3.811  19.555  0.00  0.00    +0.000 OA
ATOM      4  N   UNL     1       3.591   3.929  20.543  0.00  0.00    +0.000 N 
ATOM      5  C   UNL     1       2.684   4.974  21.010  0.00  0.00    +0.000 C 
ATOM      6  C   UNL     1       1.998   5.720  19.869  0.00  0.00    +0.000 C 
ATOM      7  O   UNL     1       0.863   6.177  19.994  0.00  0.00    +0.000 OA
ATOM      8  N   UNL     1       2.809   5.957  18.761  0.00  0.00    +0.000 N 
ENDROOT
BRANCH   1  12
ATOM      9  C   UNL     1       6.357   5.369  15.097  0.00  0.00    +0.000 A 
ATOM     10  C   UNL     1       5.298   4.515  15.398  0.00  0.00    +0.000 A 
ATOM     11  C   UNL     1       4.599   4.649  16.597  0.00  0.00    +0.000 A 
ATOM     12  C   UNL     1       4.964   5.635  17.530  0.00  0.00    +0.000 A 
ATOM     13  C   UNL     1       6.016   6.504  17.213  0.00  0.00    +0.000 A 
ATOM     14  C   UNL     1       6.709   6.373  16.005  0.00  0.00    +0.000 A 
BRANCH   9  16
ATOM     15  C   UNL     1       6.548   3.947  13.210  0.00  0.00    +0.000 C 
ATOM     16  O   UNL     1       6.992   5.096  13.917  0.00  0.00    +0.000 OA
ENDBRANCH   9  16
ENDBRANCH   1  12
BRANCH   4  17
ATOM     17  C   UNL     1       3.165   2.501  20.531  0.00  0.00    +0.000 C 
ATOM     18  C   UNL     1       1.757   2.213  21.095  0.00  0.00    +0.000 C 
ATOM     19  C   UNL     1       0.647   2.787  20.212  0.00  0.00    +0.000 C 
ATOM     20  C   UNL     1       0.748   2.321  18.762  0.00  0.00    +0.000 C 
ATOM     21  C   UNL     1       2.163   2.380  18.190  0.00  0.00    +0.000 C 
ATOM     22  C   UNL     1       3.214   1.821  19.146  0.00  0.00    +0.000 C 
ENDBRANCH   4  17
BRANCH   8  23
ATOM     23  C   UNL     1       2.298   6.866  17.731  0.00  0.00    +0.000 C 
BRANCH  23  24
ATOM     24  C   UNL     1       2.106   8.255  18.237  0.00  0.00    +0.000 A 
ATOM     25  C   UNL     1       1.637   8.785  19.426  0.00  0.00    +0.000 A 
ATOM     26  C   UNL     1       1.549  10.188  19.236  0.00  0.00    +0.000 A 
ATOM     27  C   UNL     1       1.981  10.427  17.953  0.00  0.00    +0.000 A 
ATOM     28  O   UNL     1       2.335   9.266  17.345  0.00  0.00    +0.000 OA
ENDBRANCH  23  24
ENDBRANCH   8  23
TORSDOF 5
ENDMDL
MODEL 9
REMARK VINA RESULT:      -6.4      5.369      9.838
REMARK  Name = 
REMARK  6 active torsions:
REMARK  status: ('A' for Active; 'I' for Inactive)
REMARK    1  A    between atoms: C_1  and  O_2
REMARK    2  A    between atoms: O_2  and  C_3
REMARK    3  A    between atoms: C_6  and  C_7
REMARK    4  A    between atoms: N_10  and  C_11
REMARK    5  A    between atoms: N_20  and  C_21
REMARK    6  A    between atoms: C_21  and  C_22
REMARK                            x       y       z     vdW  Elec       q    Type
REMARK                         _______ _______ _______ _____ _____    ______ ____
ROOT
ATOM      1  C   UNL     1       0.673  12.826  21.229  0.00  0.00    +0.000 C 
ATOM      2  C   UNL     1       1.194  14.303  21.418  0.00  0.00    +0.000 C 
ATOM      3  O   UNL     1       0.826  15.002  22.360  0.00  0.00    +0.000 OA
ATOM      4  N   UNL     1       2.162  14.729  20.495  0.00  0.00    +0.000 N 
ATOM      5  C   UNL     1       2.914  13.648  19.865  0.00  0.00    +0.000 C 
ATOM      6  C   UNL     1       2.020  12.630  19.165  0.00  0.00    +0.000 C 
ATOM      7  O   UNL     1       2.398  12.031  18.159  0.00  0.00    +0.000 OA
ATOM      8  N   UNL     1       0.833  12.342  19.835  0.00  0.00    +0.000 N 
ENDROOT
BRANCH   1  12
ATOM      9  C   UNL     1      -3.475  12.550  22.476  0.00  0.00    +0.000 A 
ATOM     10  C   UNL     1      -2.471  11.942  23.227  0.00  0.00    +0.000 A 
ATOM     11  C   UNL     1      -1.133  12.064  22.851  0.00  0.00    +0.000 A 
ATOM     12  C   UNL     1      -0.779  12.785  21.697  0.00  0.00    +0.000 A 
ATOM     13  C   UNL     1      -1.791  13.410  20.958  0.00  0.00    +0.000 A 
ATOM     14  C   UNL     1      -3.131  13.294  21.343  0.00  0.00    +0.000 A 
BRANCH   9  16
ATOM     15  C   UNL     1      -5.098  12.878  24.173  0.00  0.00    +0.000 C 
ATOM     16  O   UNL     1      -4.745  12.307  22.921  0.00  0.00    +0.000 OA
ENDBRANCH   9  16
ENDBRANCH   1  12
BRANCH   4  17
ATOM     17  C   UNL     1       2.027  16.054  19.825  0.00  0.00    +0.000 C 
ATOM     18  C   UNL     1       2.853  17.206  20.438  0.00  0.00    +0.000 C 
ATOM     19  C   UNL     1       4.358  17.008  20.247  0.00  0.00    +0.000 C 
ATOM     20  C   UNL     1       4.744  16.793  18.786  0.00  0.00    +0.000 C 
ATOM     21  C   UNL     1       3.835  15.812  18.045  0.00  0.00    +0.000 C 
ATOM     22  C   UNL     1       2.353  16.054  18.316  0.00  0.00    +0.000 C 
ENDBRANCH   4  17
BRANCH   8  23
ATOM     23  C   UNL     1       0.040  11.210  19.349  0.00  0.00    +0.000 C 
BRANCH  23  24
ATOM     24  C   UNL     1       0.482   9.909  19.929  0.00  0.00    +0.000 A 
ATOM     25  C   UNL     1       0.244   9.267  21.131  0.00  0.00    +0.000 A 
ATOM     26  C   UNL     1       1.079   8.120  21.148  0.00  0.00    +0.000 A 
ATOM     27  C   UNL     1       1.761   8.126  19.954  0.00  0.00    +0.000 A 
ATOM     28  O   UNL     1       1.395   9.196  19.202  0.00  0.00    +0.000 OA
ENDBRANCH  23  24
ENDBRANCH   8  23
TORSDOF 5
ENDMDL
