MODEL 1
REMARK VINA RESULT:      -7.7      0.000      0.000
REMARK  Name = 
REMARK  9 active torsions:
REMARK  status: ('A' for Active; 'I' for Inactive)
REMARK    1  A    between atoms: C_1  and  C_2
REMARK    2  A    between atoms: C_4  and  N_5
REMARK    3  A    between atoms: N_5  and  S_6
REMARK    4  A    between atoms: S_6  and  C_9
REMARK    5  A    between atoms: C_9  and  C_10
REMARK    6  A    between atoms: C_17  and  C_18
REMARK    7  A    between atoms: C_19  and  O_20
REMARK    8  A    between atoms: O_20  and  C_21
REMARK    9  A    between atoms: C_21  and  C_22
REMARK                            x       y       z     vdW  Elec       q    Type
REMARK                         _______ _______ _______ _____ _____    ______ ____
ROOT
ATOM      1  C   UNL     1      -0.197   8.789  22.183  0.00  0.00    +0.000 C 
ATOM      2  C   UNL     1       0.737   8.411  21.064  0.00  0.00    +0.000 A 
ATOM      3  C   UNL     1       1.377   7.151  21.187  0.00  0.00    +0.000 A 
ATOM      4  C   UNL     1       2.234   6.667  20.201  0.00  0.00    +0.000 A 
ATOM      5  C   UNL     1       2.452   7.416  19.057  0.00  0.00    +0.000 A 
ATOM      6  C   UNL     1       1.822   8.660  18.892  0.00  0.00    +0.000 A 
ATOM      7  C   UNL     1       2.074   9.427  17.619  0.00  0.00    +0.000 C 
ATOM      8  C   UNL     1       0.980   9.183  19.906  0.00  0.00    +0.000 A 
ENDROOT
BRANCH   4   9
ATOM      9  N   UNL     1       2.911   5.431  20.366  0.00  0.00    +0.000 N 
ATOM     10  H   UNL     1       3.902   5.449  20.598  0.00  0.00    +0.000 HD
BRANCH   9  11
ATOM     11  S   UNL     1       2.392   4.034  19.582  0.00  0.00    +0.000 S 
ATOM     12  O   UNL     1       2.001   3.142  20.655  0.00  0.00    +0.000 OA
ATOM     13  O   UNL     1       1.456   4.429  18.549  0.00  0.00    +0.000 OA
BRANCH  11  14
ATOM     14  C   UNL     1       3.903   3.383  18.832  0.00  0.00    +0.000 C 
BRANCH  14  15
ATOM     15  C   UNL     1       4.688   4.512  18.208  0.00  0.00    +0.000 A 
ATOM     16  C   UNL     1       4.295   5.034  16.965  0.00  0.00    +0.000 A 
ATOM     17  C   UNL     1       5.015   6.065  16.358  0.00  0.00    +0.000 A 
ATOM     18  C   UNL     1       6.138   6.597  16.984  0.00  0.00    +0.000 A 
ATOM     19  C   UNL     1       6.539   6.099  18.223  0.00  0.00    +0.000 A 
ATOM     20  C   UNL     1       5.822   5.064  18.833  0.00  0.00    +0.000 A 
ENDBRANCH  14  15
ENDBRANCH  11  14
ENDBRANCH   9  11
ENDBRANCH   4   9
BRANCH   8  21
ATOM     21  O   UNL     1       0.450  10.408  19.587  0.00  0.00    +0.000 OA
BRANCH  21  22
ATOM     22  C   UNL     1      -0.951  10.604  19.687  0.00  0.00    +0.000 C 
BRANCH  22  23
ATOM     23  C   UNL     1      -1.716  10.556  18.350  0.00  0.00    +0.000 C 
ATOM     24  O   UNL     1      -1.354   9.842  17.413  0.00  0.00    +0.000 OA
ATOM     25  N   UNL     1      -2.844  11.374  18.259  0.00  0.00    +0.000 N 
ATOM     26  C   UNL     1      -3.314  12.320  19.281  0.00  0.00    +0.000 C 
ATOM     27  C   UNL     1      -4.837  12.232  19.452  0.00  0.00    +0.000 C 
ATOM     28  O   UNL     1      -5.518  12.364  18.196  0.00  0.00    +0.000 OA
ATOM     29  C   UNL     1      -5.093  11.346  17.274  0.00  0.00    +0.000 C 
ATOM     30  C   UNL     1      -3.590  11.459  17.000  0.00  0.00    +0.000 C 
ENDBRANCH  22  23
ENDBRANCH  21  22
ENDBRANCH   8  21
TORSDOF 7
ENDMDL
MODEL 2
REMARK VINA RESULT:      -7.6      1.134      1.791
REMARK  Name = 
REMARK  9 active torsions:
REMARK  status: ('A' for Active; 'I' for Inactive)
REMARK    1  A    between atoms: C_1  and  C_2
REMARK    2  A    between atoms: C_4  and  N_5
REMARK    3  A    between atoms: N_5  and  S_6
REMARK    4  A    between atoms: S_6  and  C_9
REMARK    5  A    between atoms: C_9  and  C_10
REMARK    6  A    between atoms: C_17  and  C_18
REMARK    7  A    between atoms: C_19  and  O_20
REMARK    8  A    between atoms: O_20  and  C_21
REMARK    9  A    between atoms: C_21  and  C_22
REMARK                            x       y       z     vdW  Elec       q    Type
REMARK                         _______ _______ _______ _____ _____    ______ ____
ROOT
ATOM      1  C   UNL     1      -0.070   8.400  21.858  0.00  0.00    +0.000 C 
ATOM      2  C   UNL     1       0.922   7.922  20.830  0.00  0.00    +0.000 A 
ATOM      3  C   UNL     1       1.413   6.603  21.005  0.00  0.00    +0.000 A 
ATOM      4  C   UNL     1       2.305   6.028  20.102  0.00  0.00    +0.000 A 
ATOM      5  C   UNL     1       2.705   6.747  18.987  0.00  0.00    +0.000 A 
ATOM      6  C   UNL     1       2.226   8.048  18.771  0.00  0.00    +0.000 A 
ATOM      7  C   UNL     1       2.674   8.779  17.531  0.00  0.00    +0.000 C 
ATOM      8  C   UNL     1       1.351   8.660  19.704  0.00  0.00    +0.000 A 
ENDROOT
BRANCH   4   9
ATOM      9  N   UNL     1       2.832   4.730  20.322  0.00  0.00    +0.000 N 
ATOM     10  H   UNL     1       3.780   4.648  20.682  0.00  0.00    +0.000 HD
BRANCH   9  11
ATOM     11  S   UNL     1       2.289   3.400  19.443  0.00  0.00    +0.000 S 
ATOM     12  O   UNL     1       1.872   2.447  20.451  0.00  0.00    +0.000 OA
ATOM     13  O   UNL     1       1.368   3.884  18.434  0.00  0.00    +0.000 OA
BRANCH  11  14
ATOM     14  C   UNL     1       3.790   2.770  18.659  0.00  0.00    +0.000 C 
BRANCH  14  15
ATOM     15  C   UNL     1       4.587   3.918  18.087  0.00  0.00    +0.000 A 
ATOM     16  C   UNL     1       5.626   4.492  18.838  0.00  0.00    +0.000 A 
ATOM     17  C   UNL     1       6.365   5.566  18.339  0.00  0.00    +0.000 A 
ATOM     18  C   UNL     1       6.084   6.083  17.079  0.00  0.00    +0.000 A 
ATOM     19  C   UNL     1       5.063   5.521  16.313  0.00  0.00    +0.000 A 
ATOM     20  C   UNL     1       4.318   4.446  16.810  0.00  0.00    +0.000 A 
ENDBRANCH  14  15
ENDBRANCH  11  14
ENDBRANCH   9  11
ENDBRANCH   4   9
BRANCH   8  21
ATOM     21  O   UNL     1       0.982   9.931  19.344  0.00  0.00    +0.000 OA
BRANCH  21  22
ATOM     22  C   UNL     1       0.048  10.110  18.292  0.00  0.00    +0.000 C 
BRANCH  22  23
ATOM     23  C   UNL     1      -1.321  10.673  18.720  0.00  0.00    +0.000 C 
ATOM     24  O   UNL     1      -1.489  11.232  19.805  0.00  0.00    +0.000 OA
ATOM     25  N   UNL     1      -2.365  10.508  17.807  0.00  0.00    +0.000 N 
ATOM     26  C   UNL     1      -2.293   9.787  16.529  0.00  0.00    +0.000 C 
ATOM     27  C   UNL     1      -3.006  10.569  15.416  0.00  0.00    +0.000 C 
ATOM     28  O   UNL     1      -4.344  10.925  15.796  0.00  0.00    +0.000 OA
ATOM     29  C   UNL     1      -4.341  11.718  16.996  0.00  0.00    +0.000 C 
ATOM     30  C   UNL     1      -3.722  10.936  18.158  0.00  0.00    +0.000 C 
ENDBRANCH  22  23
ENDBRANCH  21  22
ENDBRANCH   8  21
TORSDOF 7
ENDMDL
MODEL 3
REMARK VINA RESULT:      -7.4      1.533      2.577
REMARK  Name = 
REMARK  9 active torsions:
REMARK  status: ('A' for Active; 'I' for Inactive)
REMARK    1  A    between atoms: C_1  and  C_2
REMARK    2  A    between atoms: C_4  and  N_5
REMARK    3  A    between atoms: N_5  and  S_6
REMARK    4  A    between atoms: S_6  and  C_9
REMARK    5  A    between atoms: C_9  and  C_10
REMARK    6  A    between atoms: C_17  and  C_18
REMARK    7  A    between atoms: C_19  and  O_20
REMARK    8  A    between atoms: O_20  and  C_21
REMARK    9  A    between atoms: C_21  and  C_22
REMARK                            x       y       z     vdW  Elec       q    Type
REMARK                         _______ _______ _______ _____ _____    ______ ____
ROOT
ATOM      1  C   UNL     1       2.232   9.337  17.694  0.00  0.00    +0.000 C 
ATOM      2  C   UNL     1       1.755   8.748  18.995  0.00  0.00    +0.000 A 
ATOM      3  C   UNL     1       2.157   7.413  19.259  0.00  0.00    +0.000 A 
ATOM      4  C   UNL     1       1.815   6.767  20.444  0.00  0.00    +0.000 A 
ATOM      5  C   UNL     1       1.087   7.446  21.407  0.00  0.00    +0.000 A 
ATOM      6  C   UNL     1       0.687   8.774  21.190  0.00  0.00    +0.000 A 
ATOM      7  C   UNL     1      -0.084   9.477  22.277  0.00  0.00    +0.000 C 
ATOM      8  C   UNL     1       0.993   9.429  19.969  0.00  0.00    +0.000 A 
ENDROOT
BRANCH   4   9
ATOM      9  N   UNL     1       2.175   5.413  20.668  0.00  0.00    +0.000 N 
ATOM     10  H   UNL     1       2.026   5.020  21.594  0.00  0.00    +0.000 HD
BRANCH   9  11
ATOM     11  S   UNL     1       3.384   4.665  19.766  0.00  0.00    +0.000 S 
ATOM     12  O   UNL     1       4.536   5.532  19.916  0.00  0.00    +0.000 OA
ATOM     13  O   UNL     1       3.432   3.272  20.160  0.00  0.00    +0.000 OA
BRANCH  11  14
ATOM     14  C   UNL     1       2.792   4.807  18.064  0.00  0.00    +0.000 C 
BRANCH  14  15
ATOM     15  C   UNL     1       3.968   4.921  17.123  0.00  0.00    +0.000 A 
ATOM     16  C   UNL     1       4.408   6.187  16.704  0.00  0.00    +0.000 A 
ATOM     17  C   UNL     1       5.481   6.319  15.821  0.00  0.00    +0.000 A 
ATOM     18  C   UNL     1       6.137   5.189  15.343  0.00  0.00    +0.000 A 
ATOM     19  C   UNL     1       5.721   3.923  15.755  0.00  0.00    +0.000 A 
ATOM     20  C   UNL     1       4.645   3.786  16.638  0.00  0.00    +0.000 A 
ENDBRANCH  14  15
ENDBRANCH  11  14
ENDBRANCH   9  11
ENDBRANCH   4   9
BRANCH   8  21
ATOM     21  O   UNL     1       0.526  10.719  19.919  0.00  0.00    +0.000 OA
BRANCH  21  22
ATOM     22  C   UNL     1      -0.180  11.157  18.770  0.00  0.00    +0.000 C 
BRANCH  22  23
ATOM     23  C   UNL     1      -1.686  11.405  18.982  0.00  0.00    +0.000 C 
ATOM     24  O   UNL     1      -2.122  11.968  19.988  0.00  0.00    +0.000 OA
ATOM     25  N   UNL     1      -2.531  10.950  17.968  0.00  0.00    +0.000 N 
ATOM     26  C   UNL     1      -2.125  10.198  16.773  0.00  0.00    +0.000 C 
ATOM     27  C   UNL     1      -2.838  10.728  15.521  0.00  0.00    +0.000 C 
ATOM     28  O   UNL     1      -4.260  10.781  15.706  0.00  0.00    +0.000 OA
ATOM     29  C   UNL     1      -4.600  11.617  16.826  0.00  0.00    +0.000 C 
ATOM     30  C   UNL     1      -3.985  11.067  18.116  0.00  0.00    +0.000 C 
ENDBRANCH  22  23
ENDBRANCH  21  22
ENDBRANCH   8  21
TORSDOF 7
ENDMDL
MODEL 4
REMARK VINA RESULT:      -7.4      2.796      8.619
REMARK  Name = 
REMARK  9 active torsions:
REMARK  status: ('A' for Active; 'I' for Inactive)
REMARK    1  A    between atoms: C_1  and  C_2
REMARK    2  A    between atoms: C_4  and  N_5
REMARK    3  A    between atoms: N_5  and  S_6
REMARK    4  A    between atoms: S_6  and  C_9
REMARK    5  A    between atoms: C_9  and  C_10
REMARK    6  A    between atoms: C_17  and  C_18
REMARK    7  A    between atoms: C_19  and  O_20
REMARK    8  A    between atoms: O_20  and  C_21
REMARK    9  A    between atoms: C_21  and  C_22
REMARK                            x       y       z     vdW  Elec       q    Type
REMARK                         _______ _______ _______ _____ _____    ______ ____
ROOT
ATOM      1  C   UNL     1       0.939   8.171  21.849  0.00  0.00    +0.000 C 
ATOM      2  C   UNL     1       1.362   8.487  20.438  0.00  0.00    +0.000 A 
ATOM      3  C   UNL     1       1.010   9.774  19.956  0.00  0.00    +0.000 A 
ATOM      4  C   UNL     1       1.376  10.204  18.683  0.00  0.00    +0.000 A 
ATOM      5  C   UNL     1       2.126   9.369  17.870  0.00  0.00    +0.000 A 
ATOM      6  C   UNL     1       2.508   8.095  18.319  0.00  0.00    +0.000 A 
ATOM      7  C   UNL     1       3.342   7.234  17.406  0.00  0.00    +0.000 C 
ATOM      8  C   UNL     1       2.106   7.630  19.597  0.00  0.00    +0.000 A 
ENDROOT
BRANCH   4   9
ATOM      9  N   UNL     1       0.968  11.471  18.194  0.00  0.00    +0.000 N 
ATOM     10  H   UNL     1       1.661  12.060  17.738  0.00  0.00    +0.000 HD
BRANCH   9  11
ATOM     11  S   UNL     1      -0.327  12.301  18.880  0.00  0.00    +0.000 S 
ATOM     12  O   UNL     1       0.164  12.729  20.175  0.00  0.00    +0.000 OA
ATOM     13  O   UNL     1      -0.808  13.255  17.901  0.00  0.00    +0.000 OA
BRANCH  11  14
ATOM     14  C   UNL     1      -1.564  11.010  19.146  0.00  0.00    +0.000 C 
BRANCH  14  15
ATOM     15  C   UNL     1      -2.398  10.839  17.899  0.00  0.00    +0.000 A 
ATOM     16  C   UNL     1      -1.940  10.013  16.859  0.00  0.00    +0.000 A 
ATOM     17  C   UNL     1      -2.683   9.852  15.689  0.00  0.00    +0.000 A 
ATOM     18  C   UNL     1      -3.900  10.509  15.536  0.00  0.00    +0.000 A 
ATOM     19  C   UNL     1      -4.376  11.326  16.561  0.00  0.00    +0.000 A 
ATOM     20  C   UNL     1      -3.634  11.492  17.735  0.00  0.00    +0.000 A 
ENDBRANCH  14  15
ENDBRANCH  11  14
ENDBRANCH   9  11
ENDBRANCH   4   9
BRANCH   8  21
ATOM     21  O   UNL     1       2.560   6.366  19.877  0.00  0.00    +0.000 OA
BRANCH  21  22
ATOM     22  C   UNL     1       1.629   5.300  19.976  0.00  0.00    +0.000 C 
BRANCH  22  23
ATOM     23  C   UNL     1       1.705   4.257  18.844  0.00  0.00    +0.000 C 
ATOM     24  O   UNL     1       1.170   4.439  17.749  0.00  0.00    +0.000 OA
ATOM     25  N   UNL     1       2.413   3.089  19.133  0.00  0.00    +0.000 N 
ATOM     26  C   UNL     1       3.015   2.737  20.427  0.00  0.00    +0.000 C 
ATOM     27  C   UNL     1       4.418   2.144  20.236  0.00  0.00    +0.000 C 
ATOM     28  O   UNL     1       4.410   1.059  19.297  0.00  0.00    +0.000 OA
ATOM     29  C   UNL     1       3.909   1.491  18.021  0.00  0.00    +0.000 C 
ATOM     30  C   UNL     1       2.471   2.003  18.150  0.00  0.00    +0.000 C 
ENDBRANCH  22  23
ENDBRANCH  21  22
ENDBRANCH   8  21
TORSDOF 7
ENDMDL
MODEL 5
REMARK VINA RESULT:      -7.4      1.474      2.623
REMARK  Name = 
REMARK  9 active torsions:
REMARK  status: ('A' for Active; 'I' for Inactive)
REMARK    1  A    between atoms: C_1  and  C_2
REMARK    2  A    between atoms: C_4  and  N_5
REMARK    3  A    between atoms: N_5  and  S_6
REMARK    4  A    between atoms: S_6  and  C_9
REMARK    5  A    between atoms: C_9  and  C_10
REMARK    6  A    between atoms: C_17  and  C_18
REMARK    7  A    between atoms: C_19  and  O_20
REMARK    8  A    between atoms: O_20  and  C_21
REMARK    9  A    between atoms: C_21  and  C_22
REMARK                            x       y       z     vdW  Elec       q    Type
REMARK                         _______ _______ _______ _____ _____    ______ ____
ROOT
ATOM      1  C   UNL     1       3.024   8.149  17.493  0.00  0.00    +0.000 C 
ATOM      2  C   UNL     1       2.328   7.815  18.786  0.00  0.00    +0.000 A 
ATOM      3  C   UNL     1       2.648   6.558  19.359  0.00  0.00    +0.000 A 
ATOM      4  C   UNL     1       2.102   6.146  20.573  0.00  0.00    +0.000 A 
ATOM      5  C   UNL     1       1.244   6.992  21.257  0.00  0.00    +0.000 A 
ATOM      6  C   UNL     1       0.918   8.251  20.730  0.00  0.00    +0.000 A 
ATOM      7  C   UNL     1      -0.002   9.143  21.524  0.00  0.00    +0.000 C 
ATOM      8  C   UNL     1       1.434   8.665  19.475  0.00  0.00    +0.000 A 
ENDROOT
BRANCH   4   9
ATOM      9  N   UNL     1       2.387   4.863  21.104  0.00  0.00    +0.000 N 
ATOM     10  H   UNL     1       3.259   4.732  21.612  0.00  0.00    +0.000 HD
BRANCH   9  11
ATOM     11  S   UNL     1       1.755   3.464  20.410  0.00  0.00    +0.000 S 
ATOM     12  O   UNL     1       1.146   2.756  21.517  0.00  0.00    +0.000 OA
ATOM     13  O   UNL     1       0.982   3.858  19.249  0.00  0.00    +0.000 OA
BRANCH  11  14
ATOM     14  C   UNL     1       3.224   2.546  19.894  0.00  0.00    +0.000 C 
BRANCH  14  15
ATOM     15  C   UNL     1       3.978   3.336  18.851  0.00  0.00    +0.000 A 
ATOM     16  C   UNL     1       5.150   4.024  19.206  0.00  0.00    +0.000 A 
ATOM     17  C   UNL     1       5.855   4.776  18.265  0.00  0.00    +0.000 A 
ATOM     18  C   UNL     1       5.406   4.851  16.950  0.00  0.00    +0.000 A 
ATOM     19  C   UNL     1       4.250   4.168  16.575  0.00  0.00    +0.000 A 
ATOM     20  C   UNL     1       3.539   3.415  17.516  0.00  0.00    +0.000 A 
ENDBRANCH  14  15
ENDBRANCH  11  14
ENDBRANCH   9  11
ENDBRANCH   4   9
BRANCH   8  21
ATOM     21  O   UNL     1       1.014   9.918  19.107  0.00  0.00    +0.000 OA
BRANCH  21  22
ATOM     22  C   UNL     1       0.166  10.062  17.979  0.00  0.00    +0.000 C 
BRANCH  22  23
ATOM     23  C   UNL     1      -1.309  10.366  18.303  0.00  0.00    +0.000 C 
ATOM     24  O   UNL     1      -2.200   9.529  18.150  0.00  0.00    +0.000 OA
ATOM     25  N   UNL     1      -1.580  11.651  18.778  0.00  0.00    +0.000 N 
ATOM     26  C   UNL     1      -0.610  12.746  18.919  0.00  0.00    +0.000 C 
ATOM     27  C   UNL     1      -0.803  13.482  20.253  0.00  0.00    +0.000 C 
ATOM     28  O   UNL     1      -2.164  13.899  20.434  0.00  0.00    +0.000 OA
ATOM     29  C   UNL     1      -3.054  12.770  20.391  0.00  0.00    +0.000 C 
ATOM     30  C   UNL     1      -2.963  12.062  19.036  0.00  0.00    +0.000 C 
ENDBRANCH  22  23
ENDBRANCH  21  22
ENDBRANCH   8  21
TORSDOF 7
ENDMDL
MODEL 6
REMARK VINA RESULT:      -7.4      0.970      2.171
REMARK  Name = 
REMARK  9 active torsions:
REMARK  status: ('A' for Active; 'I' for Inactive)
REMARK    1  A    between atoms: C_1  and  C_2
REMARK    2  A    between atoms: C_4  and  N_5
REMARK    3  A    between atoms: N_5  and  S_6
REMARK    4  A    between atoms: S_6  and  C_9
REMARK    5  A    between atoms: C_9  and  C_10
REMARK    6  A    between atoms: C_17  and  C_18
REMARK    7  A    between atoms: C_19  and  O_20
REMARK    8  A    between atoms: O_20  and  C_21
REMARK    9  A    between atoms: C_21  and  C_22
REMARK                            x       y       z     vdW  Elec       q    Type
REMARK                         _______ _______ _______ _____ _____    ______ ____
ROOT
ATOM      1  C   UNL     1       2.548   8.497  17.598  0.00  0.00    +0.000 C 
ATOM      2  C   UNL     1       2.052   8.032  18.942  0.00  0.00    +0.000 A 
ATOM      3  C   UNL     1       2.531   6.771  19.380  0.00  0.00    +0.000 A 
ATOM      4  C   UNL     1       2.180   6.246  20.621  0.00  0.00    +0.000 A 
ATOM      5  C   UNL     1       1.364   6.979  21.466  0.00  0.00    +0.000 A 
ATOM      6  C   UNL     1       0.885   8.239  21.075  0.00  0.00    +0.000 A 
ATOM      7  C   UNL     1       0.018   9.007  22.040  0.00  0.00    +0.000 C 
ATOM      8  C   UNL     1       1.201   8.767  19.797  0.00  0.00    +0.000 A 
ENDROOT
BRANCH   4   9
ATOM      9  N   UNL     1       2.620   4.958  21.020  0.00  0.00    +0.000 N 
ATOM     10  H   UNL     1       3.622   4.785  21.078  0.00  0.00    +0.000 HD
BRANCH   9  11
ATOM     11  S   UNL     1       1.679   3.587  20.757  0.00  0.00    +0.000 S 
ATOM     12  O   UNL     1       1.506   3.010  22.075  0.00  0.00    +0.000 OA
ATOM     13  O   UNL     1       0.542   3.980  19.949  0.00  0.00    +0.000 OA
BRANCH  11  14
ATOM     14  C   UNL     1       2.768   2.501  19.806  0.00  0.00    +0.000 C 
BRANCH  14  15
ATOM     15  C   UNL     1       3.613   3.326  18.865  0.00  0.00    +0.000 A 
ATOM     16  C   UNL     1       4.895   3.744  19.259  0.00  0.00    +0.000 A 
ATOM     17  C   UNL     1       5.689   4.522  18.415  0.00  0.00    +0.000 A 
ATOM     18  C   UNL     1       5.219   4.893  17.159  0.00  0.00    +0.000 A 
ATOM     19  C   UNL     1       3.953   4.480  16.745  0.00  0.00    +0.000 A 
ATOM     20  C   UNL     1       3.153   3.702  17.589  0.00  0.00    +0.000 A 
ENDBRANCH  14  15
ENDBRANCH  11  14
ENDBRANCH   9  11
ENDBRANCH   4   9
BRANCH   8  21
ATOM     21  O   UNL     1       0.651  10.004  19.574  0.00  0.00    +0.000 OA
BRANCH  21  22
ATOM     22  C   UNL     1      -0.758  10.131  19.489  0.00  0.00    +0.000 C 
BRANCH  22  23
ATOM     23  C   UNL     1      -1.325  10.195  18.057  0.00  0.00    +0.000 C 
ATOM     24  O   UNL     1      -0.848   9.534  17.133  0.00  0.00    +0.000 OA
ATOM     25  N   UNL     1      -2.411  11.051  17.865  0.00  0.00    +0.000 N 
ATOM     26  C   UNL     1      -3.002  11.942  18.873  0.00  0.00    +0.000 C 
ATOM     27  C   UNL     1      -4.536  11.890  18.822  0.00  0.00    +0.000 C 
ATOM     28  O   UNL     1      -5.027  12.126  17.494  0.00  0.00    +0.000 OA
ATOM     29  C   UNL     1      -4.496  11.159  16.572  0.00  0.00    +0.000 C 
ATOM     30  C   UNL     1      -2.968  11.243  16.522  0.00  0.00    +0.000 C 
ENDBRANCH  22  23
ENDBRANCH  21  22
ENDBRANCH   8  21
TORSDOF 7
ENDMDL
MODEL 7
REMARK VINA RESULT:      -7.3      3.198      4.286
REMARK  Name = 
REMARK  9 active torsions:
REMARK  status: ('A' for Active; 'I' for Inactive)
REMARK    1  A    between atoms: C_1  and  C_2
REMARK    2  A    between atoms: C_4  and  N_5
REMARK    3  A    between atoms: N_5  and  S_6
REMARK    4  A    between atoms: S_6  and  C_9
REMARK    5  A    between atoms: C_9  and  C_10
REMARK    6  A    between atoms: C_17  and  C_18
REMARK    7  A    between atoms: C_19  and  O_20
REMARK    8  A    between atoms: O_20  and  C_21
REMARK    9  A    between atoms: C_21  and  C_22
REMARK                            x       y       z     vdW  Elec       q    Type
REMARK                         _______ _______ _______ _____ _____    ______ ____
ROOT
ATOM      1  C   UNL     1       1.740   5.855  20.963  0.00  0.00    +0.000 C 
ATOM      2  C   UNL     1       2.112   6.804  19.853  0.00  0.00    +0.000 A 
ATOM      3  C   UNL     1       2.989   6.290  18.863  0.00  0.00    +0.000 A 
ATOM      4  C   UNL     1       3.378   7.052  17.764  0.00  0.00    +0.000 A 
ATOM      5  C   UNL     1       2.880   8.336  17.613  0.00  0.00    +0.000 A 
ATOM      6  C   UNL     1       1.996   8.872  18.563  0.00  0.00    +0.000 A 
ATOM      7  C   UNL     1       1.465  10.265  18.341  0.00  0.00    +0.000 C 
ATOM      8  C   UNL     1       1.625   8.121  19.708  0.00  0.00    +0.000 A 
ENDROOT
BRANCH   4   9
ATOM      9  N   UNL     1       4.300   6.545  16.814  0.00  0.00    +0.000 N 
ATOM     10  H   UNL     1       3.960   6.323  15.881  0.00  0.00    +0.000 HD
BRANCH   9  11
ATOM     11  S   UNL     1       5.673   5.694  17.289  0.00  0.00    +0.000 S 
ATOM     12  O   UNL     1       6.721   6.183  16.416  0.00  0.00    +0.000 OA
ATOM     13  O   UNL     1       5.780   5.798  18.730  0.00  0.00    +0.000 OA
BRANCH  11  14
ATOM     14  C   UNL     1       5.299   3.989  16.818  0.00  0.00    +0.000 C 
BRANCH  14  15
ATOM     15  C   UNL     1       4.201   3.446  17.701  0.00  0.00    +0.000 A 
ATOM     16  C   UNL     1       4.490   3.065  19.022  0.00  0.00    +0.000 A 
ATOM     17  C   UNL     1       3.497   2.542  19.853  0.00  0.00    +0.000 A 
ATOM     18  C   UNL     1       2.196   2.396  19.381  0.00  0.00    +0.000 A 
ATOM     19  C   UNL     1       1.887   2.778  18.076  0.00  0.00    +0.000 A 
ATOM     20  C   UNL     1       2.880   3.300  17.240  0.00  0.00    +0.000 A 
ENDBRANCH  14  15
ENDBRANCH  11  14
ENDBRANCH   9  11
ENDBRANCH   4   9
BRANCH   8  21
ATOM     21  O   UNL     1       0.760   8.793  20.535  0.00  0.00    +0.000 OA
BRANCH  21  22
ATOM     22  C   UNL     1       1.268   9.449  21.685  0.00  0.00    +0.000 C 
BRANCH  22  23
ATOM     23  C   UNL     1       0.202   9.950  22.678  0.00  0.00    +0.000 C 
ATOM     24  O   UNL     1       0.021   9.412  23.772  0.00  0.00    +0.000 OA
ATOM     25  N   UNL     1      -0.554  11.049  22.264  0.00  0.00    +0.000 N 
ATOM     26  C   UNL     1      -0.477  11.710  20.954  0.00  0.00    +0.000 C 
ATOM     27  C   UNL     1      -0.498  13.238  21.107  0.00  0.00    +0.000 C 
ATOM     28  O   UNL     1      -1.610  13.673  21.902  0.00  0.00    +0.000 OA
ATOM     29  C   UNL     1      -1.572  13.073  23.208  0.00  0.00    +0.000 C 
ATOM     30  C   UNL     1      -1.647  11.547  23.104  0.00  0.00    +0.000 C 
ENDBRANCH  22  23
ENDBRANCH  21  22
ENDBRANCH   8  21
TORSDOF 7
ENDMDL
MODEL 8
REMARK VINA RESULT:      -7.3      3.064      8.610
REMARK  Name = 
REMARK  9 active torsions:
REMARK  status: ('A' for Active; 'I' for Inactive)
REMARK    1  A    between atoms: C_1  and  C_2
REMARK    2  A    between atoms: C_4  and  N_5
REMARK    3  A    between atoms: N_5  and  S_6
REMARK    4  A    between atoms: S_6  and  C_9
REMARK    5  A    between atoms: C_9  and  C_10
REMARK    6  A    between atoms: C_17  and  C_18
REMARK    7  A    between atoms: C_19  and  O_20
REMARK    8  A    between atoms: O_20  and  C_21
REMARK    9  A    between atoms: C_21  and  C_22
REMARK                            x       y       z     vdW  Elec       q    Type
REMARK                         _______ _______ _______ _____ _____    ______ ____
ROOT
ATOM      1  C   UNL     1       3.650   7.010  17.093  0.00  0.00    +0.000 C 
ATOM      2  C   UNL     1       2.896   6.454  18.273  0.00  0.00    +0.000 A 
ATOM      3  C   UNL     1       2.656   7.358  19.339  0.00  0.00    +0.000 A 
ATOM      4  C   UNL     1       1.937   6.980  20.471  0.00  0.00    +0.000 A 
ATOM      5  C   UNL     1       1.416   5.699  20.552  0.00  0.00    +0.000 A 
ATOM      6  C   UNL     1       1.617   4.783  19.509  0.00  0.00    +0.000 A 
ATOM      7  C   UNL     1       1.012   3.408  19.635  0.00  0.00    +0.000 C 
ATOM      8  C   UNL     1       2.384   5.142  18.370  0.00  0.00    +0.000 A 
ENDROOT
BRANCH   4   9
ATOM      9  N   UNL     1       1.755   7.878  21.554  0.00  0.00    +0.000 N 
ATOM     10  H   UNL     1       2.110   7.610  22.469  0.00  0.00    +0.000 HD
BRANCH   9  11
ATOM     11  S   UNL     1       0.476   8.973  21.582  0.00  0.00    +0.000 S 
ATOM     12  O   UNL     1      -0.701   8.148  21.775  0.00  0.00    +0.000 OA
ATOM     13  O   UNL     1       0.819  10.028  22.513  0.00  0.00    +0.000 OA
BRANCH  11  14
ATOM     14  C   UNL     1       0.437   9.623  19.896  0.00  0.00    +0.000 C 
BRANCH  14  15
ATOM     15  C   UNL     1       0.019  11.074  19.919  0.00  0.00    +0.000 A 
ATOM     16  C   UNL     1      -1.336  11.409  20.076  0.00  0.00    +0.000 A 
ATOM     17  C   UNL     1      -1.750  12.742  20.082  0.00  0.00    +0.000 A 
ATOM     18  C   UNL     1      -0.818  13.765  19.937  0.00  0.00    +0.000 A 
ATOM     19  C   UNL     1       0.533  13.453  19.790  0.00  0.00    +0.000 A 
ATOM     20  C   UNL     1       0.952  12.118  19.781  0.00  0.00    +0.000 A 
ENDBRANCH  14  15
ENDBRANCH  11  14
ENDBRANCH   9  11
ENDBRANCH   4   9
BRANCH   8  21
ATOM     21  O   UNL     1       2.486   4.130  17.449  0.00  0.00    +0.000 OA
BRANCH  21  22
ATOM     22  C   UNL     1       3.658   3.333  17.421  0.00  0.00    +0.000 C 
BRANCH  22  23
ATOM     23  C   UNL     1       4.842   3.936  16.638  0.00  0.00    +0.000 C 
ATOM     24  O   UNL     1       4.860   3.975  15.406  0.00  0.00    +0.000 OA
ATOM     25  N   UNL     1       5.897   4.431  17.406  0.00  0.00    +0.000 N 
ATOM     26  C   UNL     1       6.013   4.359  18.869  0.00  0.00    +0.000 C 
ATOM     27  C   UNL     1       6.512   5.691  19.447  0.00  0.00    +0.000 C 
ATOM     28  O   UNL     1       7.716   6.129  18.800  0.00  0.00    +0.000 OA
ATOM     29  C   UNL     1       7.510   6.282  17.385  0.00  0.00    +0.000 C 
ATOM     30  C   UNL     1       7.102   4.948  16.752  0.00  0.00    +0.000 C 
ENDBRANCH  22  23
ENDBRANCH  21  22
ENDBRANCH   8  21
TORSDOF 7
ENDMDL
MODEL 9
REMARK VINA RESULT:      -7.3      1.294      2.380
REMARK  Name = 
REMARK  9 active torsions:
REMARK  status: ('A' for Active; 'I' for Inactive)
REMARK    1  A    between atoms: C_1  and  C_2
REMARK    2  A    between atoms: C_4  and  N_5
REMARK    3  A    between atoms: N_5  and  S_6
REMARK    4  A    between atoms: S_6  and  C_9
REMARK    5  A    between atoms: C_9  and  C_10
REMARK    6  A    between atoms: C_17  and  C_18
REMARK    7  A    between atoms: C_19  and  O_20
REMARK    8  A    between atoms: O_20  and  C_21
REMARK    9  A    between atoms: C_21  and  C_22
REMARK                            x       y       z     vdW  Elec       q    Type
REMARK                         _______ _______ _______ _____ _____    ______ ____
ROOT
ATOM      1  C   UNL     1       1.506  10.041  17.619  0.00  0.00    +0.000 C 
ATOM      2  C   UNL     1       1.470   9.110  18.803  0.00  0.00    +0.000 A 
ATOM      3  C   UNL     1       2.359   8.007  18.755  0.00  0.00    +0.000 A 
ATOM      4  C   UNL     1       2.451   7.095  19.804  0.00  0.00    +0.000 A 
ATOM      5  C   UNL     1       1.676   7.278  20.938  0.00  0.00    +0.000 A 
ATOM      6  C   UNL     1       0.797   8.369  21.029  0.00  0.00    +0.000 A 
ATOM      7  C   UNL     1      -0.007   8.537  22.292  0.00  0.00    +0.000 C 
ATOM      8  C   UNL     1       0.664   9.281  19.951  0.00  0.00    +0.000 A 
ENDROOT
BRANCH   4   9
ATOM      9  N   UNL     1       3.303   5.964  19.716  0.00  0.00    +0.000 N 
ATOM     10  H   UNL     1       4.308   6.111  19.771  0.00  0.00    +0.000 HD
BRANCH   9  11
ATOM     11  S   UNL     1       2.833   4.572  18.894  0.00  0.00    +0.000 S 
ATOM     12  O   UNL     1       3.358   3.485  19.696  0.00  0.00    +0.000 OA
ATOM     13  O   UNL     1       1.417   4.684  18.608  0.00  0.00    +0.000 OA
BRANCH  11  14
ATOM     14  C   UNL     1       3.783   4.647  17.358  0.00  0.00    +0.000 C 
BRANCH  14  15
ATOM     15  C   UNL     1       5.104   5.335  17.608  0.00  0.00    +0.000 A 
ATOM     16  C   UNL     1       5.317   6.637  17.126  0.00  0.00    +0.000 A 
ATOM     17  C   UNL     1       6.535   7.288  17.329  0.00  0.00    +0.000 A 
ATOM     18  C   UNL     1       7.561   6.653  18.022  0.00  0.00    +0.000 A 
ATOM     19  C   UNL     1       7.365   5.364  18.517  0.00  0.00    +0.000 A 
ATOM     20  C   UNL     1       6.147   4.707  18.314  0.00  0.00    +0.000 A 
ENDBRANCH  14  15
ENDBRANCH  11  14
ENDBRANCH   9  11
ENDBRANCH   4   9
BRANCH   8  21
ATOM     21  O   UNL     1      -0.238  10.284  20.202  0.00  0.00    +0.000 OA
BRANCH  21  22
ATOM     22  C   UNL     1      -0.524  11.230  19.186  0.00  0.00    +0.000 C 
BRANCH  22  23
ATOM     23  C   UNL     1      -2.000  11.662  19.090  0.00  0.00    +0.000 C 
ATOM     24  O   UNL     1      -2.497  12.475  19.872  0.00  0.00    +0.000 OA
ATOM     25  N   UNL     1      -2.745  11.076  18.065  0.00  0.00    +0.000 N 
ATOM     26  C   UNL     1      -2.275  10.040  17.135  0.00  0.00    +0.000 C 
ATOM     27  C   UNL     1      -2.730  10.343  15.700  0.00  0.00    +0.000 C 
ATOM     28  O   UNL     1      -4.145  10.572  15.632  0.00  0.00    +0.000 OA
ATOM     29  C   UNL     1      -4.528  11.665  16.484  0.00  0.00    +0.000 C 
ATOM     30  C   UNL     1      -4.178  11.361  17.943  0.00  0.00    +0.000 C 
ENDBRANCH  22  23
ENDBRANCH  21  22
ENDBRANCH   8  21
TORSDOF 7
ENDMDL
