MODEL 1
REMARK VINA RESULT:      -7.5      0.000      0.000
REMARK  Name = 
REMARK  10 active torsions:
REMARK  status: ('A' for Active; 'I' for Inactive)
REMARK    1  A    between atoms: C_1  and  C_2
REMARK    2  A    between atoms: C_2  and  C_3
REMARK    3  A    between atoms: C_3  and  C_4
REMARK    4  A    between atoms: C_4  and  C_5
REMARK    5  A    between atoms: C_5  and  N_6
REMARK    6  A    between atoms: C_5  and  C_20
REMARK    7  A    between atoms: C_7  and  C_9
REMARK    8  A    between atoms: C_9  and  C_10
REMARK    9  A    between atoms: C_9  and  O_11
REMARK   10  A    between atoms: O_11  and  C_12
REMARK                            x       y       z     vdW  Elec       q    Type
REMARK                         _______ _______ _______ _____ _____    ______ ____
ROOT
ATOM      1  N   UNL     1       5.061   4.831  16.855  0.00  0.00    +0.000 N 
ATOM      2  C   UNL     1       3.953   4.178  17.371  0.00  0.00    +0.000 C 
ATOM      3  O   UNL     1       3.916   2.965  17.562  0.00  0.00    +0.000 OA
ATOM      4  H   UNL     1       5.094   5.839  16.938  0.00  0.00    +0.000 HD
ENDROOT
BRANCH   2   5
ATOM      5  C   UNL     1       2.737   5.076  17.627  0.00  0.00    +0.000 C 
ATOM      6  C   UNL     1       1.594   4.171  18.091  0.00  0.00    +0.000 C 
BRANCH   5   7
ATOM      7  O   UNL     1       3.155   5.982  18.649  0.00  0.00    +0.000 OA
BRANCH   7   8
ATOM      8  C   UNL     1       2.588   7.223  18.723  0.00  0.00    +0.000 A 
ATOM      9  C   UNL     1       2.698   8.201  17.733  0.00  0.00    +0.000 A 
ATOM     10  C   UNL     1       2.034   9.425  17.866  0.00  0.00    +0.000 A 
ATOM     11  C   UNL     1       1.267   9.682  18.998  0.00  0.00    +0.000 A 
ATOM     12 CL   UNL     1       0.466  11.196  19.155  0.00  0.00    +0.000 Cl
ATOM     13  C   UNL     1       1.148   8.725  19.998  0.00  0.00    +0.000 A 
ATOM     14  C   UNL     1       1.800   7.497  19.856  0.00  0.00    +0.000 A 
ATOM     15 CL   UNL     1       1.627   6.339  21.130  0.00  0.00    +0.000 Cl
ENDBRANCH   7   8
ENDBRANCH   5   7
ENDBRANCH   2   5
BRANCH   1  16
ATOM     16  C   UNL     1       6.303   4.163  16.471  0.00  0.00    +0.000 C 
BRANCH  16  17
ATOM     17  C   UNL     1       6.580   4.309  14.982  0.00  0.00    +0.000 A 
ATOM     18  C   UNL     1       5.884   3.516  14.051  0.00  0.00    +0.000 A 
ATOM     19  C   UNL     1       6.143   3.632  12.684  0.00  0.00    +0.000 A 
ATOM     20  C   UNL     1       7.095   4.541  12.239  0.00  0.00    +0.000 A 
ATOM     21  F   UNL     1       7.347   4.646  10.928  0.00  0.00    +0.000 F 
ATOM     22  C   UNL     1       7.792   5.338  13.135  0.00  0.00    +0.000 A 
ATOM     23  C   UNL     1       7.538   5.220  14.503  0.00  0.00    +0.000 A 
ENDBRANCH  16  17
BRANCH  16  24
ATOM     24  C   UNL     1       7.535   4.520  17.337  0.00  0.00    +0.000 C 
BRANCH  24  25
ATOM     25  C   UNL     1       7.142   5.284  18.608  0.00  0.00    +0.000 C 
BRANCH  25  27
ATOM     26  C   UNL     1       7.585   7.499  17.531  0.00  0.00    +0.000 C 
ATOM     27  C   UNL     1       7.878   6.617  18.735  0.00  0.00    +0.000 C 
ENDBRANCH  25  27
ENDBRANCH  24  25
ENDBRANCH  16  24
ENDBRANCH   1  16
TORSDOF 8
ENDMDL
MODEL 2
REMARK VINA RESULT:      -7.3      2.576      4.433
REMARK  Name = 
REMARK  10 active torsions:
REMARK  status: ('A' for Active; 'I' for Inactive)
REMARK    1  A    between atoms: C_1  and  C_2
REMARK    2  A    between atoms: C_2  and  C_3
REMARK    3  A    between atoms: C_3  and  C_4
REMARK    4  A    between atoms: C_4  and  C_5
REMARK    5  A    between atoms: C_5  and  N_6
REMARK    6  A    between atoms: C_5  and  C_20
REMARK    7  A    between atoms: C_7  and  C_9
REMARK    8  A    between atoms: C_9  and  C_10
REMARK    9  A    between atoms: C_9  and  O_11
REMARK   10  A    between atoms: O_11  and  C_12
REMARK                            x       y       z     vdW  Elec       q    Type
REMARK                         _______ _______ _______ _____ _____    ______ ____
ROOT
ATOM      1  N   UNL     1       4.958   3.555  17.412  0.00  0.00    +0.000 N 
ATOM      2  C   UNL     1       3.612   3.226  17.437  0.00  0.00    +0.000 C 
ATOM      3  O   UNL     1       2.795   3.678  16.640  0.00  0.00    +0.000 OA
ATOM      4  H   UNL     1       5.594   2.978  17.947  0.00  0.00    +0.000 HD
ENDROOT
BRANCH   2   5
ATOM      5  C   UNL     1       3.197   2.299  18.585  0.00  0.00    +0.000 C 
ATOM      6  C   UNL     1       3.974   0.992  18.418  0.00  0.00    +0.000 C 
BRANCH   5   7
ATOM      7  O   UNL     1       3.565   2.997  19.775  0.00  0.00    +0.000 OA
BRANCH   7   8
ATOM      8  C   UNL     1       3.075   4.253  20.000  0.00  0.00    +0.000 A 
ATOM      9  C   UNL     1       3.671   5.427  19.535  0.00  0.00    +0.000 A 
ATOM     10  C   UNL     1       3.067   6.668  19.762  0.00  0.00    +0.000 A 
ATOM     11  C   UNL     1       1.870   6.742  20.467  0.00  0.00    +0.000 A 
ATOM     12 CL   UNL     1       1.144   8.276  20.750  0.00  0.00    +0.000 Cl
ATOM     13  C   UNL     1       1.262   5.587  20.944  0.00  0.00    +0.000 A 
ATOM     14  C   UNL     1       1.859   4.347  20.703  0.00  0.00    +0.000 A 
ATOM     15 CL   UNL     1       1.069   2.937  21.320  0.00  0.00    +0.000 Cl
ENDBRANCH   7   8
ENDBRANCH   5   7
ENDBRANCH   2   5
BRANCH   1  16
ATOM     16  C   UNL     1       5.560   4.476  16.450  0.00  0.00    +0.000 C 
BRANCH  16  17
ATOM     17  C   UNL     1       6.444   5.506  17.139  0.00  0.00    +0.000 A 
ATOM     18  C   UNL     1       6.531   6.816  16.633  0.00  0.00    +0.000 A 
ATOM     19  C   UNL     1       7.353   7.763  17.250  0.00  0.00    +0.000 A 
ATOM     20  C   UNL     1       8.086   7.408  18.375  0.00  0.00    +0.000 A 
ATOM     21  F   UNL     1       8.878   8.316  18.961  0.00  0.00    +0.000 F 
ATOM     22  C   UNL     1       8.014   6.125  18.897  0.00  0.00    +0.000 A 
ATOM     23  C   UNL     1       7.198   5.176  18.279  0.00  0.00    +0.000 A 
ENDBRANCH  16  17
BRANCH  16  24
ATOM     24  C   UNL     1       6.268   3.802  15.250  0.00  0.00    +0.000 C 
BRANCH  24  25
ATOM     25  C   UNL     1       5.509   4.025  13.935  0.00  0.00    +0.000 C 
BRANCH  25  27
ATOM     26  C   UNL     1       5.510   2.814  11.746  0.00  0.00    +0.000 C 
ATOM     27  C   UNL     1       6.341   3.642  12.713  0.00  0.00    +0.000 C 
ENDBRANCH  25  27
ENDBRANCH  24  25
ENDBRANCH  16  24
ENDBRANCH   1  16
TORSDOF 8
ENDMDL
MODEL 3
REMARK VINA RESULT:      -7.3      3.725      7.197
REMARK  Name = 
REMARK  10 active torsions:
REMARK  status: ('A' for Active; 'I' for Inactive)
REMARK    1  A    between atoms: C_1  and  C_2
REMARK    2  A    between atoms: C_2  and  C_3
REMARK    3  A    between atoms: C_3  and  C_4
REMARK    4  A    between atoms: C_4  and  C_5
REMARK    5  A    between atoms: C_5  and  N_6
REMARK    6  A    between atoms: C_5  and  C_20
REMARK    7  A    between atoms: C_7  and  C_9
REMARK    8  A    between atoms: C_9  and  C_10
REMARK    9  A    between atoms: C_9  and  O_11
REMARK   10  A    between atoms: O_11  and  C_12
REMARK                            x       y       z     vdW  Elec       q    Type
REMARK                         _______ _______ _______ _____ _____    ______ ____
ROOT
ATOM      1  N   UNL     1       3.248   4.833  18.829  0.00  0.00    +0.000 N 
ATOM      2  C   UNL     1       4.223   3.849  18.852  0.00  0.00    +0.000 C 
ATOM      3  O   UNL     1       4.919   3.615  19.836  0.00  0.00    +0.000 OA
ATOM      4  H   UNL     1       2.576   4.813  18.073  0.00  0.00    +0.000 HD
ENDROOT
BRANCH   2   5
ATOM      5  C   UNL     1       4.420   3.106  17.525  0.00  0.00    +0.000 C 
ATOM      6  C   UNL     1       3.366   2.000  17.462  0.00  0.00    +0.000 C 
BRANCH   5   7
ATOM      7  O   UNL     1       4.223   4.097  16.515  0.00  0.00    +0.000 OA
BRANCH   7   8
ATOM      8  C   UNL     1       5.227   4.362  15.626  0.00  0.00    +0.000 A 
ATOM      9  C   UNL     1       5.423   3.671  14.429  0.00  0.00    +0.000 A 
ATOM     10  C   UNL     1       6.442   4.049  13.549  0.00  0.00    +0.000 A 
ATOM     11  C   UNL     1       7.279   5.114  13.868  0.00  0.00    +0.000 A 
ATOM     12 CL   UNL     1       8.536   5.561  12.782  0.00  0.00    +0.000 Cl
ATOM     13  C   UNL     1       7.106   5.812  15.056  0.00  0.00    +0.000 A 
ATOM     14  C   UNL     1       6.077   5.442  15.927  0.00  0.00    +0.000 A 
ATOM     15 CL   UNL     1       5.903   6.337  17.397  0.00  0.00    +0.000 Cl
ENDBRANCH   7   8
ENDBRANCH   5   7
ENDBRANCH   2   5
BRANCH   1  16
ATOM     16  C   UNL     1       2.939   5.710  19.958  0.00  0.00    +0.000 C 
BRANCH  16  17
ATOM     17  C   UNL     1       2.366   7.040  19.492  0.00  0.00    +0.000 A 
ATOM     18  C   UNL     1       2.507   7.442  18.151  0.00  0.00    +0.000 A 
ATOM     19  C   UNL     1       1.999   8.669  17.719  0.00  0.00    +0.000 A 
ATOM     20  C   UNL     1       1.344   9.498  18.621  0.00  0.00    +0.000 A 
ATOM     21  F   UNL     1       0.862  10.677  18.206  0.00  0.00    +0.000 F 
ATOM     22  C   UNL     1       1.187   9.124  19.948  0.00  0.00    +0.000 A 
ATOM     23  C   UNL     1       1.699   7.900  20.382  0.00  0.00    +0.000 A 
ENDBRANCH  16  17
BRANCH  16  24
ATOM     24  C   UNL     1       2.091   5.062  21.079  0.00  0.00    +0.000 C 
BRANCH  24  25
ATOM     25  C   UNL     1       0.964   4.188  20.515  0.00  0.00    +0.000 C 
BRANCH  25  27
ATOM     26  C   UNL     1       2.349   2.524  21.770  0.00  0.00    +0.000 C 
ATOM     27  C   UNL     1       1.065   2.738  20.983  0.00  0.00    +0.000 C 
ENDBRANCH  25  27
ENDBRANCH  24  25
ENDBRANCH  16  24
ENDBRANCH   1  16
TORSDOF 8
ENDMDL
MODEL 4
REMARK VINA RESULT:      -7.3      3.691      7.510
REMARK  Name = 
REMARK  10 active torsions:
REMARK  status: ('A' for Active; 'I' for Inactive)
REMARK    1  A    between atoms: C_1  and  C_2
REMARK    2  A    between atoms: C_2  and  C_3
REMARK    3  A    between atoms: C_3  and  C_4
REMARK    4  A    between atoms: C_4  and  C_5
REMARK    5  A    between atoms: C_5  and  N_6
REMARK    6  A    between atoms: C_5  and  C_20
REMARK    7  A    between atoms: C_7  and  C_9
REMARK    8  A    between atoms: C_9  and  C_10
REMARK    9  A    between atoms: C_9  and  O_11
REMARK   10  A    between atoms: O_11  and  C_12
REMARK                            x       y       z     vdW  Elec       q    Type
REMARK                         _______ _______ _______ _____ _____    ______ ____
ROOT
ATOM      1  N   UNL     1       4.369   6.209  18.643  0.00  0.00    +0.000 N 
ATOM      2  C   UNL     1       5.528   5.532  18.984  0.00  0.00    +0.000 C 
ATOM      3  O   UNL     1       5.614   4.800  19.967  0.00  0.00    +0.000 OA
ATOM      4  H   UNL     1       4.310   6.604  17.713  0.00  0.00    +0.000 HD
ENDROOT
BRANCH   2   5
ATOM      5  C   UNL     1       6.731   5.813  18.076  0.00  0.00    +0.000 C 
ATOM      6  C   UNL     1       7.888   6.249  18.977  0.00  0.00    +0.000 C 
BRANCH   5   7
ATOM      7  O   UNL     1       6.996   4.573  17.419  0.00  0.00    +0.000 OA
BRANCH   7   8
ATOM      8  C   UNL     1       6.653   4.419  16.104  0.00  0.00    +0.000 A 
ATOM      9  C   UNL     1       7.412   4.889  15.032  0.00  0.00    +0.000 A 
ATOM     10  C   UNL     1       7.015   4.634  13.715  0.00  0.00    +0.000 A 
ATOM     11  C   UNL     1       5.848   3.919  13.465  0.00  0.00    +0.000 A 
ATOM     12 CL   UNL     1       5.364   3.623  11.841  0.00  0.00    +0.000 Cl
ATOM     13  C   UNL     1       5.074   3.446  14.518  0.00  0.00    +0.000 A 
ATOM     14  C   UNL     1       5.481   3.689  15.833  0.00  0.00    +0.000 A 
ATOM     15 CL   UNL     1       4.483   3.087  17.111  0.00  0.00    +0.000 Cl
ENDBRANCH   7   8
ENDBRANCH   5   7
ENDBRANCH   2   5
BRANCH   1  16
ATOM     16  C   UNL     1       3.124   6.145  19.408  0.00  0.00    +0.000 C 
BRANCH  16  17
ATOM     17  C   UNL     1       2.321   7.431  19.278  0.00  0.00    +0.000 A 
ATOM     18  C   UNL     1       2.213   8.076  18.033  0.00  0.00    +0.000 A 
ATOM     19  C   UNL     1       1.492   9.266  17.908  0.00  0.00    +0.000 A 
ATOM     20  C   UNL     1       0.873   9.815  19.025  0.00  0.00    +0.000 A 
ATOM     21  F   UNL     1       0.187  10.959  18.905  0.00  0.00    +0.000 F 
ATOM     22  C   UNL     1       0.961   9.197  20.263  0.00  0.00    +0.000 A 
ATOM     23  C   UNL     1       1.685   8.010  20.391  0.00  0.00    +0.000 A 
ENDBRANCH  16  17
BRANCH  16  24
ATOM     24  C   UNL     1       2.263   4.885  19.154  0.00  0.00    +0.000 C 
BRANCH  24  25
ATOM     25  C   UNL     1       1.662   4.328  20.451  0.00  0.00    +0.000 C 
BRANCH  25  27
ATOM     26  C   UNL     1       0.950   2.583  18.805  0.00  0.00    +0.000 C 
ATOM     27  C   UNL     1       1.129   2.907  20.280  0.00  0.00    +0.000 C 
ENDBRANCH  25  27
ENDBRANCH  24  25
ENDBRANCH  16  24
ENDBRANCH   1  16
TORSDOF 8
ENDMDL
MODEL 5
REMARK VINA RESULT:      -7.1      3.744      7.327
REMARK  Name = 
REMARK  10 active torsions:
REMARK  status: ('A' for Active; 'I' for Inactive)
REMARK    1  A    between atoms: C_1  and  C_2
REMARK    2  A    between atoms: C_2  and  C_3
REMARK    3  A    between atoms: C_3  and  C_4
REMARK    4  A    between atoms: C_4  and  C_5
REMARK    5  A    between atoms: C_5  and  N_6
REMARK    6  A    between atoms: C_5  and  C_20
REMARK    7  A    between atoms: C_7  and  C_9
REMARK    8  A    between atoms: C_9  and  C_10
REMARK    9  A    between atoms: C_9  and  O_11
REMARK   10  A    between atoms: O_11  and  C_12
REMARK                            x       y       z     vdW  Elec       q    Type
REMARK                         _______ _______ _______ _____ _____    ______ ____
ROOT
ATOM      1  N   UNL     1       4.987   6.414  17.918  0.00  0.00    +0.000 N 
ATOM      2  C   UNL     1       5.836   6.762  16.880  0.00  0.00    +0.000 C 
ATOM      3  O   UNL     1       5.449   7.309  15.850  0.00  0.00    +0.000 OA
ATOM      4  H   UNL     1       5.404   6.177  18.809  0.00  0.00    +0.000 HD
ENDROOT
BRANCH   2   5
ATOM      5  C   UNL     1       7.299   6.351  17.078  0.00  0.00    +0.000 C 
ATOM      6  C   UNL     1       7.630   6.551  18.559  0.00  0.00    +0.000 C 
BRANCH   5   7
ATOM      7  O   UNL     1       7.353   4.977  16.695  0.00  0.00    +0.000 OA
BRANCH   7   8
ATOM      8  C   UNL     1       6.887   4.601  15.465  0.00  0.00    +0.000 A 
ATOM      9  C   UNL     1       7.483   4.958  14.254  0.00  0.00    +0.000 A 
ATOM     10  C   UNL     1       6.973   4.479  13.043  0.00  0.00    +0.000 A 
ATOM     11  C   UNL     1       5.856   3.650  13.037  0.00  0.00    +0.000 A 
ATOM     12 CL   UNL     1       5.231   3.078  11.540  0.00  0.00    +0.000 Cl
ATOM     13  C   UNL     1       5.244   3.286  14.230  0.00  0.00    +0.000 A 
ATOM     14  C   UNL     1       5.764   3.754  15.440  0.00  0.00    +0.000 A 
ATOM     15 CL   UNL     1       4.966   3.279  16.900  0.00  0.00    +0.000 Cl
ENDBRANCH   7   8
ENDBRANCH   5   7
ENDBRANCH   2   5
BRANCH   1  16
ATOM     16  C   UNL     1       3.543   6.644  17.911  0.00  0.00    +0.000 C 
BRANCH  16  17
ATOM     17  C   UNL     1       2.798   5.552  18.665  0.00  0.00    +0.000 A 
ATOM     18  C   UNL     1       2.948   5.425  20.058  0.00  0.00    +0.000 A 
ATOM     19  C   UNL     1       2.281   4.415  20.756  0.00  0.00    +0.000 A 
ATOM     20  C   UNL     1       1.460   3.530  20.067  0.00  0.00    +0.000 A 
ATOM     21  F   UNL     1       0.827   2.559  20.737  0.00  0.00    +0.000 F 
ATOM     22  C   UNL     1       1.293   3.636  18.694  0.00  0.00    +0.000 A 
ATOM     23  C   UNL     1       1.962   4.642  17.995  0.00  0.00    +0.000 A 
ENDBRANCH  16  17
BRANCH  16  24
ATOM     24  C   UNL     1       3.103   8.064  18.344  0.00  0.00    +0.000 C 
BRANCH  24  25
ATOM     25  C   UNL     1       1.843   8.526  17.602  0.00  0.00    +0.000 C 
BRANCH  25  27
ATOM     26  C   UNL     1       1.142   9.186  19.912  0.00  0.00    +0.000 C 
ATOM     27  C   UNL     1       1.008   9.501  18.429  0.00  0.00    +0.000 C 
ENDBRANCH  25  27
ENDBRANCH  24  25
ENDBRANCH  16  24
ENDBRANCH   1  16
TORSDOF 8
ENDMDL
MODEL 6
REMARK VINA RESULT:      -7.1      4.188      7.796
REMARK  Name = 
REMARK  10 active torsions:
REMARK  status: ('A' for Active; 'I' for Inactive)
REMARK    1  A    between atoms: C_1  and  C_2
REMARK    2  A    between atoms: C_2  and  C_3
REMARK    3  A    between atoms: C_3  and  C_4
REMARK    4  A    between atoms: C_4  and  C_5
REMARK    5  A    between atoms: C_5  and  N_6
REMARK    6  A    between atoms: C_5  and  C_20
REMARK    7  A    between atoms: C_7  and  C_9
REMARK    8  A    between atoms: C_9  and  C_10
REMARK    9  A    between atoms: C_9  and  O_11
REMARK   10  A    between atoms: O_11  and  C_12
REMARK                            x       y       z     vdW  Elec       q    Type
REMARK                         _______ _______ _______ _____ _____    ______ ____
ROOT
ATOM      1  N   UNL     1       4.447   6.641  17.470  0.00  0.00    +0.000 N 
ATOM      2  C   UNL     1       5.747   6.186  17.616  0.00  0.00    +0.000 C 
ATOM      3  O   UNL     1       6.092   5.407  18.501  0.00  0.00    +0.000 OA
ATOM      4  H   UNL     1       4.200   7.093  16.599  0.00  0.00    +0.000 HD
ENDROOT
BRANCH   2   5
ATOM      5  C   UNL     1       6.753   6.781  16.624  0.00  0.00    +0.000 C 
ATOM      6  C   UNL     1       7.684   7.701  17.417  0.00  0.00    +0.000 C 
BRANCH   5   7
ATOM      7  O   UNL     1       7.444   5.656  16.078  0.00  0.00    +0.000 OA
BRANCH   7   8
ATOM      8  C   UNL     1       6.865   4.931  15.074  0.00  0.00    +0.000 A 
ATOM      9  C   UNL     1       5.716   4.154  15.225  0.00  0.00    +0.000 A 
ATOM     10  C   UNL     1       5.158   3.491  14.128  0.00  0.00    +0.000 A 
ATOM     11  C   UNL     1       5.755   3.592  12.875  0.00  0.00    +0.000 A 
ATOM     12 CL   UNL     1       5.065   2.761  11.536  0.00  0.00    +0.000 Cl
ATOM     13  C   UNL     1       6.902   4.356  12.703  0.00  0.00    +0.000 A 
ATOM     14  C   UNL     1       7.450   5.030  13.798  0.00  0.00    +0.000 A 
ATOM     15 CL   UNL     1       8.882   5.964  13.537  0.00  0.00    +0.000 Cl
ENDBRANCH   7   8
ENDBRANCH   5   7
ENDBRANCH   2   5
BRANCH   1  16
ATOM     16  C   UNL     1       3.341   6.262  18.348  0.00  0.00    +0.000 C 
BRANCH  16  17
ATOM     17  C   UNL     1       2.482   7.463  18.717  0.00  0.00    +0.000 A 
ATOM     18  C   UNL     1       1.994   7.608  20.029  0.00  0.00    +0.000 A 
ATOM     19  C   UNL     1       1.192   8.699  20.372  0.00  0.00    +0.000 A 
ATOM     20  C   UNL     1       0.876   9.650  19.410  0.00  0.00    +0.000 A 
ATOM     21  F   UNL     1       0.102  10.692  19.740  0.00  0.00    +0.000 F 
ATOM     22  C   UNL     1       1.348   9.533  18.111  0.00  0.00    +0.000 A 
ATOM     23  C   UNL     1       2.146   8.441  17.765  0.00  0.00    +0.000 A 
ENDBRANCH  16  17
BRANCH  16  24
ATOM     24  C   UNL     1       2.495   5.062  17.856  0.00  0.00    +0.000 C 
BRANCH  24  25
ATOM     25  C   UNL     1       2.714   3.813  18.718  0.00  0.00    +0.000 C 
BRANCH  25  27
ATOM     26  C   UNL     1       1.377   3.619  20.824  0.00  0.00    +0.000 C 
ATOM     27  C   UNL     1       2.675   4.125  20.213  0.00  0.00    +0.000 C 
ENDBRANCH  25  27
ENDBRANCH  24  25
ENDBRANCH  16  24
ENDBRANCH   1  16
TORSDOF 8
ENDMDL
MODEL 7
REMARK VINA RESULT:      -7.0      1.634      2.480
REMARK  Name = 
REMARK  10 active torsions:
REMARK  status: ('A' for Active; 'I' for Inactive)
REMARK    1  A    between atoms: C_1  and  C_2
REMARK    2  A    between atoms: C_2  and  C_3
REMARK    3  A    between atoms: C_3  and  C_4
REMARK    4  A    between atoms: C_4  and  C_5
REMARK    5  A    between atoms: C_5  and  N_6
REMARK    6  A    between atoms: C_5  and  C_20
REMARK    7  A    between atoms: C_7  and  C_9
REMARK    8  A    between atoms: C_9  and  C_10
REMARK    9  A    between atoms: C_9  and  O_11
REMARK   10  A    between atoms: O_11  and  C_12
REMARK                            x       y       z     vdW  Elec       q    Type
REMARK                         _______ _______ _______ _____ _____    ______ ____
ROOT
ATOM      1  N   UNL     1       5.397   4.031  17.023  0.00  0.00    +0.000 N 
ATOM      2  C   UNL     1       5.208   3.761  18.369  0.00  0.00    +0.000 C 
ATOM      3  O   UNL     1       5.919   4.228  19.255  0.00  0.00    +0.000 OA
ATOM      4  H   UNL     1       4.647   3.795  16.386  0.00  0.00    +0.000 HD
ENDROOT
BRANCH   2   5
ATOM      5  C   UNL     1       4.076   2.772  18.676  0.00  0.00    +0.000 C 
ATOM      6  C   UNL     1       4.161   2.433  20.165  0.00  0.00    +0.000 C 
BRANCH   5   7
ATOM      7  O   UNL     1       2.875   3.473  18.350  0.00  0.00    +0.000 OA
BRANCH   7   8
ATOM      8  C   UNL     1       2.559   4.619  19.024  0.00  0.00    +0.000 A 
ATOM      9  C   UNL     1       3.047   5.886  18.698  0.00  0.00    +0.000 A 
ATOM     10  C   UNL     1       2.623   7.014  19.407  0.00  0.00    +0.000 A 
ATOM     11  C   UNL     1       1.717   6.880  20.455  0.00  0.00    +0.000 A 
ATOM     12 CL   UNL     1       1.213   8.274  21.327  0.00  0.00    +0.000 Cl
ATOM     13  C   UNL     1       1.223   5.628  20.800  0.00  0.00    +0.000 A 
ATOM     14  C   UNL     1       1.636   4.503  20.081  0.00  0.00    +0.000 A 
ATOM     15 CL   UNL     1       0.998   2.965  20.549  0.00  0.00    +0.000 Cl
ENDBRANCH   7   8
ENDBRANCH   5   7
ENDBRANCH   2   5
BRANCH   1  16
ATOM     16  C   UNL     1       6.459   4.887  16.499  0.00  0.00    +0.000 C 
BRANCH  16  17
ATOM     17  C   UNL     1       6.683   4.653  15.012  0.00  0.00    +0.000 A 
ATOM     18  C   UNL     1       7.655   5.396  14.317  0.00  0.00    +0.000 A 
ATOM     19  C   UNL     1       7.856   5.199  12.949  0.00  0.00    +0.000 A 
ATOM     20  C   UNL     1       7.091   4.259  12.269  0.00  0.00    +0.000 A 
ATOM     21  F   UNL     1       7.282   4.077  10.956  0.00  0.00    +0.000 F 
ATOM     22  C   UNL     1       6.130   3.510  12.932  0.00  0.00    +0.000 A 
ATOM     23  C   UNL     1       5.924   3.709  14.298  0.00  0.00    +0.000 A 
ENDBRANCH  16  17
BRANCH  16  24
ATOM     24  C   UNL     1       6.321   6.389  16.845  0.00  0.00    +0.000 C 
BRANCH  24  25
ATOM     25  C   UNL     1       7.506   6.900  17.674  0.00  0.00    +0.000 C 
BRANCH  25  27
ATOM     26  C   UNL     1       8.669   8.909  18.608  0.00  0.00    +0.000 C 
ATOM     27  C   UNL     1       7.688   8.412  17.557  0.00  0.00    +0.000 C 
ENDBRANCH  25  27
ENDBRANCH  24  25
ENDBRANCH  16  24
ENDBRANCH   1  16
TORSDOF 8
ENDMDL
MODEL 8
REMARK VINA RESULT:      -7.0      3.284      4.871
REMARK  Name = 
REMARK  10 active torsions:
REMARK  status: ('A' for Active; 'I' for Inactive)
REMARK    1  A    between atoms: C_1  and  C_2
REMARK    2  A    between atoms: C_2  and  C_3
REMARK    3  A    between atoms: C_3  and  C_4
REMARK    4  A    between atoms: C_4  and  C_5
REMARK    5  A    between atoms: C_5  and  N_6
REMARK    6  A    between atoms: C_5  and  C_20
REMARK    7  A    between atoms: C_7  and  C_9
REMARK    8  A    between atoms: C_9  and  C_10
REMARK    9  A    between atoms: C_9  and  O_11
REMARK   10  A    between atoms: O_11  and  C_12
REMARK                            x       y       z     vdW  Elec       q    Type
REMARK                         _______ _______ _______ _____ _____    ______ ____
ROOT
ATOM      1  N   UNL     1       2.798   5.756  18.484  0.00  0.00    +0.000 N 
ATOM      2  C   UNL     1       2.414   7.057  18.763  0.00  0.00    +0.000 C 
ATOM      3  O   UNL     1       2.853   8.032  18.159  0.00  0.00    +0.000 OA
ATOM      4  H   UNL     1       2.234   5.006  18.863  0.00  0.00    +0.000 HD
ENDROOT
BRANCH   2   5
ATOM      5  C   UNL     1       1.439   7.203  19.938  0.00  0.00    +0.000 C 
ATOM      6  C   UNL     1       1.596   5.960  20.815  0.00  0.00    +0.000 C 
BRANCH   5   7
ATOM      7  O   UNL     1       1.850   8.394  20.612  0.00  0.00    +0.000 OA
BRANCH   7   8
ATOM      8  C   UNL     1       0.916   9.168  21.243  0.00  0.00    +0.000 A 
ATOM      9  C   UNL     1       0.482   8.966  22.554  0.00  0.00    +0.000 A 
ATOM     10  C   UNL     1      -0.435   9.844  23.141  0.00  0.00    +0.000 A 
ATOM     11  C   UNL     1      -0.933  10.921  22.414  0.00  0.00    +0.000 A 
ATOM     12 CL   UNL     1      -2.069  11.986  23.144  0.00  0.00    +0.000 Cl
ATOM     13  C   UNL     1      -0.518  11.137  21.106  0.00  0.00    +0.000 A 
ATOM     14  C   UNL     1       0.410  10.268  20.526  0.00  0.00    +0.000 A 
ATOM     15 CL   UNL     1       0.892  10.573  18.893  0.00  0.00    +0.000 Cl
ENDBRANCH   7   8
ENDBRANCH   5   7
ENDBRANCH   2   5
BRANCH   1  16
ATOM     16  C   UNL     1       3.770   5.389  17.455  0.00  0.00    +0.000 C 
BRANCH  16  17
ATOM     17  C   UNL     1       5.177   5.829  17.832  0.00  0.00    +0.000 A 
ATOM     18  C   UNL     1       5.815   5.274  18.957  0.00  0.00    +0.000 A 
ATOM     19  C   UNL     1       7.100   5.684  19.320  0.00  0.00    +0.000 A 
ATOM     20  C   UNL     1       7.755   6.646  18.560  0.00  0.00    +0.000 A 
ATOM     21  F   UNL     1       8.985   7.041  18.914  0.00  0.00    +0.000 F 
ATOM     22  C   UNL     1       7.151   7.205  17.444  0.00  0.00    +0.000 A 
ATOM     23  C   UNL     1       5.864   6.800  17.083  0.00  0.00    +0.000 A 
ENDBRANCH  16  17
BRANCH  16  24
ATOM     24  C   UNL     1       3.717   3.911  16.999  0.00  0.00    +0.000 C 
BRANCH  24  25
ATOM     25  C   UNL     1       2.804   3.065  17.896  0.00  0.00    +0.000 C 
BRANCH  25  27
ATOM     26  C   UNL     1       3.430   2.645  20.282  0.00  0.00    +0.000 C 
ATOM     27  C   UNL     1       3.594   2.168  18.846  0.00  0.00    +0.000 C 
ENDBRANCH  25  27
ENDBRANCH  24  25
ENDBRANCH  16  24
ENDBRANCH   1  16
TORSDOF 8
ENDMDL
MODEL 9
REMARK VINA RESULT:      -6.9      3.928      6.280
REMARK  Name = 
REMARK  10 active torsions:
REMARK  status: ('A' for Active; 'I' for Inactive)
REMARK    1  A    between atoms: C_1  and  C_2
REMARK    2  A    between atoms: C_2  and  C_3
REMARK    3  A    between atoms: C_3  and  C_4
REMARK    4  A    between atoms: C_4  and  C_5
REMARK    5  A    between atoms: C_5  and  N_6
REMARK    6  A    between atoms: C_5  and  C_20
REMARK    7  A    between atoms: C_7  and  C_9
REMARK    8  A    between atoms: C_9  and  C_10
REMARK    9  A    between atoms: C_9  and  O_11
REMARK   10  A    between atoms: O_11  and  C_12
REMARK                            x       y       z     vdW  Elec       q    Type
REMARK                         _______ _______ _______ _____ _____    ______ ____
ROOT
ATOM      1  N   UNL     1       1.430   7.914  19.523  0.00  0.00    +0.000 N 
ATOM      2  C   UNL     1       1.213   8.438  20.787  0.00  0.00    +0.000 C 
ATOM      3  O   UNL     1       1.998   8.288  21.720  0.00  0.00    +0.000 OA
ATOM      4  H   UNL     1       0.860   8.265  18.764  0.00  0.00    +0.000 HD
ENDROOT
BRANCH   2   5
ATOM      5  C   UNL     1      -0.123   9.168  20.962  0.00  0.00    +0.000 C 
ATOM      6  C   UNL     1      -0.258   9.520  22.445  0.00  0.00    +0.000 C 
BRANCH   5   7
ATOM      7  O   UNL     1      -0.019  10.331  20.139  0.00  0.00    +0.000 OA
BRANCH   7   8
ATOM      8  C   UNL     1      -0.962  10.564  19.178  0.00  0.00    +0.000 A 
ATOM      9  C   UNL     1      -1.013   9.905  17.948  0.00  0.00    +0.000 A 
ATOM     10  C   UNL     1      -2.050  10.165  17.046  0.00  0.00    +0.000 A 
ATOM     11  C   UNL     1      -3.034  11.095  17.365  0.00  0.00    +0.000 A 
ATOM     12 CL   UNL     1      -4.297  11.414  16.241  0.00  0.00    +0.000 Cl
ATOM     13  C   UNL     1      -3.000  11.767  18.580  0.00  0.00    +0.000 A 
ATOM     14  C   UNL     1      -1.971  11.495  19.487  0.00  0.00    +0.000 A 
ATOM     15 CL   UNL     1      -1.966  12.359  20.986  0.00  0.00    +0.000 Cl
ENDBRANCH   7   8
ENDBRANCH   5   7
ENDBRANCH   2   5
BRANCH   1  16
ATOM     16  C   UNL     1       2.602   7.122  19.152  0.00  0.00    +0.000 C 
BRANCH  16  17
ATOM     17  C   UNL     1       2.307   5.630  19.202  0.00  0.00    +0.000 A 
ATOM     18  C   UNL     1       2.543   4.901  20.383  0.00  0.00    +0.000 A 
ATOM     19  C   UNL     1       2.291   3.529  20.433  0.00  0.00    +0.000 A 
ATOM     20  C   UNL     1       1.799   2.878  19.308  0.00  0.00    +0.000 A 
ATOM     21  F   UNL     1       1.564   1.560  19.357  0.00  0.00    +0.000 F 
ATOM     22  C   UNL     1       1.554   3.574  18.133  0.00  0.00    +0.000 A 
ATOM     23  C   UNL     1       1.810   4.945  18.080  0.00  0.00    +0.000 A 
ENDBRANCH  16  17
BRANCH  16  24
ATOM     24  C   UNL     1       3.286   7.543  17.829  0.00  0.00    +0.000 C 
BRANCH  24  25
ATOM     25  C   UNL     1       4.682   6.926  17.681  0.00  0.00    +0.000 C 
BRANCH  25  27
ATOM     26  C   UNL     1       5.041   4.882  16.284  0.00  0.00    +0.000 C 
ATOM     27  C   UNL     1       4.938   6.400  16.271  0.00  0.00    +0.000 C 
ENDBRANCH  25  27
ENDBRANCH  24  25
ENDBRANCH  16  24
ENDBRANCH   1  16
TORSDOF 8
ENDMDL
