MODEL 1
REMARK VINA RESULT:      -6.1      0.000      0.000
REMARK  Name = 
REMARK  5 active torsions:
REMARK  status: ('A' for Active; 'I' for Inactive)
REMARK    1  A    between atoms: C_1  and  C_2
REMARK    2  A    between atoms: C_2  and  C_3
REMARK    3  A    between atoms: C_2  and  N_11
REMARK    4  A    between atoms: C_5  and  C_6
REMARK    5  A    between atoms: N_11  and  O_12
REMARK                            x       y       z     vdW  Elec       q    Type
REMARK                         _______ _______ _______ _____ _____    ______ ____
ROOT
ATOM      1  C   UNL     1       6.377   4.228  16.527  0.00  0.00    +0.000 C 
ATOM      2  C   UNL     1       5.927   5.439  17.344  0.00  0.00    +0.000 C 
ENDROOT
BRANCH   2   3
ATOM      3  N   UNL     1       7.048   5.901  18.179  0.00  0.00    +0.000 N 
ATOM      4  C   UNL     1       7.669   7.115  17.984  0.00  0.00    +0.000 C 
ATOM      5  N   UNL     1       8.556   7.450  18.958  0.00  0.00    +0.000 N 
ATOM      6  O   UNL     1       7.514   7.839  17.007  0.00  0.00    +0.000 OA
ATOM      7  H   UNL     1       8.817   6.754  19.637  0.00  0.00    +0.000 HD
ATOM      8  H   UNL     1       9.136   8.262  18.809  0.00  0.00    +0.000 HD
BRANCH   3   9
ATOM      9  O   UNL     1       7.032   5.392  19.499  0.00  0.00    +0.000 OA
ATOM     10  H   UNL     1       7.108   4.435  19.333  0.00  0.00    +0.000 HD
ENDBRANCH   3   9
ENDBRANCH   2   3
BRANCH   2  11
ATOM     11  C   UNL     1       4.673   5.234  18.167  0.00  0.00    +0.000 C 
ATOM     12  C   UNL     1       3.617   6.299  18.226  0.00  0.00    +0.000 C 
ATOM     13  C   UNL     1       3.299   4.982  17.552  0.00  0.00    +0.000 C 
BRANCH  13  14
ATOM     14  C   UNL     1       2.369   3.988  18.226  0.00  0.00    +0.000 A 
ATOM     15  C   UNL     1       2.135   2.673  17.879  0.00  0.00    +0.000 A 
ATOM     16  C   UNL     1       1.172   2.180  18.793  0.00  0.00    +0.000 A 
ATOM     17  C   UNL     1       0.885   3.223  19.642  0.00  0.00    +0.000 A 
ATOM     18  O   UNL     1       1.615   4.319  19.314  0.00  0.00    +0.000 OA
ENDBRANCH  13  14
ENDBRANCH   2  11
TORSDOF 4
ENDMDL
MODEL 2
REMARK VINA RESULT:      -6.1      0.945      1.735
REMARK  Name = 
REMARK  5 active torsions:
REMARK  status: ('A' for Active; 'I' for Inactive)
REMARK    1  A    between atoms: C_1  and  C_2
REMARK    2  A    between atoms: C_2  and  C_3
REMARK    3  A    between atoms: C_2  and  N_11
REMARK    4  A    between atoms: C_5  and  C_6
REMARK    5  A    between atoms: N_11  and  O_12
REMARK                            x       y       z     vdW  Elec       q    Type
REMARK                         _______ _______ _______ _____ _____    ______ ____
ROOT
ATOM      1  C   UNL     1       5.908   4.291  16.401  0.00  0.00    +0.000 C 
ATOM      2  C   UNL     1       5.395   5.546  17.107  0.00  0.00    +0.000 C 
ENDROOT
BRANCH   2   3
ATOM      3  N   UNL     1       6.535   6.276  17.683  0.00  0.00    +0.000 N 
ATOM      4  C   UNL     1       7.146   5.895  18.857  0.00  0.00    +0.000 C 
ATOM      5  N   UNL     1       8.289   6.575  19.138  0.00  0.00    +0.000 N 
ATOM      6  O   UNL     1       6.707   5.062  19.644  0.00  0.00    +0.000 OA
ATOM      7  H   UNL     1       8.517   7.388  18.590  0.00  0.00    +0.000 HD
ATOM      8  H   UNL     1       8.712   6.433  20.043  0.00  0.00    +0.000 HD
BRANCH   3   9
ATOM      9  O   UNL     1       7.340   6.938  16.726  0.00  0.00    +0.000 OA
ATOM     10  H   UNL     1       8.081   6.311  16.636  0.00  0.00    +0.000 HD
ENDBRANCH   3   9
ENDBRANCH   2   3
BRANCH   2  11
ATOM     11  C   UNL     1       4.312   5.310  18.138  0.00  0.00    +0.000 C 
ATOM     12  C   UNL     1       3.396   6.425  18.552  0.00  0.00    +0.000 C 
ATOM     13  C   UNL     1       2.826   5.245  17.794  0.00  0.00    +0.000 C 
BRANCH  13  14
ATOM     14  C   UNL     1       1.954   4.231  18.512  0.00  0.00    +0.000 A 
ATOM     15  C   UNL     1       1.489   4.276  19.810  0.00  0.00    +0.000 A 
ATOM     16  C   UNL     1       0.743   3.091  20.014  0.00  0.00    +0.000 A 
ATOM     17  C   UNL     1       0.795   2.400  18.826  0.00  0.00    +0.000 A 
ATOM     18  O   UNL     1       1.516   3.089  17.906  0.00  0.00    +0.000 OA
ENDBRANCH  13  14
ENDBRANCH   2  11
TORSDOF 4
ENDMDL
MODEL 3
REMARK VINA RESULT:      -6.1      1.353      1.522
REMARK  Name = 
REMARK  5 active torsions:
REMARK  status: ('A' for Active; 'I' for Inactive)
REMARK    1  A    between atoms: C_1  and  C_2
REMARK    2  A    between atoms: C_2  and  C_3
REMARK    3  A    between atoms: C_2  and  N_11
REMARK    4  A    between atoms: C_5  and  C_6
REMARK    5  A    between atoms: N_11  and  O_12
REMARK                            x       y       z     vdW  Elec       q    Type
REMARK                         _______ _______ _______ _____ _____    ______ ____
ROOT
ATOM      1  C   UNL     1       5.547   5.777  16.453  0.00  0.00    +0.000 C 
ATOM      2  C   UNL     1       5.421   6.100  17.941  0.00  0.00    +0.000 C 
ENDROOT
BRANCH   2   3
ATOM      3  N   UNL     1       6.475   5.386  18.681  0.00  0.00    +0.000 N 
ATOM      4  C   UNL     1       7.666   5.978  19.038  0.00  0.00    +0.000 C 
ATOM      5  N   UNL     1       8.435   5.227  19.869  0.00  0.00    +0.000 N 
ATOM      6  O   UNL     1       8.069   7.060  18.624  0.00  0.00    +0.000 OA
ATOM      7  H   UNL     1       8.181   4.266  20.029  0.00  0.00    +0.000 HD
ATOM      8  H   UNL     1       9.372   5.548  20.063  0.00  0.00    +0.000 HD
BRANCH   3   9
ATOM      9  O   UNL     1       5.991   4.357  19.524  0.00  0.00    +0.000 OA
ATOM     10  H   UNL     1       6.097   3.577  18.949  0.00  0.00    +0.000 HD
ENDBRANCH   3   9
ENDBRANCH   2   3
BRANCH   2  11
ATOM     11  C   UNL     1       4.056   5.850  18.544  0.00  0.00    +0.000 C 
ATOM     12  C   UNL     1       2.869   6.660  18.110  0.00  0.00    +0.000 C 
ATOM     13  C   UNL     1       2.913   5.182  17.784  0.00  0.00    +0.000 C 
BRANCH  13  14
ATOM     14  C   UNL     1       2.010   4.213  18.526  0.00  0.00    +0.000 A 
ATOM     15  C   UNL     1       1.664   4.227  19.862  0.00  0.00    +0.000 A 
ATOM     16  C   UNL     1       0.825   3.106  20.073  0.00  0.00    +0.000 A 
ATOM     17  C   UNL     1       0.709   2.483  18.852  0.00  0.00    +0.000 A 
ATOM     18  O   UNL     1       1.413   3.154  17.906  0.00  0.00    +0.000 OA
ENDBRANCH  13  14
ENDBRANCH   2  11
TORSDOF 4
ENDMDL
MODEL 4
REMARK VINA RESULT:      -6.1      2.009      2.477
REMARK  Name = 
REMARK  5 active torsions:
REMARK  status: ('A' for Active; 'I' for Inactive)
REMARK    1  A    between atoms: C_1  and  C_2
REMARK    2  A    between atoms: C_2  and  C_3
REMARK    3  A    between atoms: C_2  and  N_11
REMARK    4  A    between atoms: C_5  and  C_6
REMARK    5  A    between atoms: N_11  and  O_12
REMARK                            x       y       z     vdW  Elec       q    Type
REMARK                         _______ _______ _______ _____ _____    ______ ____
ROOT
ATOM      1  C   UNL     1       6.920   5.796  19.305  0.00  0.00    +0.000 C 
ATOM      2  C   UNL     1       6.415   4.588  18.517  0.00  0.00    +0.000 C 
ENDROOT
BRANCH   2   3
ATOM      3  N   UNL     1       6.951   4.646  17.147  0.00  0.00    +0.000 N 
ATOM      4  C   UNL     1       6.703   5.700  16.296  0.00  0.00    +0.000 C 
ATOM      5  N   UNL     1       7.424   5.668  15.144  0.00  0.00    +0.000 N 
ATOM      6  O   UNL     1       5.872   6.581  16.486  0.00  0.00    +0.000 OA
ATOM      7  H   UNL     1       7.943   4.835  14.919  0.00  0.00    +0.000 HD
ATOM      8  H   UNL     1       7.195   6.338  14.426  0.00  0.00    +0.000 HD
BRANCH   3   9
ATOM      9  O   UNL     1       8.176   3.957  16.977  0.00  0.00    +0.000 OA
ATOM     10  H   UNL     1       7.891   3.195  16.441  0.00  0.00    +0.000 HD
ENDBRANCH   3   9
ENDBRANCH   2   3
BRANCH   2  11
ATOM     11  C   UNL     1       4.913   4.399  18.514  0.00  0.00    +0.000 C 
ATOM     12  C   UNL     1       4.256   3.518  17.492  0.00  0.00    +0.000 C 
ATOM     13  C   UNL     1       4.229   3.105  18.948  0.00  0.00    +0.000 C 
BRANCH  13  14
ATOM     14  C   UNL     1       2.936   3.192  19.739  0.00  0.00    +0.000 A 
ATOM     15  C   UNL     1       2.711   2.808  21.045  0.00  0.00    +0.000 A 
ATOM     16  C   UNL     1       1.345   3.065  21.311  0.00  0.00    +0.000 A 
ATOM     17  C   UNL     1       0.824   3.595  20.154  0.00  0.00    +0.000 A 
ATOM     18  O   UNL     1       1.785   3.687  19.200  0.00  0.00    +0.000 OA
ENDBRANCH  13  14
ENDBRANCH   2  11
TORSDOF 4
ENDMDL
MODEL 5
REMARK VINA RESULT:      -6.1      1.272      1.556
REMARK  Name = 
REMARK  5 active torsions:
REMARK  status: ('A' for Active; 'I' for Inactive)
REMARK    1  A    between atoms: C_1  and  C_2
REMARK    2  A    between atoms: C_2  and  C_3
REMARK    3  A    between atoms: C_2  and  N_11
REMARK    4  A    between atoms: C_5  and  C_6
REMARK    5  A    between atoms: N_11  and  O_12
REMARK                            x       y       z     vdW  Elec       q    Type
REMARK                         _______ _______ _______ _____ _____    ______ ____
ROOT
ATOM      1  C   UNL     1       5.397   4.194  16.503  0.00  0.00    +0.000 C 
ATOM      2  C   UNL     1       5.193   5.371  17.457  0.00  0.00    +0.000 C 
ENDROOT
BRANCH   2   3
ATOM      3  N   UNL     1       6.444   5.616  18.194  0.00  0.00    +0.000 N 
ATOM      4  C   UNL     1       7.273   6.681  17.919  0.00  0.00    +0.000 C 
ATOM      5  N   UNL     1       8.280   6.850  18.815  0.00  0.00    +0.000 N 
ATOM      6  O   UNL     1       7.187   7.407  16.934  0.00  0.00    +0.000 OA
ATOM      7  H   UNL     1       8.452   6.126  19.494  0.00  0.00    +0.000 HD
ATOM      8  H   UNL     1       8.994   7.530  18.600  0.00  0.00    +0.000 HD
BRANCH   3   9
ATOM      9  O   UNL     1       6.430   5.140  19.527  0.00  0.00    +0.000 OA
ATOM     10  H   UNL     1       6.996   4.351  19.451  0.00  0.00    +0.000 HD
ENDBRANCH   3   9
ENDBRANCH   2   3
BRANCH   2  11
ATOM     11  C   UNL     1       4.013   5.245  18.397  0.00  0.00    +0.000 C 
ATOM     12  C   UNL     1       2.616   5.489  17.905  0.00  0.00    +0.000 C 
ATOM     13  C   UNL     1       3.013   4.094  18.337  0.00  0.00    +0.000 C 
BRANCH  13  14
ATOM     14  C   UNL     1       2.481   3.522  19.639  0.00  0.00    +0.000 A 
ATOM     15  C   UNL     1       1.176   3.504  20.090  0.00  0.00    +0.000 A 
ATOM     16  C   UNL     1       1.197   2.887  21.364  0.00  0.00    +0.000 A 
ATOM     17  C   UNL     1       2.512   2.562  21.607  0.00  0.00    +0.000 A 
ATOM     18  O   UNL     1       3.294   2.932  20.562  0.00  0.00    +0.000 OA
ENDBRANCH  13  14
ENDBRANCH   2  11
TORSDOF 4
ENDMDL
MODEL 6
REMARK VINA RESULT:      -6.0      2.092      2.818
REMARK  Name = 
REMARK  5 active torsions:
REMARK  status: ('A' for Active; 'I' for Inactive)
REMARK    1  A    between atoms: C_1  and  C_2
REMARK    2  A    between atoms: C_2  and  C_3
REMARK    3  A    between atoms: C_2  and  N_11
REMARK    4  A    between atoms: C_5  and  C_6
REMARK    5  A    between atoms: N_11  and  O_12
REMARK                            x       y       z     vdW  Elec       q    Type
REMARK                         _______ _______ _______ _____ _____    ______ ____
ROOT
ATOM      1  C   UNL     1       4.887   7.307  17.690  0.00  0.00    +0.000 C 
ATOM      2  C   UNL     1       5.328   5.889  17.329  0.00  0.00    +0.000 C 
ENDROOT
BRANCH   2   3
ATOM      3  N   UNL     1       6.065   5.923  16.054  0.00  0.00    +0.000 N 
ATOM      4  C   UNL     1       7.178   5.147  15.818  0.00  0.00    +0.000 C 
ATOM      5  N   UNL     1       7.615   5.176  14.532  0.00  0.00    +0.000 N 
ATOM      6  O   UNL     1       7.793   4.515  16.671  0.00  0.00    +0.000 OA
ATOM      7  H   UNL     1       7.224   5.857  13.901  0.00  0.00    +0.000 HD
ATOM      8  H   UNL     1       8.498   4.734  14.323  0.00  0.00    +0.000 HD
BRANCH   3   9
ATOM      9  O   UNL     1       5.267   6.259  14.935  0.00  0.00    +0.000 OA
ATOM     10  H   UNL     1       4.373   6.221  15.322  0.00  0.00    +0.000 HD
ENDBRANCH   3   9
ENDBRANCH   2   3
BRANCH   2  11
ATOM     11  C   UNL     1       4.223   4.855  17.300  0.00  0.00    +0.000 C 
ATOM     12  C   UNL     1       4.519   3.431  16.929  0.00  0.00    +0.000 C 
ATOM     13  C   UNL     1       4.082   3.749  18.342  0.00  0.00    +0.000 C 
BRANCH  13  14
ATOM     14  C   UNL     1       2.691   3.362  18.812  0.00  0.00    +0.000 A 
ATOM     15  C   UNL     1       2.024   3.794  19.941  0.00  0.00    +0.000 A 
ATOM     16  C   UNL     1       0.775   3.129  19.951  0.00  0.00    +0.000 A 
ATOM     17  C   UNL     1       0.755   2.339  18.825  0.00  0.00    +0.000 A 
ATOM     18  O   UNL     1       1.908   2.484  18.123  0.00  0.00    +0.000 OA
ENDBRANCH  13  14
ENDBRANCH   2  11
TORSDOF 4
ENDMDL
MODEL 7
REMARK VINA RESULT:      -6.0      1.782      2.103
REMARK  Name = 
REMARK  5 active torsions:
REMARK  status: ('A' for Active; 'I' for Inactive)
REMARK    1  A    between atoms: C_1  and  C_2
REMARK    2  A    between atoms: C_2  and  C_3
REMARK    3  A    between atoms: C_2  and  N_11
REMARK    4  A    between atoms: C_5  and  C_6
REMARK    5  A    between atoms: N_11  and  O_12
REMARK                            x       y       z     vdW  Elec       q    Type
REMARK                         _______ _______ _______ _____ _____    ______ ____
ROOT
ATOM      1  C   UNL     1       4.556   5.885  16.198  0.00  0.00    +0.000 C 
ATOM      2  C   UNL     1       4.996   5.852  17.662  0.00  0.00    +0.000 C 
ENDROOT
BRANCH   2   3
ATOM      3  N   UNL     1       6.082   4.870  17.817  0.00  0.00    +0.000 N 
ATOM      4  C   UNL     1       7.384   5.139  17.459  0.00  0.00    +0.000 C 
ATOM      5  N   UNL     1       8.275   4.186  17.841  0.00  0.00    +0.000 N 
ATOM      6  O   UNL     1       7.751   6.107  16.803  0.00  0.00    +0.000 OA
ATOM      7  H   UNL     1       7.927   3.310  18.194  0.00  0.00    +0.000 HD
ATOM      8  H   UNL     1       9.221   4.260  17.498  0.00  0.00    +0.000 HD
BRANCH   3   9
ATOM      9  O   UNL     1       5.882   3.953  18.877  0.00  0.00    +0.000 OA
ATOM     10  H   UNL     1       5.225   3.351  18.484  0.00  0.00    +0.000 HD
ENDBRANCH   3   9
ENDBRANCH   2   3
BRANCH   2  11
ATOM     11  C   UNL     1       3.888   5.614  18.665  0.00  0.00    +0.000 C 
ATOM     12  C   UNL     1       2.470   5.983  18.338  0.00  0.00    +0.000 C 
ATOM     13  C   UNL     1       2.833   4.523  18.506  0.00  0.00    +0.000 C 
BRANCH  13  14
ATOM     14  C   UNL     1       2.376   3.763  19.739  0.00  0.00    +0.000 A 
ATOM     15  C   UNL     1       1.104   3.688  20.268  0.00  0.00    +0.000 A 
ATOM     16  C   UNL     1       1.197   2.884  21.430  0.00  0.00    +0.000 A 
ATOM     17  C   UNL     1       2.518   2.515  21.532  0.00  0.00    +0.000 A 
ATOM     18  O   UNL     1       3.237   3.033  20.505  0.00  0.00    +0.000 OA
ENDBRANCH  13  14
ENDBRANCH   2  11
TORSDOF 4
ENDMDL
MODEL 8
REMARK VINA RESULT:      -5.9      0.878      1.110
REMARK  Name = 
REMARK  5 active torsions:
REMARK  status: ('A' for Active; 'I' for Inactive)
REMARK    1  A    between atoms: C_1  and  C_2
REMARK    2  A    between atoms: C_2  and  C_3
REMARK    3  A    between atoms: C_2  and  N_11
REMARK    4  A    between atoms: C_5  and  C_6
REMARK    5  A    between atoms: N_11  and  O_12
REMARK                            x       y       z     vdW  Elec       q    Type
REMARK                         _______ _______ _______ _____ _____    ______ ____
ROOT
ATOM      1  C   UNL     1       5.676   4.151  16.041  0.00  0.00    +0.000 C 
ATOM      2  C   UNL     1       5.447   5.306  17.015  0.00  0.00    +0.000 C 
ENDROOT
BRANCH   2   3
ATOM      3  N   UNL     1       6.733   5.688  17.622  0.00  0.00    +0.000 N 
ATOM      4  C   UNL     1       7.182   6.989  17.655  0.00  0.00    +0.000 C 
ATOM      5  N   UNL     1       8.296   7.176  18.411  0.00  0.00    +0.000 N 
ATOM      6  O   UNL     1       6.691   7.922  17.028  0.00  0.00    +0.000 OA
ATOM      7  H   UNL     1       8.796   6.368  18.745  0.00  0.00    +0.000 HD
ATOM      8  H   UNL     1       8.747   8.077  18.372  0.00  0.00    +0.000 HD
BRANCH   3   9
ATOM      9  O   UNL     1       7.150   4.837  18.673  0.00  0.00    +0.000 OA
ATOM     10  H   UNL     1       7.218   5.469  19.411  0.00  0.00    +0.000 HD
ENDBRANCH   3   9
ENDBRANCH   2   3
BRANCH   2  11
ATOM     11  C   UNL     1       4.389   5.062  18.070  0.00  0.00    +0.000 C 
ATOM     12  C   UNL     1       3.566   6.199  18.603  0.00  0.00    +0.000 C 
ATOM     13  C   UNL     1       2.891   5.120  17.784  0.00  0.00    +0.000 C 
BRANCH  13  14
ATOM     14  C   UNL     1       1.980   4.111  18.461  0.00  0.00    +0.000 A 
ATOM     15  C   UNL     1       1.541   4.105  19.769  0.00  0.00    +0.000 A 
ATOM     16  C   UNL     1       0.737   2.950  19.920  0.00  0.00    +0.000 A 
ATOM     17  C   UNL     1       0.733   2.327  18.694  0.00  0.00    +0.000 A 
ATOM     18  O   UNL     1       1.473   3.030  17.801  0.00  0.00    +0.000 OA
ENDBRANCH  13  14
ENDBRANCH   2  11
TORSDOF 4
ENDMDL
MODEL 9
REMARK VINA RESULT:      -5.9      2.031      2.762
REMARK  Name = 
REMARK  5 active torsions:
REMARK  status: ('A' for Active; 'I' for Inactive)
REMARK    1  A    between atoms: C_1  and  C_2
REMARK    2  A    between atoms: C_2  and  C_3
REMARK    3  A    between atoms: C_2  and  N_11
REMARK    4  A    between atoms: C_5  and  C_6
REMARK    5  A    between atoms: N_11  and  O_12
REMARK                            x       y       z     vdW  Elec       q    Type
REMARK                         _______ _______ _______ _____ _____    ______ ____
ROOT
ATOM      1  C   UNL     1       7.614   5.633  19.016  0.00  0.00    +0.000 C 
ATOM      2  C   UNL     1       6.651   5.032  17.993  0.00  0.00    +0.000 C 
ENDROOT
BRANCH   2   3
ATOM      3  N   UNL     1       6.976   5.559  16.657  0.00  0.00    +0.000 N 
ATOM      4  C   UNL     1       6.829   4.814  15.508  0.00  0.00    +0.000 C 
ATOM      5  N   UNL     1       7.004   5.520  14.360  0.00  0.00    +0.000 N 
ATOM      6  O   UNL     1       6.619   3.607  15.470  0.00  0.00    +0.000 OA
ATOM      7  H   UNL     1       7.376   6.454  14.416  0.00  0.00    +0.000 HD
ATOM      8  H   UNL     1       7.037   5.008  13.491  0.00  0.00    +0.000 HD
BRANCH   3   9
ATOM      9  O   UNL     1       6.825   6.961  16.538  0.00  0.00    +0.000 OA
ATOM     10  H   UNL     1       7.342   7.139  15.731  0.00  0.00    +0.000 HD
ENDBRANCH   3   9
ENDBRANCH   2   3
BRANCH   2  11
ATOM     11  C   UNL     1       5.180   5.203  18.310  0.00  0.00    +0.000 C 
ATOM     12  C   UNL     1       4.151   5.131  17.221  0.00  0.00    +0.000 C 
ATOM     13  C   UNL     1       4.178   4.052  18.282  0.00  0.00    +0.000 C 
BRANCH  13  14
ATOM     14  C   UNL     1       3.093   4.003  19.343  0.00  0.00    +0.000 A 
ATOM     15  C   UNL     1       1.840   4.580  19.305  0.00  0.00    +0.000 A 
ATOM     16  C   UNL     1       1.216   4.271  20.538  0.00  0.00    +0.000 A 
ATOM     17  C   UNL     1       2.125   3.522  21.247  0.00  0.00    +0.000 A 
ATOM     18  O   UNL     1       3.260   3.344  20.526  0.00  0.00    +0.000 OA
ENDBRANCH  13  14
ENDBRANCH   2  11
TORSDOF 4
ENDMDL
