MODEL 1
REMARK VINA RESULT:      -7.6      0.000      0.000
REMARK  Name = 
REMARK  12 active torsions:
REMARK  status: ('A' for Active; 'I' for Inactive)
REMARK    1  A    between atoms: C_1  and  O_2
REMARK    2  A    between atoms: O_2  and  C_3
REMARK    3  A    between atoms: C_6  and  C_7
REMARK    4  A    between atoms: C_10  and  C_11
REMARK    5  A    between atoms: C_11  and  C_12
REMARK    6  A    between atoms: C_12  and  C_13
REMARK    7  A    between atoms: N_15  and  C_16
REMARK    8  A    between atoms: C_16  and  C_17
REMARK    9  A    between atoms: C_20  and  O_21
REMARK   10  A    between atoms: O_21  and  C_22
REMARK   11  A    between atoms: C_24  and  O_25
REMARK   12  A    between atoms: O_25  and  C_26
REMARK                            x       y       z     vdW  Elec       q    Type
REMARK                         _______ _______ _______ _____ _____    ______ ____
ROOT
ATOM      1  C   UNL     1       1.134   3.824  19.632  0.00  0.00    +0.000 C 
ENDROOT
BRANCH   1   2
ATOM      2  C   UNL     1       1.897   3.652  18.340  0.00  0.00    +0.000 C 
ATOM      3  O   UNL     1       1.352   3.665  17.241  0.00  0.00    +0.000 OA
ATOM      4  N   UNL     1       3.249   3.461  18.520  0.00  0.00    +0.000 N 
ATOM      5  H   UNL     1       3.670   3.798  19.375  0.00  0.00    +0.000 HD
BRANCH   4   6
ATOM      6  C   UNL     1       4.092   3.342  17.347  0.00  0.00    +0.000 C 
BRANCH   6   7
ATOM      7  C   UNL     1       5.165   4.385  17.164  0.00  0.00    +0.000 A 
ATOM      8  C   UNL     1       5.671   5.103  18.269  0.00  0.00    +0.000 A 
ATOM      9  C   UNL     1       6.631   6.108  18.109  0.00  0.00    +0.000 A 
ATOM     10  C   UNL     1       7.124   6.419  16.848  0.00  0.00    +0.000 A 
ATOM     11  C   UNL     1       6.641   5.715  15.746  0.00  0.00    +0.000 A 
ATOM     12  C   UNL     1       5.678   4.699  15.889  0.00  0.00    +0.000 A 
BRANCH  10  13
ATOM     13  O   UNL     1       8.060   7.416  16.820  0.00  0.00    +0.000 OA
ATOM     14  C   UNL     1       7.851   8.518  17.696  0.00  0.00    +0.000 C 
ENDBRANCH  10  13
BRANCH  12  15
ATOM     15  O   UNL     1       5.281   4.205  14.673  0.00  0.00    +0.000 OA
ATOM     16  C   UNL     1       6.250   3.864  13.692  0.00  0.00    +0.000 C 
ENDBRANCH  12  15
ENDBRANCH   6   7
ENDBRANCH   4   6
ENDBRANCH   1   2
BRANCH   1  17
ATOM     17  C   UNL     1       2.018   4.490  20.682  0.00  0.00    +0.000 C 
BRANCH  17  21
ATOM     18  C   UNL     1       1.273   7.965  20.826  0.00  0.00    +0.000 A 
ATOM     19  N   UNL     1       2.074   7.952  19.746  0.00  0.00    +0.000 NA
ATOM     20  O   UNL     1       2.451   6.622  19.622  0.00  0.00    +0.000 OA
ATOM     21  C   UNL     1       1.840   5.955  20.640  0.00  0.00    +0.000 A 
ATOM     22  N   UNL     1       1.116   6.727  21.415  0.00  0.00    +0.000 NA
BRANCH  18  26
ATOM     23  C   UNL     1      -0.689  11.470  22.277  0.00  0.00    +0.000 A 
ATOM     24  C   UNL     1      -0.650  10.311  23.051  0.00  0.00    +0.000 A 
ATOM     25  C   UNL     1      -0.006   9.166  22.579  0.00  0.00    +0.000 A 
ATOM     26  C   UNL     1       0.593   9.156  21.314  0.00  0.00    +0.000 A 
ATOM     27  C   UNL     1       0.536  10.320  20.531  0.00  0.00    +0.000 A 
ATOM     28  C   UNL     1      -0.105  11.471  21.010  0.00  0.00    +0.000 A 
BRANCH  23  30
ATOM     29  C   UNL     1      -2.778  12.438  22.801  0.00  0.00    +0.000 C 
ATOM     30  O   UNL     1      -1.359  12.519  22.842  0.00  0.00    +0.000 OA
ENDBRANCH  23  30
ENDBRANCH  18  26
ENDBRANCH  17  21
ENDBRANCH   1  17
TORSDOF 9
ENDMDL
MODEL 2
REMARK VINA RESULT:      -7.5      3.437      7.843
REMARK  Name = 
REMARK  12 active torsions:
REMARK  status: ('A' for Active; 'I' for Inactive)
REMARK    1  A    between atoms: C_1  and  O_2
REMARK    2  A    between atoms: O_2  and  C_3
REMARK    3  A    between atoms: C_6  and  C_7
REMARK    4  A    between atoms: C_10  and  C_11
REMARK    5  A    between atoms: C_11  and  C_12
REMARK    6  A    between atoms: C_12  and  C_13
REMARK    7  A    between atoms: N_15  and  C_16
REMARK    8  A    between atoms: C_16  and  C_17
REMARK    9  A    between atoms: C_20  and  O_21
REMARK   10  A    between atoms: O_21  and  C_22
REMARK   11  A    between atoms: C_24  and  O_25
REMARK   12  A    between atoms: O_25  and  C_26
REMARK                            x       y       z     vdW  Elec       q    Type
REMARK                         _______ _______ _______ _____ _____    ______ ____
ROOT
ATOM      1  C   UNL     1       7.243   4.775  17.234  0.00  0.00    +0.000 C 
ENDROOT
BRANCH   1   2
ATOM      2  C   UNL     1       5.760   4.815  16.952  0.00  0.00    +0.000 C 
ATOM      3  O   UNL     1       5.290   4.572  15.845  0.00  0.00    +0.000 OA
ATOM      4  N   UNL     1       4.999   5.164  18.045  0.00  0.00    +0.000 N 
ATOM      5  H   UNL     1       5.387   5.010  18.967  0.00  0.00    +0.000 HD
BRANCH   4   6
ATOM      6  C   UNL     1       3.557   5.177  17.907  0.00  0.00    +0.000 C 
BRANCH   6   7
ATOM      7  C   UNL     1       2.816   6.317  18.559  0.00  0.00    +0.000 A 
ATOM      8  C   UNL     1       2.668   7.555  17.899  0.00  0.00    +0.000 A 
ATOM      9  C   UNL     1       2.026   8.638  18.510  0.00  0.00    +0.000 A 
ATOM     10  C   UNL     1       1.503   8.516  19.792  0.00  0.00    +0.000 A 
ATOM     11  C   UNL     1       1.634   7.298  20.457  0.00  0.00    +0.000 A 
ATOM     12  C   UNL     1       2.273   6.198  19.855  0.00  0.00    +0.000 A 
BRANCH  10  13
ATOM     13  O   UNL     1       0.897   9.641  20.281  0.00  0.00    +0.000 OA
ATOM     14  C   UNL     1       0.916   9.818  21.692  0.00  0.00    +0.000 C 
ENDBRANCH  10  13
BRANCH  12  15
ATOM     15  O   UNL     1       2.370   5.136  20.718  0.00  0.00    +0.000 OA
ATOM     16  C   UNL     1       1.479   4.037  20.597  0.00  0.00    +0.000 C 
ENDBRANCH  12  15
ENDBRANCH   6   7
ENDBRANCH   4   6
ENDBRANCH   1   2
BRANCH   1  17
ATOM     17  C   UNL     1       7.552   5.516  18.532  0.00  0.00    +0.000 C 
BRANCH  17  21
ATOM     18  C   UNL     1       8.369   8.964  18.228  0.00  0.00    +0.000 A 
ATOM     19  N   UNL     1       7.534   8.839  17.182  0.00  0.00    +0.000 NA
ATOM     20  O   UNL     1       7.177   7.498  17.195  0.00  0.00    +0.000 OA
ATOM     21  C   UNL     1       7.831   6.938  18.249  0.00  0.00    +0.000 A 
ATOM     22  N   UNL     1       8.585   7.785  18.910  0.00  0.00    +0.000 NA
BRANCH  18  26
ATOM     23  C   UNL     1      10.152  12.658  19.421  0.00  0.00    +0.000 A 
ATOM     24  C   UNL     1      10.236  11.535  20.243  0.00  0.00    +0.000 A 
ATOM     25  C   UNL     1       9.656  10.327  19.853  0.00  0.00    +0.000 A 
ATOM     26  C   UNL     1       8.965  10.227  18.639  0.00  0.00    +0.000 A 
ATOM     27  C   UNL     1       8.869  11.365  17.823  0.00  0.00    +0.000 A 
ATOM     28  C   UNL     1       9.457  12.575  18.213  0.00  0.00    +0.000 A 
BRANCH  23  30
ATOM     29  C   UNL     1      11.727  14.384  19.082  0.00  0.00    +0.000 C 
ATOM     30  O   UNL     1      10.746  13.783  19.918  0.00  0.00    +0.000 OA
ENDBRANCH  23  30
ENDBRANCH  18  26
ENDBRANCH  17  21
ENDBRANCH   1  17
TORSDOF 9
ENDMDL
MODEL 3
REMARK VINA RESULT:      -7.3      2.012      7.629
REMARK  Name = 
REMARK  12 active torsions:
REMARK  status: ('A' for Active; 'I' for Inactive)
REMARK    1  A    between atoms: C_1  and  O_2
REMARK    2  A    between atoms: O_2  and  C_3
REMARK    3  A    between atoms: C_6  and  C_7
REMARK    4  A    between atoms: C_10  and  C_11
REMARK    5  A    between atoms: C_11  and  C_12
REMARK    6  A    between atoms: C_12  and  C_13
REMARK    7  A    between atoms: N_15  and  C_16
REMARK    8  A    between atoms: C_16  and  C_17
REMARK    9  A    between atoms: C_20  and  O_21
REMARK   10  A    between atoms: O_21  and  C_22
REMARK   11  A    between atoms: C_24  and  O_25
REMARK   12  A    between atoms: O_25  and  C_26
REMARK                            x       y       z     vdW  Elec       q    Type
REMARK                         _______ _______ _______ _____ _____    ______ ____
ROOT
ATOM      1  C   UNL     1       0.765   2.775  20.180  0.00  0.00    +0.000 C 
ENDROOT
BRANCH   1   2
ATOM      2  C   UNL     1       1.512   3.899  20.857  0.00  0.00    +0.000 C 
ATOM      3  O   UNL     1       2.159   3.739  21.887  0.00  0.00    +0.000 OA
ATOM      4  N   UNL     1       1.381   5.112  20.218  0.00  0.00    +0.000 N 
ATOM      5  H   UNL     1       1.147   5.112  19.234  0.00  0.00    +0.000 HD
BRANCH   4   6
ATOM      6  C   UNL     1       2.103   6.253  20.746  0.00  0.00    +0.000 C 
BRANCH   6   7
ATOM      7  C   UNL     1       1.733   7.609  20.203  0.00  0.00    +0.000 A 
ATOM      8  C   UNL     1       1.934   7.923  18.842  0.00  0.00    +0.000 A 
ATOM      9  C   UNL     1       1.641   9.193  18.333  0.00  0.00    +0.000 A 
ATOM     10  C   UNL     1       1.130  10.184  19.162  0.00  0.00    +0.000 A 
ATOM     11  C   UNL     1       0.919   9.890  20.508  0.00  0.00    +0.000 A 
ATOM     12  C   UNL     1       1.204   8.617  21.035  0.00  0.00    +0.000 A 
BRANCH  10  13
ATOM     13  O   UNL     1       0.881  11.382  18.550  0.00  0.00    +0.000 OA
ATOM     14  C   UNL     1      -0.464  11.845  18.566  0.00  0.00    +0.000 C 
ENDBRANCH  10  13
BRANCH  12  15
ATOM     15  O   UNL     1       1.009   8.577  22.392  0.00  0.00    +0.000 OA
ATOM     16  C   UNL     1       0.010   9.389  22.992  0.00  0.00    +0.000 C 
ENDBRANCH  12  15
ENDBRANCH   6   7
ENDBRANCH   4   6
ENDBRANCH   1   2
BRANCH   1  17
ATOM     17  C   UNL     1       1.741   1.861  19.445  0.00  0.00    +0.000 C 
BRANCH  17  21
ATOM     18  C   UNL     1       3.901   3.929  17.521  0.00  0.00    +0.000 A 
ATOM     19  N   UNL     1       3.020   3.579  16.568  0.00  0.00    +0.000 NA
ATOM     20  O   UNL     1       2.137   2.731  17.222  0.00  0.00    +0.000 OA
ATOM     21  C   UNL     1       2.569   2.649  18.511  0.00  0.00    +0.000 A 
ATOM     22  N   UNL     1       3.650   3.352  18.748  0.00  0.00    +0.000 NA
BRANCH  18  26
ATOM     23  C   UNL     1       7.127   6.663  16.919  0.00  0.00    +0.000 A 
ATOM     24  C   UNL     1       5.917   7.105  17.451  0.00  0.00    +0.000 A 
ATOM     25  C   UNL     1       4.863   6.212  17.651  0.00  0.00    +0.000 A 
ATOM     26  C   UNL     1       4.997   4.862  17.303  0.00  0.00    +0.000 A 
ATOM     27  C   UNL     1       6.212   4.426  16.751  0.00  0.00    +0.000 A 
ATOM     28  C   UNL     1       7.271   5.323  16.558  0.00  0.00    +0.000 A 
BRANCH  23  30
ATOM     29  C   UNL     1       7.981   8.742  17.643  0.00  0.00    +0.000 C 
ATOM     30  O   UNL     1       8.076   7.633  16.758  0.00  0.00    +0.000 OA
ENDBRANCH  23  30
ENDBRANCH  18  26
ENDBRANCH  17  21
ENDBRANCH   1  17
TORSDOF 9
ENDMDL
MODEL 4
REMARK VINA RESULT:      -7.3      1.906      3.333
REMARK  Name = 
REMARK  12 active torsions:
REMARK  status: ('A' for Active; 'I' for Inactive)
REMARK    1  A    between atoms: C_1  and  O_2
REMARK    2  A    between atoms: O_2  and  C_3
REMARK    3  A    between atoms: C_6  and  C_7
REMARK    4  A    between atoms: C_10  and  C_11
REMARK    5  A    between atoms: C_11  and  C_12
REMARK    6  A    between atoms: C_12  and  C_13
REMARK    7  A    between atoms: N_15  and  C_16
REMARK    8  A    between atoms: C_16  and  C_17
REMARK    9  A    between atoms: C_20  and  O_21
REMARK   10  A    between atoms: O_21  and  C_22
REMARK   11  A    between atoms: C_24  and  O_25
REMARK   12  A    between atoms: O_25  and  C_26
REMARK                            x       y       z     vdW  Elec       q    Type
REMARK                         _______ _______ _______ _____ _____    ______ ____
ROOT
ATOM      1  C   UNL     1       1.411   6.227  20.592  0.00  0.00    +0.000 C 
ENDROOT
BRANCH   1   2
ATOM      2  C   UNL     1       2.541   5.226  20.539  0.00  0.00    +0.000 C 
ATOM      3  O   UNL     1       2.473   4.122  21.069  0.00  0.00    +0.000 OA
ATOM      4  N   UNL     1       3.649   5.682  19.861  0.00  0.00    +0.000 N 
ATOM      5  H   UNL     1       3.524   6.416  19.177  0.00  0.00    +0.000 HD
BRANCH   4   6
ATOM      6  C   UNL     1       4.775   4.784  19.696  0.00  0.00    +0.000 C 
BRANCH   6   7
ATOM      7  C   UNL     1       5.306   4.599  18.297  0.00  0.00    +0.000 A 
ATOM      8  C   UNL     1       6.678   4.767  18.016  0.00  0.00    +0.000 A 
ATOM      9  C   UNL     1       7.178   4.646  16.714  0.00  0.00    +0.000 A 
ATOM     10  C   UNL     1       6.328   4.344  15.657  0.00  0.00    +0.000 A 
ATOM     11  C   UNL     1       4.970   4.169  15.917  0.00  0.00    +0.000 A 
ATOM     12  C   UNL     1       4.452   4.282  17.221  0.00  0.00    +0.000 A 
BRANCH  10  13
ATOM     13  O   UNL     1       6.934   4.250  14.434  0.00  0.00    +0.000 OA
ATOM     14  C   UNL     1       6.129   3.797  13.352  0.00  0.00    +0.000 C 
ENDBRANCH  10  13
BRANCH  12  15
ATOM     15  O   UNL     1       3.085   4.162  17.232  0.00  0.00    +0.000 OA
ATOM     16  C   UNL     1       2.483   2.898  17.471  0.00  0.00    +0.000 C 
ENDBRANCH  12  15
ENDBRANCH   6   7
ENDBRANCH   4   6
ENDBRANCH   1   2
BRANCH   1  17
ATOM     17  C   UNL     1       1.938   7.632  20.317  0.00  0.00    +0.000 C 
BRANCH  17  21
ATOM     18  C   UNL     1      -0.046  10.148  21.861  0.00  0.00    +0.000 A 
ATOM     19  N   UNL     1       0.797   9.876  22.872  0.00  0.00    +0.000 NA
ATOM     20  O   UNL     1       1.607   8.865  22.372  0.00  0.00    +0.000 OA
ATOM     21  C   UNL     1       1.177   8.623  21.104  0.00  0.00    +0.000 A 
ATOM     22  N   UNL     1       0.161   9.369  20.742  0.00  0.00    +0.000 NA
BRANCH  18  26
ATOM     23  C   UNL     1      -3.043  13.188  22.000  0.00  0.00    +0.000 A 
ATOM     24  C   UNL     1      -2.400  12.884  20.801  0.00  0.00    +0.000 A 
ATOM     25  C   UNL     1      -1.422  11.889  20.754  0.00  0.00    +0.000 A 
ATOM     26  C   UNL     1      -1.058  11.193  21.913  0.00  0.00    +0.000 A 
ATOM     27  C   UNL     1      -1.696  11.514  23.121  0.00  0.00    +0.000 A 
ATOM     28  C   UNL     1      -2.682  12.509  23.164  0.00  0.00    +0.000 A 
BRANCH  23  30
ATOM     29  C   UNL     1      -4.705  14.255  20.706  0.00  0.00    +0.000 C 
ATOM     30  O   UNL     1      -3.969  14.189  21.921  0.00  0.00    +0.000 OA
ENDBRANCH  23  30
ENDBRANCH  18  26
ENDBRANCH  17  21
ENDBRANCH   1  17
TORSDOF 9
ENDMDL
MODEL 5
REMARK VINA RESULT:      -7.2      5.137      8.974
REMARK  Name = 
REMARK  12 active torsions:
REMARK  status: ('A' for Active; 'I' for Inactive)
REMARK    1  A    between atoms: C_1  and  O_2
REMARK    2  A    between atoms: O_2  and  C_3
REMARK    3  A    between atoms: C_6  and  C_7
REMARK    4  A    between atoms: C_10  and  C_11
REMARK    5  A    between atoms: C_11  and  C_12
REMARK    6  A    between atoms: C_12  and  C_13
REMARK    7  A    between atoms: N_15  and  C_16
REMARK    8  A    between atoms: C_16  and  C_17
REMARK    9  A    between atoms: C_20  and  O_21
REMARK   10  A    between atoms: O_21  and  C_22
REMARK   11  A    between atoms: C_24  and  O_25
REMARK   12  A    between atoms: O_25  and  C_26
REMARK                            x       y       z     vdW  Elec       q    Type
REMARK                         _______ _______ _______ _____ _____    ______ ____
ROOT
ATOM      1  C   UNL     1       8.222   7.830  18.468  0.00  0.00    +0.000 C 
ENDROOT
BRANCH   1   2
ATOM      2  C   UNL     1       7.420   6.735  17.805  0.00  0.00    +0.000 C 
ATOM      3  O   UNL     1       7.170   6.732  16.603  0.00  0.00    +0.000 OA
ATOM      4  N   UNL     1       6.986   5.763  18.678  0.00  0.00    +0.000 N 
ATOM      5  H   UNL     1       7.494   5.635  19.542  0.00  0.00    +0.000 HD
BRANCH   4   6
ATOM      6  C   UNL     1       6.255   4.631  18.143  0.00  0.00    +0.000 C 
BRANCH   6   7
ATOM      7  C   UNL     1       4.920   4.319  18.770  0.00  0.00    +0.000 A 
ATOM      8  C   UNL     1       4.637   3.029  19.265  0.00  0.00    +0.000 A 
ATOM      9  C   UNL     1       3.386   2.711  19.805  0.00  0.00    +0.000 A 
ATOM     10  C   UNL     1       2.384   3.671  19.878  0.00  0.00    +0.000 A 
ATOM     11  C   UNL     1       2.648   4.953  19.399  0.00  0.00    +0.000 A 
ATOM     12  C   UNL     1       3.902   5.291  18.857  0.00  0.00    +0.000 A 
BRANCH  10  13
ATOM     13  O   UNL     1       1.207   3.242  20.427  0.00  0.00    +0.000 OA
ATOM     14  C   UNL     1       1.273   2.690  21.737  0.00  0.00    +0.000 C 
ENDBRANCH  10  13
BRANCH  12  15
ATOM     15  O   UNL     1       3.911   6.572  18.367  0.00  0.00    +0.000 OA
ATOM     16  C   UNL     1       2.691   7.282  18.207  0.00  0.00    +0.000 C 
ENDBRANCH  12  15
ENDBRANCH   6   7
ENDBRANCH   4   6
ENDBRANCH   1   2
BRANCH   1  17
ATOM     17  C   UNL     1       8.141   9.114  17.647  0.00  0.00    +0.000 C 
BRANCH  17  21
ATOM     18  C   UNL     1       9.750  11.968  19.031  0.00  0.00    +0.000 A 
ATOM     19  N   UNL     1       9.962  11.088  20.025  0.00  0.00    +0.000 NA
ATOM     20  O   UNL     1       9.334   9.929  19.588  0.00  0.00    +0.000 OA
ATOM     21  C   UNL     1       8.802  10.219  18.369  0.00  0.00    +0.000 A 
ATOM     22  N   UNL     1       9.015  11.454  17.983  0.00  0.00    +0.000 NA
BRANCH  18  26
ATOM     23  C   UNL     1      11.323  15.939  18.996  0.00  0.00    +0.000 A 
ATOM     24  C   UNL     1      11.926  14.947  19.769  0.00  0.00    +0.000 A 
ATOM     25  C   UNL     1      11.414  13.648  19.778  0.00  0.00    +0.000 A 
ATOM     26  C   UNL     1      10.278  13.324  19.028  0.00  0.00    +0.000 A 
ATOM     27  C   UNL     1       9.664  14.331  18.265  0.00  0.00    +0.000 A 
ATOM     28  C   UNL     1      10.183  15.632  18.252  0.00  0.00    +0.000 A 
BRANCH  23  30
ATOM     29  C   UNL     1      12.316  17.572  20.382  0.00  0.00    +0.000 C 
ATOM     30  O   UNL     1      11.907  17.171  19.081  0.00  0.00    +0.000 OA
ENDBRANCH  23  30
ENDBRANCH  18  26
ENDBRANCH  17  21
ENDBRANCH   1  17
TORSDOF 9
ENDMDL
MODEL 6
REMARK VINA RESULT:      -7.2      1.573      8.792
REMARK  Name = 
REMARK  12 active torsions:
REMARK  status: ('A' for Active; 'I' for Inactive)
REMARK    1  A    between atoms: C_1  and  O_2
REMARK    2  A    between atoms: O_2  and  C_3
REMARK    3  A    between atoms: C_6  and  C_7
REMARK    4  A    between atoms: C_10  and  C_11
REMARK    5  A    between atoms: C_11  and  C_12
REMARK    6  A    between atoms: C_12  and  C_13
REMARK    7  A    between atoms: N_15  and  C_16
REMARK    8  A    between atoms: C_16  and  C_17
REMARK    9  A    between atoms: C_20  and  O_21
REMARK   10  A    between atoms: O_21  and  C_22
REMARK   11  A    between atoms: C_24  and  O_25
REMARK   12  A    between atoms: O_25  and  C_26
REMARK                            x       y       z     vdW  Elec       q    Type
REMARK                         _______ _______ _______ _____ _____    ______ ____
ROOT
ATOM      1  C   UNL     1       2.526   4.313  21.475  0.00  0.00    +0.000 C 
ENDROOT
BRANCH   1   2
ATOM      2  C   UNL     1       1.754   5.360  20.708  0.00  0.00    +0.000 C 
ATOM      3  O   UNL     1       0.631   5.157  20.257  0.00  0.00    +0.000 OA
ATOM      4  N   UNL     1       2.437   6.546  20.553  0.00  0.00    +0.000 N 
ATOM      5  H   UNL     1       3.168   6.767  21.215  0.00  0.00    +0.000 HD
BRANCH   4   6
ATOM      6  C   UNL     1       1.771   7.645  19.882  0.00  0.00    +0.000 C 
BRANCH   6   7
ATOM      7  C   UNL     1       1.098   8.673  20.755  0.00  0.00    +0.000 A 
ATOM      8  C   UNL     1       0.668   8.346  22.058  0.00  0.00    +0.000 A 
ATOM      9  C   UNL     1      -0.002   9.276  22.862  0.00  0.00    +0.000 A 
ATOM     10  C   UNL     1      -0.252  10.560  22.396  0.00  0.00    +0.000 A 
ATOM     11  C   UNL     1       0.172  10.903  21.114  0.00  0.00    +0.000 A 
ATOM     12  C   UNL     1       0.850   9.982  20.293  0.00  0.00    +0.000 A 
BRANCH  10  13
ATOM     13  O   UNL     1      -0.910  11.378  23.274  0.00  0.00    +0.000 OA
ATOM     14  C   UNL     1      -2.063  12.052  22.782  0.00  0.00    +0.000 C 
ENDBRANCH  10  13
BRANCH  12  15
ATOM     15  O   UNL     1       1.091  10.499  19.046  0.00  0.00    +0.000 OA
ATOM     16  C   UNL     1       1.025  11.902  18.832  0.00  0.00    +0.000 C 
ENDBRANCH  12  15
ENDBRANCH   6   7
ENDBRANCH   4   6
ENDBRANCH   1   2
BRANCH   1  17
ATOM     17  C   UNL     1       2.479   2.978  20.737  0.00  0.00    +0.000 C 
BRANCH  17  21
ATOM     18  C   UNL     1       4.024   3.601  17.595  0.00  0.00    +0.000 A 
ATOM     19  N   UNL     1       2.839   3.128  17.171  0.00  0.00    +0.000 NA
ATOM     20  O   UNL     1       2.161   2.821  18.344  0.00  0.00    +0.000 OA
ATOM     21  C   UNL     1       3.002   3.138  19.366  0.00  0.00    +0.000 A 
ATOM     22  N   UNL     1       4.160   3.608  18.968  0.00  0.00    +0.000 NA
BRANCH  18  26
ATOM     23  C   UNL     1       7.088   5.048  14.994  0.00  0.00    +0.000 A 
ATOM     24  C   UNL     1       6.888   5.632  16.244  0.00  0.00    +0.000 A 
ATOM     25  C   UNL     1       5.889   5.159  17.096  0.00  0.00    +0.000 A 
ATOM     26  C   UNL     1       5.060   4.101  16.702  0.00  0.00    +0.000 A 
ATOM     27  C   UNL     1       5.254   3.528  15.436  0.00  0.00    +0.000 A 
ATOM     28  C   UNL     1       6.262   4.000  14.586  0.00  0.00    +0.000 A 
BRANCH  23  30
ATOM     29  C   UNL     1       7.990   5.412  12.843  0.00  0.00    +0.000 C 
ATOM     30  O   UNL     1       8.086   5.608  14.248  0.00  0.00    +0.000 OA
ENDBRANCH  23  30
ENDBRANCH  18  26
ENDBRANCH  17  21
ENDBRANCH   1  17
TORSDOF 9
ENDMDL
MODEL 7
REMARK VINA RESULT:      -7.1      1.814      2.810
REMARK  Name = 
REMARK  12 active torsions:
REMARK  status: ('A' for Active; 'I' for Inactive)
REMARK    1  A    between atoms: C_1  and  O_2
REMARK    2  A    between atoms: O_2  and  C_3
REMARK    3  A    between atoms: C_6  and  C_7
REMARK    4  A    between atoms: C_10  and  C_11
REMARK    5  A    between atoms: C_11  and  C_12
REMARK    6  A    between atoms: C_12  and  C_13
REMARK    7  A    between atoms: N_15  and  C_16
REMARK    8  A    between atoms: C_16  and  C_17
REMARK    9  A    between atoms: C_20  and  O_21
REMARK   10  A    between atoms: O_21  and  C_22
REMARK   11  A    between atoms: C_24  and  O_25
REMARK   12  A    between atoms: O_25  and  C_26
REMARK                            x       y       z     vdW  Elec       q    Type
REMARK                         _______ _______ _______ _____ _____    ______ ____
ROOT
ATOM      1  C   UNL     1       1.390   4.109  19.870  0.00  0.00    +0.000 C 
ENDROOT
BRANCH   1   2
ATOM      2  C   UNL     1       2.495   3.244  19.312  0.00  0.00    +0.000 C 
ATOM      3  O   UNL     1       2.877   2.218  19.866  0.00  0.00    +0.000 OA
ATOM      4  N   UNL     1       3.037   3.728  18.142  0.00  0.00    +0.000 N 
ATOM      5  H   UNL     1       2.475   4.347  17.575  0.00  0.00    +0.000 HD
BRANCH   4   6
ATOM      6  C   UNL     1       4.067   2.949  17.484  0.00  0.00    +0.000 C 
BRANCH   6   7
ATOM      7  C   UNL     1       5.072   3.705  16.653  0.00  0.00    +0.000 A 
ATOM      8  C   UNL     1       5.336   3.329  15.319  0.00  0.00    +0.000 A 
ATOM      9  C   UNL     1       6.301   3.990  14.551  0.00  0.00    +0.000 A 
ATOM     10  C   UNL     1       7.023   5.050  15.084  0.00  0.00    +0.000 A 
ATOM     11  C   UNL     1       6.771   5.439  16.398  0.00  0.00    +0.000 A 
ATOM     12  C   UNL     1       5.802   4.788  17.184  0.00  0.00    +0.000 A 
BRANCH  10  13
ATOM     13  O   UNL     1       7.935   5.617  14.236  0.00  0.00    +0.000 OA
ATOM     14  C   UNL     1       7.859   5.240  12.866  0.00  0.00    +0.000 C 
ENDBRANCH  10  13
BRANCH  12  15
ATOM     15  O   UNL     1       5.785   5.272  18.467  0.00  0.00    +0.000 OA
ATOM     16  C   UNL     1       7.000   5.626  19.112  0.00  0.00    +0.000 C 
ENDBRANCH  12  15
ENDBRANCH   6   7
ENDBRANCH   4   6
ENDBRANCH   1   2
BRANCH   1  17
ATOM     17  C   UNL     1       1.955   5.096  20.887  0.00  0.00    +0.000 C 
BRANCH  17  21
ATOM     18  C   UNL     1       1.483   8.462  19.838  0.00  0.00    +0.000 A 
ATOM     19  N   UNL     1       2.268   8.024  18.837  0.00  0.00    +0.000 NA
ATOM     20  O   UNL     1       2.539   6.705  19.176  0.00  0.00    +0.000 OA
ATOM     21  C   UNL     1       1.891   6.470  20.350  0.00  0.00    +0.000 A 
ATOM     22  N   UNL     1       1.239   7.512  20.807  0.00  0.00    +0.000 NA
BRANCH  18  26
ATOM     23  C   UNL     1      -0.249  12.363  19.979  0.00  0.00    +0.000 A 
ATOM     24  C   UNL     1      -0.257  11.630  18.794  0.00  0.00    +0.000 A 
ATOM     25  C   UNL     1       0.307  10.354  18.747  0.00  0.00    +0.000 A 
ATOM     26  C   UNL     1       0.904   9.797  19.884  0.00  0.00    +0.000 A 
ATOM     27  C   UNL     1       0.925  10.546  21.071  0.00  0.00    +0.000 A 
ATOM     28  C   UNL     1       0.353  11.824  21.117  0.00  0.00    +0.000 A 
BRANCH  23  30
ATOM     29  C   UNL     1      -0.212  14.498  18.971  0.00  0.00    +0.000 C 
ATOM     30  O   UNL     1      -0.818  13.603  19.895  0.00  0.00    +0.000 OA
ENDBRANCH  23  30
ENDBRANCH  18  26
ENDBRANCH  17  21
ENDBRANCH   1  17
TORSDOF 9
ENDMDL
MODEL 8
REMARK VINA RESULT:      -7.1      1.027      1.373
REMARK  Name = 
REMARK  12 active torsions:
REMARK  status: ('A' for Active; 'I' for Inactive)
REMARK    1  A    between atoms: C_1  and  O_2
REMARK    2  A    between atoms: O_2  and  C_3
REMARK    3  A    between atoms: C_6  and  C_7
REMARK    4  A    between atoms: C_10  and  C_11
REMARK    5  A    between atoms: C_11  and  C_12
REMARK    6  A    between atoms: C_12  and  C_13
REMARK    7  A    between atoms: N_15  and  C_16
REMARK    8  A    between atoms: C_16  and  C_17
REMARK    9  A    between atoms: C_20  and  O_21
REMARK   10  A    between atoms: O_21  and  C_22
REMARK   11  A    between atoms: C_24  and  O_25
REMARK   12  A    between atoms: O_25  and  C_26
REMARK                            x       y       z     vdW  Elec       q    Type
REMARK                         _______ _______ _______ _____ _____    ______ ____
ROOT
ATOM      1  C   UNL     1       1.354   3.338  19.860  0.00  0.00    +0.000 C 
ENDROOT
BRANCH   1   2
ATOM      2  C   UNL     1       2.501   2.969  18.949  0.00  0.00    +0.000 C 
ATOM      3  O   UNL     1       3.310   2.088  19.225  0.00  0.00    +0.000 OA
ATOM      4  N   UNL     1       2.558   3.726  17.800  0.00  0.00    +0.000 N 
ATOM      5  H   UNL     1       1.708   4.166  17.474  0.00  0.00    +0.000 HD
BRANCH   4   6
ATOM      6  C   UNL     1       3.584   3.421  16.823  0.00  0.00    +0.000 C 
BRANCH   6   7
ATOM      7  C   UNL     1       4.756   4.365  16.743  0.00  0.00    +0.000 A 
ATOM      8  C   UNL     1       5.068   5.224  17.818  0.00  0.00    +0.000 A 
ATOM      9  C   UNL     1       6.123   6.140  17.741  0.00  0.00    +0.000 A 
ATOM     10  C   UNL     1       6.905   6.220  16.595  0.00  0.00    +0.000 A 
ATOM     11  C   UNL     1       6.616   5.375  15.525  0.00  0.00    +0.000 A 
ATOM     12  C   UNL     1       5.561   4.445  15.588  0.00  0.00    +0.000 A 
BRANCH  10  13
ATOM     13  O   UNL     1       7.907   7.151  16.640  0.00  0.00    +0.000 OA
ATOM     14  C   UNL     1       7.950   7.994  17.785  0.00  0.00    +0.000 C 
ENDBRANCH  10  13
BRANCH  12  15
ATOM     15  O   UNL     1       5.399   3.785  14.397  0.00  0.00    +0.000 OA
ATOM     16  C   UNL     1       6.371   3.920  13.370  0.00  0.00    +0.000 C 
ENDBRANCH  12  15
ENDBRANCH   6   7
ENDBRANCH   4   6
ENDBRANCH   1   2
BRANCH   1  17
ATOM     17  C   UNL     1       1.863   4.157  21.043  0.00  0.00    +0.000 C 
BRANCH  17  21
ATOM     18  C   UNL     1       1.419   7.644  20.505  0.00  0.00    +0.000 A 
ATOM     19  N   UNL     1       2.243   7.363  19.479  0.00  0.00    +0.000 NA
ATOM     20  O   UNL     1       2.505   6.007  19.622  0.00  0.00    +0.000 OA
ATOM     21  C   UNL     1       1.814   5.597  20.721  0.00  0.00    +0.000 A 
ATOM     22  N   UNL     1       1.142   6.558  21.308  0.00  0.00    +0.000 NA
BRANCH  18  26
ATOM     23  C   UNL     1      -0.328  11.486  21.162  0.00  0.00    +0.000 A 
ATOM     24  C   UNL     1       0.166  11.141  19.905  0.00  0.00    +0.000 A 
ATOM     25  C   UNL     1       0.735   9.884  19.689  0.00  0.00    +0.000 A 
ATOM     26  C   UNL     1       0.835   8.958  20.734  0.00  0.00    +0.000 A 
ATOM     27  C   UNL     1       0.352   9.317  22.001  0.00  0.00    +0.000 A 
ATOM     28  C   UNL     1      -0.225  10.576  22.215  0.00  0.00    +0.000 A 
BRANCH  23  30
ATOM     29  C   UNL     1      -0.509  13.471  22.428  0.00  0.00    +0.000 C 
ATOM     30  O   UNL     1      -0.847  12.747  21.252  0.00  0.00    +0.000 OA
ENDBRANCH  23  30
ENDBRANCH  18  26
ENDBRANCH  17  21
ENDBRANCH   1  17
TORSDOF 9
ENDMDL
MODEL 9
REMARK VINA RESULT:      -7.0      1.203      1.301
REMARK  Name = 
REMARK  12 active torsions:
REMARK  status: ('A' for Active; 'I' for Inactive)
REMARK    1  A    between atoms: C_1  and  O_2
REMARK    2  A    between atoms: O_2  and  C_3
REMARK    3  A    between atoms: C_6  and  C_7
REMARK    4  A    between atoms: C_10  and  C_11
REMARK    5  A    between atoms: C_11  and  C_12
REMARK    6  A    between atoms: C_12  and  C_13
REMARK    7  A    between atoms: N_15  and  C_16
REMARK    8  A    between atoms: C_16  and  C_17
REMARK    9  A    between atoms: C_20  and  O_21
REMARK   10  A    between atoms: O_21  and  C_22
REMARK   11  A    between atoms: C_24  and  O_25
REMARK   12  A    between atoms: O_25  and  C_26
REMARK                            x       y       z     vdW  Elec       q    Type
REMARK                         _______ _______ _______ _____ _____    ______ ____
ROOT
ATOM      1  C   UNL     1       1.214   2.965  19.349  0.00  0.00    +0.000 C 
ENDROOT
BRANCH   1   2
ATOM      2  C   UNL     1       2.585   2.670  18.790  0.00  0.00    +0.000 C 
ATOM      3  O   UNL     1       3.268   1.726  19.174  0.00  0.00    +0.000 OA
ATOM      4  N   UNL     1       2.994   3.568  17.829  0.00  0.00    +0.000 N 
ATOM      5  H   UNL     1       2.286   4.084  17.324  0.00  0.00    +0.000 HD
BRANCH   4   6
ATOM      6  C   UNL     1       4.271   3.350  17.179  0.00  0.00    +0.000 C 
BRANCH   6   7
ATOM      7  C   UNL     1       5.358   4.359  17.449  0.00  0.00    +0.000 A 
ATOM      8  C   UNL     1       5.710   4.706  18.770  0.00  0.00    +0.000 A 
ATOM      9  C   UNL     1       6.683   5.676  19.036  0.00  0.00    +0.000 A 
ATOM     10  C   UNL     1       7.342   6.319  17.996  0.00  0.00    +0.000 A 
ATOM     11  C   UNL     1       7.012   5.983  16.684  0.00  0.00    +0.000 A 
ATOM     12  C   UNL     1       6.038   5.008  16.398  0.00  0.00    +0.000 A 
BRANCH  10  13
ATOM     13  O   UNL     1       8.273   7.244  18.382  0.00  0.00    +0.000 OA
ATOM     14  C   UNL     1       8.130   8.558  17.855  0.00  0.00    +0.000 C 
ENDBRANCH  10  13
BRANCH  12  15
ATOM     15  O   UNL     1       5.810   4.904  15.050  0.00  0.00    +0.000 OA
ATOM     16  C   UNL     1       6.902   4.841  14.145  0.00  0.00    +0.000 C 
ENDBRANCH  12  15
ENDBRANCH   6   7
ENDBRANCH   4   6
ENDBRANCH   1   2
BRANCH   1  17
ATOM     17  C   UNL     1       1.334   3.599  20.732  0.00  0.00    +0.000 C 
BRANCH  17  21
ATOM     18  C   UNL     1       1.549   7.144  20.537  0.00  0.00    +0.000 A 
ATOM     19  N   UNL     1       2.647   6.814  19.833  0.00  0.00    +0.000 NA
ATOM     20  O   UNL     1       2.670   5.426  19.878  0.00  0.00    +0.000 OA
ATOM     21  C   UNL     1       1.583   5.049  20.605  0.00  0.00    +0.000 A 
ATOM     22  N   UNL     1       0.868   6.057  21.044  0.00  0.00    +0.000 NA
BRANCH  18  26
ATOM     23  C   UNL     1       0.230  11.168  21.091  0.00  0.00    +0.000 A 
ATOM     24  C   UNL     1       0.138  10.245  22.131  0.00  0.00    +0.000 A 
ATOM     25  C   UNL     1       0.571   8.930  21.952  0.00  0.00    +0.000 A 
ATOM     26  C   UNL     1       1.089   8.512  20.720  0.00  0.00    +0.000 A 
ATOM     27  C   UNL     1       1.163   9.441  19.671  0.00  0.00    +0.000 A 
ATOM     28  C   UNL     1       0.734  10.762  19.854  0.00  0.00    +0.000 A 
BRANCH  23  30
ATOM     29  C   UNL     1      -1.568  12.693  20.960  0.00  0.00    +0.000 C 
ATOM     30  O   UNL     1      -0.239  12.417  21.384  0.00  0.00    +0.000 OA
ENDBRANCH  23  30
ENDBRANCH  18  26
ENDBRANCH  17  21
ENDBRANCH   1  17
TORSDOF 9
ENDMDL
