MODEL 1
REMARK VINA RESULT:      -8.8      0.000      0.000
REMARK  Name = 
REMARK  5 active torsions:
REMARK  status: ('A' for Active; 'I' for Inactive)
REMARK    1  A    between atoms: C_10  and  O_11
REMARK    2  A    between atoms: C_12  and  C_13
REMARK    3  A    between atoms: C_14  and  N_15
REMARK    4  A    between atoms: N_20  and  C_21
REMARK    5  A    between atoms: C_21  and  C_22
REMARK                            x       y       z     vdW  Elec       q    Type
REMARK                         _______ _______ _______ _____ _____    ______ ____
ROOT
ATOM      1  N   UNL     1      -0.579  10.701  21.793  0.00  0.00    +0.000 N 
ATOM      2  C   UNL     1      -0.266   9.664  22.659  0.00  0.00    +0.000 A 
ATOM      3  N   UNL     1       0.526   8.756  22.133  0.00  0.00    +0.000 NA
ATOM      4  C   UNL     1       0.767   9.214  20.862  0.00  0.00    +0.000 A 
ATOM      5  C   UNL     1       1.551   8.680  19.822  0.00  0.00    +0.000 A 
ATOM      6  N   UNL     1       2.299   7.527  20.018  0.00  0.00    +0.000 N 
ATOM      7  N   UNL     1       1.602   9.368  18.655  0.00  0.00    +0.000 NA
ATOM      8  C   UNL     1       0.922  10.532  18.558  0.00  0.00    +0.000 A 
ATOM      9  N   UNL     1       0.145  11.129  19.483  0.00  0.00    +0.000 NA
ATOM     10  C   UNL     1       0.105  10.409  20.620  0.00  0.00    +0.000 A 
ATOM     11  H   UNL     1       2.041   7.052  20.880  0.00  0.00    +0.000 HD
ENDROOT
BRANCH   1  13
ATOM     12  C   UNL     1      -1.854  12.197  23.247  0.00  0.00    +0.000 C 
ATOM     13  C   UNL     1      -1.405  11.808  22.039  0.00  0.00    +0.000 C 
BRANCH  12  24
ATOM     14  O   UNL     1      -4.755  12.252  22.955  0.00  0.00    +0.000 OA
ATOM     15  C   UNL     1      -4.192  13.269  23.346  0.00  0.00    +0.000 A 
ATOM     16  O   UNL     1      -4.932  14.410  23.620  0.00  0.00    +0.000 OA
ATOM     17  C   UNL     1      -4.358  15.556  24.194  0.00  0.00    +0.000 A 
ATOM     18  C   UNL     1      -5.234  16.606  24.478  0.00  0.00    +0.000 A 
ATOM     19  C   UNL     1      -4.739  17.765  25.064  0.00  0.00    +0.000 A 
ATOM     20  C   UNL     1      -3.383  17.858  25.364  0.00  0.00    +0.000 A 
ATOM     21  C   UNL     1      -2.519  16.792  25.077  0.00  0.00    +0.000 A 
ATOM     22  C   UNL     1      -2.996  15.617  24.474  0.00  0.00    +0.000 A 
ATOM     23  C   UNL     1      -2.176  14.448  24.122  0.00  0.00    +0.000 A 
ATOM     24  C   UNL     1      -2.716  13.344  23.561  0.00  0.00    +0.000 A 
BRANCH  23  25
ATOM     25  O   UNL     1      -0.808  14.511  24.355  0.00  0.00    +0.000 OA
ATOM     26  H   UNL     1      -0.616  14.361  25.293  0.00  0.00    +0.000 HD
ENDBRANCH  23  25
ENDBRANCH  12  24
ENDBRANCH   1  13
BRANCH   6  27
ATOM     27  C   UNL     1       2.532   6.655  18.885  0.00  0.00    +0.000 C 
BRANCH  27  28
ATOM     28  C   UNL     1       1.996   5.278  19.214  0.00  0.00    +0.000 A 
ATOM     29  C   UNL     1       1.684   4.907  20.528  0.00  0.00    +0.000 A 
ATOM     30  C   UNL     1       1.175   3.630  20.796  0.00  0.00    +0.000 A 
ATOM     31  C   UNL     1       0.974   2.721  19.759  0.00  0.00    +0.000 A 
ATOM     32  C   UNL     1       1.280   3.081  18.450  0.00  0.00    +0.000 A 
ATOM     33  C   UNL     1       1.784   4.352  18.179  0.00  0.00    +0.000 A 
ENDBRANCH  27  28
ENDBRANCH   6  27
TORSDOF 5
ENDMDL
MODEL 2
REMARK VINA RESULT:      -8.6      2.692      4.420
REMARK  Name = 
REMARK  5 active torsions:
REMARK  status: ('A' for Active; 'I' for Inactive)
REMARK    1  A    between atoms: C_10  and  O_11
REMARK    2  A    between atoms: C_12  and  C_13
REMARK    3  A    between atoms: C_14  and  N_15
REMARK    4  A    between atoms: N_20  and  C_21
REMARK    5  A    between atoms: C_21  and  C_22
REMARK                            x       y       z     vdW  Elec       q    Type
REMARK                         _______ _______ _______ _____ _____    ______ ____
ROOT
ATOM      1  N   UNL     1       1.286   9.765  19.306  0.00  0.00    +0.000 N 
ATOM      2  C   UNL     1       1.740   9.928  18.005  0.00  0.00    +0.000 A 
ATOM      3  N   UNL     1       2.332   8.862  17.514  0.00  0.00    +0.000 NA
ATOM      4  C   UNL     1       2.258   7.938  18.527  0.00  0.00    +0.000 A 
ATOM      5  C   UNL     1       2.707   6.606  18.595  0.00  0.00    +0.000 A 
ATOM      6  N   UNL     1       3.289   5.996  17.491  0.00  0.00    +0.000 N 
ATOM      7  N   UNL     1       2.487   5.926  19.747  0.00  0.00    +0.000 NA
ATOM      8  C   UNL     1       1.834   6.548  20.754  0.00  0.00    +0.000 A 
ATOM      9  N   UNL     1       1.368   7.811  20.796  0.00  0.00    +0.000 NA
ATOM     10  C   UNL     1       1.619   8.460  19.642  0.00  0.00    +0.000 A 
ATOM     11  H   UNL     1       3.518   6.670  16.766  0.00  0.00    +0.000 HD
ENDROOT
BRANCH   1  13
ATOM     12  C   UNL     1      -0.678  10.704  20.419  0.00  0.00    +0.000 C 
ATOM     13  C   UNL     1       0.633  10.708  20.113  0.00  0.00    +0.000 C 
BRANCH  12  24
ATOM     14  O   UNL     1      -0.488  10.886  23.324  0.00  0.00    +0.000 OA
ATOM     15  C   UNL     1      -1.257  11.647  22.744  0.00  0.00    +0.000 A 
ATOM     16  O   UNL     1      -2.019  12.550  23.470  0.00  0.00    +0.000 OA
ATOM     17  C   UNL     1      -2.813  13.529  22.851  0.00  0.00    +0.000 A 
ATOM     18  C   UNL     1      -3.474  14.415  23.704  0.00  0.00    +0.000 A 
ATOM     19  C   UNL     1      -4.263  15.423  23.161  0.00  0.00    +0.000 A 
ATOM     20  C   UNL     1      -4.376  15.536  21.779  0.00  0.00    +0.000 A 
ATOM     21  C   UNL     1      -3.700  14.641  20.936  0.00  0.00    +0.000 A 
ATOM     22  C   UNL     1      -2.908  13.609  21.464  0.00  0.00    +0.000 A 
ATOM     23  C   UNL     1      -2.169  12.614  20.673  0.00  0.00    +0.000 A 
ATOM     24  C   UNL     1      -1.410  11.662  21.258  0.00  0.00    +0.000 A 
BRANCH  23  25
ATOM     25  O   UNL     1      -2.289  12.654  19.290  0.00  0.00    +0.000 OA
ATOM     26  H   UNL     1      -1.831  11.901  18.887  0.00  0.00    +0.000 HD
ENDBRANCH  23  25
ENDBRANCH  12  24
ENDBRANCH   1  13
BRANCH   6  27
ATOM     27  C   UNL     1       4.290   4.974  17.716  0.00  0.00    +0.000 C 
BRANCH  27  28
ATOM     28  C   UNL     1       5.622   5.647  17.969  0.00  0.00    +0.000 A 
ATOM     29  C   UNL     1       6.061   6.722  17.186  0.00  0.00    +0.000 A 
ATOM     30  C   UNL     1       7.292   7.333  17.457  0.00  0.00    +0.000 A 
ATOM     31  C   UNL     1       8.088   6.877  18.506  0.00  0.00    +0.000 A 
ATOM     32  C   UNL     1       7.659   5.810  19.290  0.00  0.00    +0.000 A 
ATOM     33  C   UNL     1       6.433   5.201  19.026  0.00  0.00    +0.000 A 
ENDBRANCH  27  28
ENDBRANCH   6  27
TORSDOF 5
ENDMDL
MODEL 3
REMARK VINA RESULT:      -8.6      0.882      1.908
REMARK  Name = 
REMARK  5 active torsions:
REMARK  status: ('A' for Active; 'I' for Inactive)
REMARK    1  A    between atoms: C_10  and  O_11
REMARK    2  A    between atoms: C_12  and  C_13
REMARK    3  A    between atoms: C_14  and  N_15
REMARK    4  A    between atoms: N_20  and  C_21
REMARK    5  A    between atoms: C_21  and  C_22
REMARK                            x       y       z     vdW  Elec       q    Type
REMARK                         _______ _______ _______ _____ _____    ______ ____
ROOT
ATOM      1  N   UNL     1      -0.159  10.577  21.611  0.00  0.00    +0.000 N 
ATOM      2  C   UNL     1       0.122   9.555  22.505  0.00  0.00    +0.000 A 
ATOM      3  N   UNL     1       0.844   8.585  21.989  0.00  0.00    +0.000 NA
ATOM      4  C   UNL     1       1.070   8.985  20.695  0.00  0.00    +0.000 A 
ATOM      5  C   UNL     1       1.790   8.370  19.652  0.00  0.00    +0.000 A 
ATOM      6  N   UNL     1       2.477   7.184  19.868  0.00  0.00    +0.000 N 
ATOM      7  N   UNL     1       1.842   9.014  18.460  0.00  0.00    +0.000 NA
ATOM      8  C   UNL     1       1.226  10.211  18.341  0.00  0.00    +0.000 A 
ATOM      9  N   UNL     1       0.513  10.883  19.266  0.00  0.00    +0.000 NA
ATOM     10  C   UNL     1       0.469  10.206  20.430  0.00  0.00    +0.000 A 
ATOM     11  H   UNL     1       2.221   6.755  20.754  0.00  0.00    +0.000 HD
ENDROOT
BRANCH   1  13
ATOM     12  C   UNL     1      -1.299  12.195  23.046  0.00  0.00    +0.000 C 
ATOM     13  C   UNL     1      -0.914  11.737  21.841  0.00  0.00    +0.000 C 
BRANCH  12  24
ATOM     14  O   UNL     1      -0.199  14.869  23.434  0.00  0.00    +0.000 OA
ATOM     15  C   UNL     1      -1.411  14.717  23.551  0.00  0.00    +0.000 A 
ATOM     16  O   UNL     1      -2.218  15.798  23.877  0.00  0.00    +0.000 OA
ATOM     17  C   UNL     1      -3.619  15.710  23.894  0.00  0.00    +0.000 A 
ATOM     18  C   UNL     1      -4.306  16.893  24.173  0.00  0.00    +0.000 A 
ATOM     19  C   UNL     1      -5.697  16.885  24.188  0.00  0.00    +0.000 A 
ATOM     20  C   UNL     1      -6.379  15.702  23.919  0.00  0.00    +0.000 A 
ATOM     21  C   UNL     1      -5.673  14.524  23.636  0.00  0.00    +0.000 A 
ATOM     22  C   UNL     1      -4.269  14.508  23.627  0.00  0.00    +0.000 A 
ATOM     23  C   UNL     1      -3.434  13.329  23.354  0.00  0.00    +0.000 A 
ATOM     24  C   UNL     1      -2.085  13.400  23.344  0.00  0.00    +0.000 A 
BRANCH  23  25
ATOM     25  O   UNL     1      -4.067  12.113  23.129  0.00  0.00    +0.000 OA
ATOM     26  H   UNL     1      -3.709  11.430  23.715  0.00  0.00    +0.000 HD
ENDBRANCH  23  25
ENDBRANCH  12  24
ENDBRANCH   1  13
BRANCH   6  27
ATOM     27  C   UNL     1       2.625   6.261  18.761  0.00  0.00    +0.000 C 
BRANCH  27  28
ATOM     28  C   UNL     1       2.033   4.927  19.160  0.00  0.00    +0.000 A 
ATOM     29  C   UNL     1       1.809   4.594  20.502  0.00  0.00    +0.000 A 
ATOM     30  C   UNL     1       1.245   3.357  20.836  0.00  0.00    +0.000 A 
ATOM     31  C   UNL     1       0.902   2.448  19.837  0.00  0.00    +0.000 A 
ATOM     32  C   UNL     1       1.119   2.769  18.500  0.00  0.00    +0.000 A 
ATOM     33  C   UNL     1       1.678   4.002  18.163  0.00  0.00    +0.000 A 
ENDBRANCH  27  28
ENDBRANCH   6  27
TORSDOF 5
ENDMDL
MODEL 4
REMARK VINA RESULT:      -8.5      9.061     10.828
REMARK  Name = 
REMARK  5 active torsions:
REMARK  status: ('A' for Active; 'I' for Inactive)
REMARK    1  A    between atoms: C_10  and  O_11
REMARK    2  A    between atoms: C_12  and  C_13
REMARK    3  A    between atoms: C_14  and  N_15
REMARK    4  A    between atoms: N_20  and  C_21
REMARK    5  A    between atoms: C_21  and  C_22
REMARK                            x       y       z     vdW  Elec       q    Type
REMARK                         _______ _______ _______ _____ _____    ______ ____
ROOT
ATOM      1  N   UNL     1       7.899   7.404  18.147  0.00  0.00    +0.000 N 
ATOM      2  C   UNL     1       8.201   6.462  19.120  0.00  0.00    +0.000 A 
ATOM      3  N   UNL     1       7.428   5.400  19.085  0.00  0.00    +0.000 NA
ATOM      4  C   UNL     1       6.580   5.635  18.031  0.00  0.00    +0.000 A 
ATOM      5  C   UNL     1       5.539   4.854  17.494  0.00  0.00    +0.000 A 
ATOM      6  N   UNL     1       5.268   3.589  17.997  0.00  0.00    +0.000 N 
ATOM      7  N   UNL     1       4.863   5.354  16.429  0.00  0.00    +0.000 NA
ATOM      8  C   UNL     1       5.235   6.553  15.929  0.00  0.00    +0.000 A 
ATOM      9  N   UNL     1       6.207   7.378  16.364  0.00  0.00    +0.000 NA
ATOM     10  C   UNL     1       6.844   6.857  17.431  0.00  0.00    +0.000 A 
ATOM     11  H   UNL     1       5.750   3.422  18.876  0.00  0.00    +0.000 HD
ENDROOT
BRANCH   1  13
ATOM     12  C   UNL     1       8.292   9.769  18.631  0.00  0.00    +0.000 C 
ATOM     13  C   UNL     1       8.520   8.643  17.929  0.00  0.00    +0.000 C 
BRANCH  12  24
ATOM     14  O   UNL     1       7.238  11.904  16.947  0.00  0.00    +0.000 OA
ATOM     15  C   UNL     1       8.297  12.098  17.535  0.00  0.00    +0.000 A 
ATOM     16  O   UNL     1       8.970  13.301  17.377  0.00  0.00    +0.000 OA
ATOM     17  C   UNL     1      10.112  13.626  18.125  0.00  0.00    +0.000 A 
ATOM     18  C   UNL     1      10.646  14.898  17.910  0.00  0.00    +0.000 A 
ATOM     19  C   UNL     1      11.767  15.297  18.631  0.00  0.00    +0.000 A 
ATOM     20  C   UNL     1      12.333  14.425  19.556  0.00  0.00    +0.000 A 
ATOM     21  C   UNL     1      11.780  13.152  19.762  0.00  0.00    +0.000 A 
ATOM     22  C   UNL     1      10.657  12.727  19.037  0.00  0.00    +0.000 A 
ATOM     23  C   UNL     1      10.007  11.414  19.168  0.00  0.00    +0.000 A 
ATOM     24  C   UNL     1       8.913  11.087  18.447  0.00  0.00    +0.000 A 
BRANCH  23  25
ATOM     25  O   UNL     1      10.564  10.489  20.042  0.00  0.00    +0.000 OA
ATOM     26  H   UNL     1      10.048  10.442  20.861  0.00  0.00    +0.000 HD
ENDBRANCH  23  25
ENDBRANCH  12  24
ENDBRANCH   1  13
BRANCH   6  27
ATOM     27  C   UNL     1       3.904   3.103  17.945  0.00  0.00    +0.000 C 
BRANCH  27  28
ATOM     28  C   UNL     1       3.224   3.424  19.258  0.00  0.00    +0.000 A 
ATOM     29  C   UNL     1       2.756   4.712  19.547  0.00  0.00    +0.000 A 
ATOM     30  C   UNL     1       2.117   4.972  20.766  0.00  0.00    +0.000 A 
ATOM     31  C   UNL     1       1.941   3.952  21.699  0.00  0.00    +0.000 A 
ATOM     32  C   UNL     1       2.402   2.668  21.421  0.00  0.00    +0.000 A 
ATOM     33  C   UNL     1       3.036   2.405  20.207  0.00  0.00    +0.000 A 
ENDBRANCH  27  28
ENDBRANCH   6  27
TORSDOF 5
ENDMDL
MODEL 5
REMARK VINA RESULT:      -8.3      9.206     10.652
REMARK  Name = 
REMARK  5 active torsions:
REMARK  status: ('A' for Active; 'I' for Inactive)
REMARK    1  A    between atoms: C_10  and  O_11
REMARK    2  A    between atoms: C_12  and  C_13
REMARK    3  A    between atoms: C_14  and  N_15
REMARK    4  A    between atoms: N_20  and  C_21
REMARK    5  A    between atoms: C_21  and  C_22
REMARK                            x       y       z     vdW  Elec       q    Type
REMARK                         _______ _______ _______ _____ _____    ______ ____
ROOT
ATOM      1  N   UNL     1       7.832   7.432  18.350  0.00  0.00    +0.000 N 
ATOM      2  C   UNL     1       8.187   6.378  19.180  0.00  0.00    +0.000 A 
ATOM      3  N   UNL     1       7.477   5.289  18.986  0.00  0.00    +0.000 NA
ATOM      4  C   UNL     1       6.618   5.624  17.969  0.00  0.00    +0.000 A 
ATOM      5  C   UNL     1       5.624   4.871  17.316  0.00  0.00    +0.000 A 
ATOM      6  N   UNL     1       5.427   3.533  17.630  0.00  0.00    +0.000 N 
ATOM      7  N   UNL     1       4.921   5.479  16.328  0.00  0.00    +0.000 NA
ATOM      8  C   UNL     1       5.223   6.756  16.009  0.00  0.00    +0.000 A 
ATOM      9  N   UNL     1       6.145   7.565  16.566  0.00  0.00    +0.000 NA
ATOM     10  C   UNL     1       6.810   6.934  17.553  0.00  0.00    +0.000 A 
ATOM     11  H   UNL     1       5.917   3.269  18.480  0.00  0.00    +0.000 HD
ENDROOT
BRANCH   1  13
ATOM     12  C   UNL     1       8.956   9.357  19.355  0.00  0.00    +0.000 C 
ATOM     13  C   UNL     1       8.379   8.723  18.317  0.00  0.00    +0.000 C 
BRANCH  12  24
ATOM     14  O   UNL     1      10.221  10.675  17.082  0.00  0.00    +0.000 OA
ATOM     15  C   UNL     1      10.193  11.268  18.156  0.00  0.00    +0.000 A 
ATOM     16  O   UNL     1      10.770  12.525  18.269  0.00  0.00    +0.000 OA
ATOM     17  C   UNL     1      10.652  13.302  19.432  0.00  0.00    +0.000 A 
ATOM     18  C   UNL     1      11.224  14.575  19.382  0.00  0.00    +0.000 A 
ATOM     19  C   UNL     1      11.130  15.408  20.492  0.00  0.00    +0.000 A 
ATOM     20  C   UNL     1      10.462  14.963  21.629  0.00  0.00    +0.000 A 
ATOM     21  C   UNL     1       9.889  13.683  21.660  0.00  0.00    +0.000 A 
ATOM     22  C   UNL     1       9.983  12.822  20.555  0.00  0.00    +0.000 A 
ATOM     23  C   UNL     1       9.429  11.462  20.487  0.00  0.00    +0.000 A 
ATOM     24  C   UNL     1       9.545  10.702  19.376  0.00  0.00    +0.000 A 
BRANCH  23  25
ATOM     25  O   UNL     1       8.797  10.952  21.614  0.00  0.00    +0.000 OA
ATOM     26  H   UNL     1       8.116  10.313  21.361  0.00  0.00    +0.000 HD
ENDBRANCH  23  25
ENDBRANCH  12  24
ENDBRANCH   1  13
BRANCH   6  27
ATOM     27  C   UNL     1       4.094   2.982  17.496  0.00  0.00    +0.000 C 
BRANCH  27  28
ATOM     28  C   UNL     1       3.334   3.233  18.781  0.00  0.00    +0.000 A 
ATOM     29  C   UNL     1       3.629   2.531  19.957  0.00  0.00    +0.000 A 
ATOM     30  C   UNL     1       2.918   2.798  21.133  0.00  0.00    +0.000 A 
ATOM     31  C   UNL     1       1.913   3.764  21.143  0.00  0.00    +0.000 A 
ATOM     32  C   UNL     1       1.613   4.468  19.980  0.00  0.00    +0.000 A 
ATOM     33  C   UNL     1       2.321   4.207  18.808  0.00  0.00    +0.000 A 
ENDBRANCH  27  28
ENDBRANCH   6  27
TORSDOF 5
ENDMDL
MODEL 6
REMARK VINA RESULT:      -8.3      9.343     11.056
REMARK  Name = 
REMARK  5 active torsions:
REMARK  status: ('A' for Active; 'I' for Inactive)
REMARK    1  A    between atoms: C_10  and  O_11
REMARK    2  A    between atoms: C_12  and  C_13
REMARK    3  A    between atoms: C_14  and  N_15
REMARK    4  A    between atoms: N_20  and  C_21
REMARK    5  A    between atoms: C_21  and  C_22
REMARK                            x       y       z     vdW  Elec       q    Type
REMARK                         _______ _______ _______ _____ _____    ______ ____
ROOT
ATOM      1  N   UNL     1       7.733   7.510  18.220  0.00  0.00    +0.000 N 
ATOM      2  C   UNL     1       8.127   6.468  19.046  0.00  0.00    +0.000 A 
ATOM      3  N   UNL     1       7.451   5.357  18.856  0.00  0.00    +0.000 NA
ATOM      4  C   UNL     1       6.575   5.664  17.845  0.00  0.00    +0.000 A 
ATOM      5  C   UNL     1       5.602   4.879  17.198  0.00  0.00    +0.000 A 
ATOM      6  N   UNL     1       5.450   3.535  17.512  0.00  0.00    +0.000 N 
ATOM      7  N   UNL     1       4.874   5.464  16.215  0.00  0.00    +0.000 NA
ATOM      8  C   UNL     1       5.132   6.751  15.894  0.00  0.00    +0.000 A 
ATOM      9  N   UNL     1       6.031   7.589  16.447  0.00  0.00    +0.000 NA
ATOM     10  C   UNL     1       6.723   6.979  17.429  0.00  0.00    +0.000 A 
ATOM     11  H   UNL     1       5.954   3.287  18.359  0.00  0.00    +0.000 HD
ENDROOT
BRANCH   1  13
ATOM     12  C   UNL     1       8.961   9.405  19.156  0.00  0.00    +0.000 C 
ATOM     13  C   UNL     1       8.238   8.817  18.184  0.00  0.00    +0.000 C 
BRANCH  12  24
ATOM     14  O   UNL     1       8.853  11.243  21.418  0.00  0.00    +0.000 OA
ATOM     15  C   UNL     1       9.377  11.631  20.379  0.00  0.00    +0.000 A 
ATOM     16  O   UNL     1       9.883  12.921  20.296  0.00  0.00    +0.000 OA
ATOM     17  C   UNL     1      10.608  13.372  19.182  0.00  0.00    +0.000 A 
ATOM     18  C   UNL     1      11.116  14.670  19.264  0.00  0.00    +0.000 A 
ATOM     19  C   UNL     1      11.861  15.178  18.205  0.00  0.00    +0.000 A 
ATOM     20  C   UNL     1      12.092  14.383  17.085  0.00  0.00    +0.000 A 
ATOM     21  C   UNL     1      11.578  13.079  17.023  0.00  0.00    +0.000 A 
ATOM     22  C   UNL     1      10.814  12.552  18.076  0.00  0.00    +0.000 A 
ATOM     23  C   UNL     1      10.222  11.207  18.106  0.00  0.00    +0.000 A 
ATOM     24  C   UNL     1       9.515  10.765  19.170  0.00  0.00    +0.000 A 
BRANCH  23  25
ATOM     25  O   UNL     1      10.381  10.393  16.992  0.00  0.00    +0.000 OA
ATOM     26  H   UNL     1      10.351  10.919  16.180  0.00  0.00    +0.000 HD
ENDBRANCH  23  25
ENDBRANCH  12  24
ENDBRANCH   1  13
BRANCH   6  27
ATOM     27  C   UNL     1       4.134   2.942  17.386  0.00  0.00    +0.000 C 
BRANCH  27  28
ATOM     28  C   UNL     1       3.372   3.176  18.672  0.00  0.00    +0.000 A 
ATOM     29  C   UNL     1       3.744   2.553  19.870  0.00  0.00    +0.000 A 
ATOM     30  C   UNL     1       3.026   2.803  21.047  0.00  0.00    +0.000 A 
ATOM     31  C   UNL     1       1.938   3.674  21.035  0.00  0.00    +0.000 A 
ATOM     32  C   UNL     1       1.561   4.300  19.850  0.00  0.00    +0.000 A 
ATOM     33  C   UNL     1       2.275   4.055  18.677  0.00  0.00    +0.000 A 
ENDBRANCH  27  28
ENDBRANCH   6  27
TORSDOF 5
ENDMDL
MODEL 7
REMARK VINA RESULT:      -8.3      3.695     10.762
REMARK  Name = 
REMARK  5 active torsions:
REMARK  status: ('A' for Active; 'I' for Inactive)
REMARK    1  A    between atoms: C_10  and  O_11
REMARK    2  A    between atoms: C_12  and  C_13
REMARK    3  A    between atoms: C_14  and  N_15
REMARK    4  A    between atoms: N_20  and  C_21
REMARK    5  A    between atoms: C_21  and  C_22
REMARK                            x       y       z     vdW  Elec       q    Type
REMARK                         _______ _______ _______ _____ _____    ______ ____
ROOT
ATOM      1  N   UNL     1       0.341   9.998  21.728  0.00  0.00    +0.000 N 
ATOM      2  C   UNL     1      -0.043   9.708  23.029  0.00  0.00    +0.000 A 
ATOM      3  N   UNL     1      -0.992  10.494  23.487  0.00  0.00    +0.000 NA
ATOM      4  C   UNL     1      -1.267  11.338  22.439  0.00  0.00    +0.000 A 
ATOM      5  C   UNL     1      -2.197  12.387  22.321  0.00  0.00    +0.000 A 
ATOM      6  N   UNL     1      -3.080  12.673  23.354  0.00  0.00    +0.000 N 
ATOM      7  N   UNL     1      -2.244  13.056  21.142  0.00  0.00    +0.000 NA
ATOM      8  C   UNL     1      -1.420  12.670  20.144  0.00  0.00    +0.000 A 
ATOM      9  N   UNL     1      -0.496  11.689  20.151  0.00  0.00    +0.000 NA
ATOM     10  C   UNL     1      -0.466  11.059  21.342  0.00  0.00    +0.000 A 
ATOM     11  H   UNL     1      -2.823  12.194  24.212  0.00  0.00    +0.000 HD
ENDROOT
BRANCH   1  13
ATOM     12  C   UNL     1       1.111   8.429  20.018  0.00  0.00    +0.000 C 
ATOM     13  C   UNL     1       1.330   9.363  20.961  0.00  0.00    +0.000 C 
BRANCH  12  24
ATOM     14  O   UNL     1       2.172   9.416  17.487  0.00  0.00    +0.000 OA
ATOM     15  C   UNL     1       2.557   8.324  17.891  0.00  0.00    +0.000 A 
ATOM     16  O   UNL     1       3.461   7.585  17.141  0.00  0.00    +0.000 OA
ATOM     17  C   UNL     1       4.034   6.394  17.617  0.00  0.00    +0.000 A 
ATOM     18  C   UNL     1       4.979   5.792  16.784  0.00  0.00    +0.000 A 
ATOM     19  C   UNL     1       5.602   4.620  17.198  0.00  0.00    +0.000 A 
ATOM     20  C   UNL     1       5.279   4.071  18.436  0.00  0.00    +0.000 A 
ATOM     21  C   UNL     1       4.331   4.694  19.262  0.00  0.00    +0.000 A 
ATOM     22  C   UNL     1       3.682   5.870  18.857  0.00  0.00    +0.000 A 
ATOM     23  C   UNL     1       2.669   6.594  19.639  0.00  0.00    +0.000 A 
ATOM     24  C   UNL     1       2.104   7.736  19.187  0.00  0.00    +0.000 A 
BRANCH  23  25
ATOM     25  O   UNL     1       2.275   6.061  20.859  0.00  0.00    +0.000 OA
ATOM     26  H   UNL     1       1.759   5.252  20.726  0.00  0.00    +0.000 HD
ENDBRANCH  23  25
ENDBRANCH  12  24
ENDBRANCH   1  13
BRANCH   6  27
ATOM     27  C   UNL     1      -3.521  14.042  23.525  0.00  0.00    +0.000 C 
BRANCH  27  28
ATOM     28  C   UNL     1      -5.021  14.047  23.727  0.00  0.00    +0.000 A 
ATOM     29  C   UNL     1      -5.767  15.230  23.659  0.00  0.00    +0.000 A 
ATOM     30  C   UNL     1      -7.157  15.198  23.835  0.00  0.00    +0.000 A 
ATOM     31  C   UNL     1      -7.806  13.989  24.079  0.00  0.00    +0.000 A 
ATOM     32  C   UNL     1      -7.073  12.807  24.148  0.00  0.00    +0.000 A 
ATOM     33  C   UNL     1      -5.691  12.835  23.969  0.00  0.00    +0.000 A 
ENDBRANCH  27  28
ENDBRANCH   6  27
TORSDOF 5
ENDMDL
MODEL 8
REMARK VINA RESULT:      -8.2      1.175      1.342
REMARK  Name = 
REMARK  5 active torsions:
REMARK  status: ('A' for Active; 'I' for Inactive)
REMARK    1  A    between atoms: C_10  and  O_11
REMARK    2  A    between atoms: C_12  and  C_13
REMARK    3  A    between atoms: C_14  and  N_15
REMARK    4  A    between atoms: N_20  and  C_21
REMARK    5  A    between atoms: C_21  and  C_22
REMARK                            x       y       z     vdW  Elec       q    Type
REMARK                         _______ _______ _______ _____ _____    ______ ____
ROOT
ATOM      1  N   UNL     1       0.168  10.173  21.227  0.00  0.00    +0.000 N 
ATOM      2  C   UNL     1       0.396   9.071  22.039  0.00  0.00    +0.000 A 
ATOM      3  N   UNL     1       1.096   8.123  21.459  0.00  0.00    +0.000 NA
ATOM      4  C   UNL     1       1.364   8.619  20.206  0.00  0.00    +0.000 A 
ATOM      5  C   UNL     1       2.085   8.067  19.131  0.00  0.00    +0.000 A 
ATOM      6  N   UNL     1       2.728   6.844  19.261  0.00  0.00    +0.000 N 
ATOM      7  N   UNL     1       2.185   8.804  17.997  0.00  0.00    +0.000 NA
ATOM      8  C   UNL     1       1.612  10.027  17.965  0.00  0.00    +0.000 A 
ATOM      9  N   UNL     1       0.901  10.646  18.929  0.00  0.00    +0.000 NA
ATOM     10  C   UNL     1       0.809   9.878  20.032  0.00  0.00    +0.000 A 
ATOM     11  H   UNL     1       2.438   6.353  20.103  0.00  0.00    +0.000 HD
ENDROOT
BRANCH   1  13
ATOM     12  C   UNL     1      -0.874  11.751  22.778  0.00  0.00    +0.000 C 
ATOM     13  C   UNL     1      -0.553  11.336  21.538  0.00  0.00    +0.000 C 
BRANCH  12  24
ATOM     14  O   UNL     1      -3.610  11.784  23.789  0.00  0.00    +0.000 OA
ATOM     15  C   UNL     1      -3.032  12.857  23.640  0.00  0.00    +0.000 A 
ATOM     16  O   UNL     1      -3.687  14.044  23.934  0.00  0.00    +0.000 OA
ATOM     17  C   UNL     1      -3.034  15.287  23.909  0.00  0.00    +0.000 A 
ATOM     18  C   UNL     1      -3.798  16.391  24.293  0.00  0.00    +0.000 A 
ATOM     19  C   UNL     1      -3.212  17.651  24.310  0.00  0.00    +0.000 A 
ATOM     20  C   UNL     1      -1.875  17.791  23.951  0.00  0.00    +0.000 A 
ATOM     21  C   UNL     1      -1.121  16.670  23.573  0.00  0.00    +0.000 A 
ATOM     22  C   UNL     1      -1.697  15.391  23.538  0.00  0.00    +0.000 A 
ATOM     23  C   UNL     1      -1.001  14.156  23.147  0.00  0.00    +0.000 A 
ATOM     24  C   UNL     1      -1.622  12.956  23.159  0.00  0.00    +0.000 A 
BRANCH  23  25
ATOM     25  O   UNL     1       0.321  14.249  22.732  0.00  0.00    +0.000 OA
ATOM     26  H   UNL     1       0.565  15.174  22.582  0.00  0.00    +0.000 HD
ENDBRANCH  23  25
ENDBRANCH  12  24
ENDBRANCH   1  13
BRANCH   6  27
ATOM     27  C   UNL     1       2.870   6.011  18.085  0.00  0.00    +0.000 C 
BRANCH  27  28
ATOM     28  C   UNL     1       2.335   4.631  18.400  0.00  0.00    +0.000 A 
ATOM     29  C   UNL     1       1.460   4.410  19.472  0.00  0.00    +0.000 A 
ATOM     30  C   UNL     1       0.970   3.123  19.728  0.00  0.00    +0.000 A 
ATOM     31  C   UNL     1       1.349   2.053  18.918  0.00  0.00    +0.000 A 
ATOM     32  C   UNL     1       2.217   2.262  17.850  0.00  0.00    +0.000 A 
ATOM     33  C   UNL     1       2.704   3.543  17.591  0.00  0.00    +0.000 A 
ENDBRANCH  27  28
ENDBRANCH   6  27
TORSDOF 5
ENDMDL
MODEL 9
REMARK VINA RESULT:      -8.2      3.789     10.804
REMARK  Name = 
REMARK  5 active torsions:
REMARK  status: ('A' for Active; 'I' for Inactive)
REMARK    1  A    between atoms: C_10  and  O_11
REMARK    2  A    between atoms: C_12  and  C_13
REMARK    3  A    between atoms: C_14  and  N_15
REMARK    4  A    between atoms: N_20  and  C_21
REMARK    5  A    between atoms: C_21  and  C_22
REMARK                            x       y       z     vdW  Elec       q    Type
REMARK                         _______ _______ _______ _____ _____    ______ ____
ROOT
ATOM      1  N   UNL     1       0.575   9.487  21.712  0.00  0.00    +0.000 N 
ATOM      2  C   UNL     1       0.297   9.386  23.067  0.00  0.00    +0.000 A 
ATOM      3  N   UNL     1      -0.594  10.255  23.490  0.00  0.00    +0.000 NA
ATOM      4  C   UNL     1      -0.939  10.960  22.363  0.00  0.00    +0.000 A 
ATOM      5  C   UNL     1      -1.855  12.013  22.179  0.00  0.00    +0.000 A 
ATOM      6  N   UNL     1      -2.641  12.462  23.232  0.00  0.00    +0.000 N 
ATOM      7  N   UNL     1      -1.988  12.519  20.928  0.00  0.00    +0.000 NA
ATOM      8  C   UNL     1      -1.259  11.977  19.928  0.00  0.00    +0.000 A 
ATOM      9  N   UNL     1      -0.358  10.977  19.993  0.00  0.00    +0.000 NA
ATOM     10  C   UNL     1      -0.241  10.512  21.252  0.00  0.00    +0.000 A 
ATOM     11  H   UNL     1      -2.322  12.094  24.124  0.00  0.00    +0.000 HD
ENDROOT
BRANCH   1  13
ATOM     12  C   UNL     1       1.343   7.423  20.650  0.00  0.00    +0.000 C 
ATOM     13  C   UNL     1       1.482   8.725  20.961  0.00  0.00    +0.000 C 
BRANCH  12  24
ATOM     14  O   UNL     1       1.892   4.606  21.170  0.00  0.00    +0.000 OA
ATOM     15  C   UNL     1       2.484   5.151  20.243  0.00  0.00    +0.000 A 
ATOM     16  O   UNL     1       3.399   4.435  19.486  0.00  0.00    +0.000 OA
ATOM     17  C   UNL     1       4.003   4.969  18.337  0.00  0.00    +0.000 A 
ATOM     18  C   UNL     1       4.853   4.112  17.634  0.00  0.00    +0.000 A 
ATOM     19  C   UNL     1       5.472   4.567  16.475  0.00  0.00    +0.000 A 
ATOM     20  C   UNL     1       5.230   5.864  16.032  0.00  0.00    +0.000 A 
ATOM     21  C   UNL     1       4.370   6.710  16.748  0.00  0.00    +0.000 A 
ATOM     22  C   UNL     1       3.745   6.274  17.927  0.00  0.00    +0.000 A 
ATOM     23  C   UNL     1       2.837   7.081  18.756  0.00  0.00    +0.000 A 
ATOM     24  C   UNL     1       2.257   6.579  19.869  0.00  0.00    +0.000 A 
BRANCH  23  25
ATOM     25  O   UNL     1       2.603   8.398  18.385  0.00  0.00    +0.000 OA
ATOM     26  H   UNL     1       3.438   8.851  18.197  0.00  0.00    +0.000 HD
ENDBRANCH  23  25
ENDBRANCH  12  24
ENDBRANCH   1  13
BRANCH   6  27
ATOM     27  C   UNL     1      -3.039  13.855  23.251  0.00  0.00    +0.000 C 
BRANCH  27  28
ATOM     28  C   UNL     1      -4.520  13.932  23.550  0.00  0.00    +0.000 A 
ATOM     29  C   UNL     1      -5.204  15.155  23.559  0.00  0.00    +0.000 A 
ATOM     30  C   UNL     1      -6.579  15.191  23.824  0.00  0.00    +0.000 A 
ATOM     31  C   UNL     1      -7.276  14.011  24.080  0.00  0.00    +0.000 A 
ATOM     32  C   UNL     1      -6.606  12.791  24.072  0.00  0.00    +0.000 A 
ATOM     33  C   UNL     1      -5.238  12.752  23.805  0.00  0.00    +0.000 A 
ENDBRANCH  27  28
ENDBRANCH   6  27
TORSDOF 5
ENDMDL
