MODEL 1
REMARK VINA RESULT:      -7.2      0.000      0.000
REMARK  Name = 
REMARK  4 active torsions:
REMARK  status: ('A' for Active; 'I' for Inactive)
REMARK    1  A    between atoms: C_1  and  C_2
REMARK    2  A    between atoms: C_7  and  C_9
REMARK    3  A    between atoms: C_10  and  C_11
REMARK    4  A    between atoms: C_14  and  C_15
REMARK                            x       y       z     vdW  Elec       q    Type
REMARK                         _______ _______ _______ _____ _____    ______ ____
ROOT
ATOM      1  C   UNL     1       6.970   3.982  12.326  0.00  0.00    +0.000 C 
ATOM      2  C   UNL     1       6.645   4.404  13.713  0.00  0.00    +0.000 A 
ATOM      3  C   UNL     1       5.628   3.896  14.495  0.00  0.00    +0.000 A 
ATOM      4  S   UNL     1       5.654   4.629  16.033  0.00  0.00    +0.000 S 
ATOM      5  C   UNL     1       7.014   5.552  15.573  0.00  0.00    +0.000 A 
ATOM      6  N   UNL     1       7.623   6.447  16.429  0.00  0.00    +0.000 N 
ATOM      7  C   UNL     1       7.424   6.501  17.788  0.00  0.00    +0.000 C 
ATOM      8  O   UNL     1       6.724   5.752  18.459  0.00  0.00    +0.000 OA
ATOM      9  N   UNL     1       7.413   5.388  14.332  0.00  0.00    +0.000 NA
ATOM     10  H   UNL     1       8.328   7.015  15.983  0.00  0.00    +0.000 HD
ENDROOT
BRANCH   7  11
ATOM     11  C   UNL     1       8.205   7.581  18.460  0.00  0.00    +0.000 C 
ATOM     12  C   UNL     1       8.129   8.812  17.930  0.00  0.00    +0.000 C 
BRANCH  12  13
ATOM     13  C   UNL     1       8.833   9.926  18.457  0.00  0.00    +0.000 A 
ATOM     14  C   UNL     1       9.265  10.111  19.766  0.00  0.00    +0.000 A 
ATOM     15  C   UNL     1       9.916  11.362  19.843  0.00  0.00    +0.000 A 
ATOM     16  C   UNL     1       9.857  11.893  18.578  0.00  0.00    +0.000 A 
ATOM     17  C   UNL     1      10.343  13.156  17.990  0.00  0.00    +0.000 C 
ATOM     18  O   UNL     1       9.210  11.039  17.738  0.00  0.00    +0.000 OA
ENDBRANCH  12  13
ENDBRANCH   7  11
TORSDOF 2
ENDMDL
MODEL 2
REMARK VINA RESULT:      -7.2      2.412      3.020
REMARK  Name = 
REMARK  4 active torsions:
REMARK  status: ('A' for Active; 'I' for Inactive)
REMARK    1  A    between atoms: C_1  and  C_2
REMARK    2  A    between atoms: C_7  and  C_9
REMARK    3  A    between atoms: C_10  and  C_11
REMARK    4  A    between atoms: C_14  and  C_15
REMARK                            x       y       z     vdW  Elec       q    Type
REMARK                         _______ _______ _______ _____ _____    ______ ____
ROOT
ATOM      1  C   UNL     1       3.648   2.430  19.411  0.00  0.00    +0.000 C 
ATOM      2  C   UNL     1       4.423   3.363  18.554  0.00  0.00    +0.000 A 
ATOM      3  C   UNL     1       4.292   3.502  17.187  0.00  0.00    +0.000 A 
ATOM      4  S   UNL     1       5.338   4.724  16.623  0.00  0.00    +0.000 S 
ATOM      5  C   UNL     1       5.878   5.001  18.219  0.00  0.00    +0.000 A 
ATOM      6  N   UNL     1       6.822   5.960  18.523  0.00  0.00    +0.000 N 
ATOM      7  C   UNL     1       7.217   6.975  17.682  0.00  0.00    +0.000 C 
ATOM      8  O   UNL     1       6.774   7.219  16.566  0.00  0.00    +0.000 OA
ATOM      9  N   UNL     1       5.370   4.205  19.132  0.00  0.00    +0.000 NA
ATOM     10  H   UNL     1       7.141   5.923  19.479  0.00  0.00    +0.000 HD
ENDROOT
BRANCH   7  11
ATOM     11  C   UNL     1       8.265   7.859  18.270  0.00  0.00    +0.000 C 
ATOM     12  C   UNL     1       8.192   9.169  17.986  0.00  0.00    +0.000 C 
BRANCH  12  13
ATOM     13  C   UNL     1       9.133  10.118  18.465  0.00  0.00    +0.000 A 
ATOM     14  C   UNL     1       9.450  10.401  19.790  0.00  0.00    +0.000 A 
ATOM     15  C   UNL     1      10.432  11.416  19.801  0.00  0.00    +0.000 A 
ATOM     16  C   UNL     1      10.679  11.712  18.483  0.00  0.00    +0.000 A 
ATOM     17  C   UNL     1      11.585  12.667  17.817  0.00  0.00    +0.000 C 
ATOM     18  O   UNL     1       9.906  10.939  17.672  0.00  0.00    +0.000 OA
ENDBRANCH  12  13
ENDBRANCH   7  11
TORSDOF 2
ENDMDL
MODEL 3
REMARK VINA RESULT:      -7.0      2.338      2.958
REMARK  Name = 
REMARK  4 active torsions:
REMARK  status: ('A' for Active; 'I' for Inactive)
REMARK    1  A    between atoms: C_1  and  C_2
REMARK    2  A    between atoms: C_7  and  C_9
REMARK    3  A    between atoms: C_10  and  C_11
REMARK    4  A    between atoms: C_14  and  C_15
REMARK                            x       y       z     vdW  Elec       q    Type
REMARK                         _______ _______ _______ _____ _____    ______ ____
ROOT
ATOM      1  C   UNL     1       1.737   4.138  18.179  0.00  0.00    +0.000 C 
ATOM      2  C   UNL     1       3.139   4.342  17.732  0.00  0.00    +0.000 A 
ATOM      3  C   UNL     1       3.781   3.631  16.739  0.00  0.00    +0.000 A 
ATOM      4  S   UNL     1       5.360   4.235  16.520  0.00  0.00    +0.000 S 
ATOM      5  C   UNL     1       5.084   5.404  17.733  0.00  0.00    +0.000 A 
ATOM      6  N   UNL     1       6.042   6.325  18.103  0.00  0.00    +0.000 N 
ATOM      7  C   UNL     1       7.179   6.615  17.384  0.00  0.00    +0.000 C 
ATOM      8  O   UNL     1       7.501   6.148  16.298  0.00  0.00    +0.000 OA
ATOM      9  N   UNL     1       3.914   5.335  18.326  0.00  0.00    +0.000 NA
ATOM     10  H   UNL     1       5.791   6.864  18.917  0.00  0.00    +0.000 HD
ENDROOT
BRANCH   7  11
ATOM     11  C   UNL     1       8.043   7.645  18.031  0.00  0.00    +0.000 C 
ATOM     12  C   UNL     1       7.832   8.926  17.688  0.00  0.00    +0.000 C 
BRANCH  12  13
ATOM     13  C   UNL     1       8.592  10.003  18.213  0.00  0.00    +0.000 A 
ATOM     14  C   UNL     1       9.416   9.990  19.335  0.00  0.00    +0.000 A 
ATOM     15  C   UNL     1       9.969  11.279  19.491  0.00  0.00    +0.000 A 
ATOM     16  C   UNL     1       9.464  12.031  18.458  0.00  0.00    +0.000 A 
ATOM     17  C   UNL     1       9.644  13.438  18.053  0.00  0.00    +0.000 C 
ATOM     18  O   UNL     1       8.637  11.275  17.685  0.00  0.00    +0.000 OA
ENDBRANCH  12  13
ENDBRANCH   7  11
TORSDOF 2
ENDMDL
MODEL 4
REMARK VINA RESULT:      -6.8      1.210      1.588
REMARK  Name = 
REMARK  4 active torsions:
REMARK  status: ('A' for Active; 'I' for Inactive)
REMARK    1  A    between atoms: C_1  and  C_2
REMARK    2  A    between atoms: C_7  and  C_9
REMARK    3  A    between atoms: C_10  and  C_11
REMARK    4  A    between atoms: C_14  and  C_15
REMARK                            x       y       z     vdW  Elec       q    Type
REMARK                         _______ _______ _______ _____ _____    ______ ____
ROOT
ATOM      1  C   UNL     1       6.017   3.698  13.172  0.00  0.00    +0.000 C 
ATOM      2  C   UNL     1       6.189   4.235  14.546  0.00  0.00    +0.000 A 
ATOM      3  C   UNL     1       6.049   3.517  15.717  0.00  0.00    +0.000 A 
ATOM      4  S   UNL     1       6.389   4.517  17.055  0.00  0.00    +0.000 S 
ATOM      5  C   UNL     1       6.715   5.821  16.003  0.00  0.00    +0.000 A 
ATOM      6  N   UNL     1       7.094   7.064  16.463  0.00  0.00    +0.000 N 
ATOM      7  C   UNL     1       7.532   7.336  17.738  0.00  0.00    +0.000 C 
ATOM      8  O   UNL     1       7.699   6.529  18.645  0.00  0.00    +0.000 OA
ATOM      9  N   UNL     1       6.533   5.573  14.725  0.00  0.00    +0.000 NA
ATOM     10  H   UNL     1       7.125   7.770  15.742  0.00  0.00    +0.000 HD
ENDROOT
BRANCH   7  11
ATOM     11  C   UNL     1       7.862   8.774  17.960  0.00  0.00    +0.000 C 
ATOM     12  C   UNL     1       8.895   9.048  18.772  0.00  0.00    +0.000 C 
BRANCH  12  13
ATOM     13  C   UNL     1       9.306  10.371  19.082  0.00  0.00    +0.000 A 
ATOM     14  C   UNL     1       9.822  11.323  18.209  0.00  0.00    +0.000 A 
ATOM     15  C   UNL     1      10.099  12.494  18.948  0.00  0.00    +0.000 A 
ATOM     16  C   UNL     1       9.740  12.213  20.243  0.00  0.00    +0.000 A 
ATOM     17  C   UNL     1       9.774  12.998  21.492  0.00  0.00    +0.000 C 
ATOM     18  O   UNL     1       9.262  10.942  20.335  0.00  0.00    +0.000 OA
ENDBRANCH  12  13
ENDBRANCH   7  11
TORSDOF 2
ENDMDL
MODEL 5
REMARK VINA RESULT:      -6.7      2.509      3.170
REMARK  Name = 
REMARK  4 active torsions:
REMARK  status: ('A' for Active; 'I' for Inactive)
REMARK    1  A    between atoms: C_1  and  C_2
REMARK    2  A    between atoms: C_7  and  C_9
REMARK    3  A    between atoms: C_10  and  C_11
REMARK    4  A    between atoms: C_14  and  C_15
REMARK                            x       y       z     vdW  Elec       q    Type
REMARK                         _______ _______ _______ _____ _____    ______ ____
ROOT
ATOM      1  C   UNL     1       1.656   4.177  17.750  0.00  0.00    +0.000 C 
ATOM      2  C   UNL     1       3.112   4.443  17.629  0.00  0.00    +0.000 A 
ATOM      3  C   UNL     1       4.086   3.502  17.365  0.00  0.00    +0.000 A 
ATOM      4  S   UNL     1       5.611   4.257  17.260  0.00  0.00    +0.000 S 
ATOM      5  C   UNL     1       4.883   5.774  17.552  0.00  0.00    +0.000 A 
ATOM      6  N   UNL     1       5.611   6.945  17.600  0.00  0.00    +0.000 N 
ATOM      7  C   UNL     1       6.902   7.093  17.148  0.00  0.00    +0.000 C 
ATOM      8  O   UNL     1       7.590   6.242  16.598  0.00  0.00    +0.000 OA
ATOM      9  N   UNL     1       3.589   5.744  17.776  0.00  0.00    +0.000 NA
ATOM     10  H   UNL     1       5.074   7.741  17.910  0.00  0.00    +0.000 HD
ENDROOT
BRANCH   7  11
ATOM     11  C   UNL     1       7.443   8.470  17.340  0.00  0.00    +0.000 C 
ATOM     12  C   UNL     1       8.313   8.651  18.347  0.00  0.00    +0.000 C 
BRANCH  12  13
ATOM     13  C   UNL     1       8.892   9.911  18.652  0.00  0.00    +0.000 A 
ATOM     14  C   UNL     1       8.969  11.028  17.826  0.00  0.00    +0.000 A 
ATOM     15  C   UNL     1       9.630  12.055  18.536  0.00  0.00    +0.000 A 
ATOM     16  C   UNL     1       9.930  11.526  19.767  0.00  0.00    +0.000 A 
ATOM     17  C   UNL     1      10.606  12.069  20.961  0.00  0.00    +0.000 C 
ATOM     18  O   UNL     1       9.490  10.240  19.848  0.00  0.00    +0.000 OA
ENDBRANCH  12  13
ENDBRANCH   7  11
TORSDOF 2
ENDMDL
MODEL 6
REMARK VINA RESULT:      -6.5      1.918      2.967
REMARK  Name = 
REMARK  4 active torsions:
REMARK  status: ('A' for Active; 'I' for Inactive)
REMARK    1  A    between atoms: C_1  and  C_2
REMARK    2  A    between atoms: C_7  and  C_9
REMARK    3  A    between atoms: C_10  and  C_11
REMARK    4  A    between atoms: C_14  and  C_15
REMARK                            x       y       z     vdW  Elec       q    Type
REMARK                         _______ _______ _______ _____ _____    ______ ____
ROOT
ATOM      1  C   UNL     1       6.089   3.892  15.479  0.00  0.00    +0.000 C 
ATOM      2  C   UNL     1       6.575   4.843  16.511  0.00  0.00    +0.000 A 
ATOM      3  C   UNL     1       6.912   4.521  17.810  0.00  0.00    +0.000 A 
ATOM      4  S   UNL     1       7.470   5.910  18.627  0.00  0.00    +0.000 S 
ATOM      5  C   UNL     1       7.247   6.836  17.210  0.00  0.00    +0.000 A 
ATOM      6  N   UNL     1       7.538   8.183  17.156  0.00  0.00    +0.000 N 
ATOM      7  C   UNL     1       8.287   8.869  18.083  0.00  0.00    +0.000 C 
ATOM      8  O   UNL     1       8.848   8.400  19.066  0.00  0.00    +0.000 OA
ATOM      9  N   UNL     1       6.733   6.189  16.189  0.00  0.00    +0.000 NA
ATOM     10  H   UNL     1       7.234   8.627  16.302  0.00  0.00    +0.000 HD
ENDROOT
BRANCH   7  11
ATOM     11  C   UNL     1       8.428  10.322  17.776  0.00  0.00    +0.000 C 
ATOM     12  C   UNL     1       9.529  10.941  18.232  0.00  0.00    +0.000 C 
BRANCH  12  13
ATOM     13  C   UNL     1       9.781  12.323  18.026  0.00  0.00    +0.000 A 
ATOM     14  C   UNL     1      10.852  12.895  17.348  0.00  0.00    +0.000 A 
ATOM     15  C   UNL     1      10.703  14.299  17.394  0.00  0.00    +0.000 A 
ATOM     16  C   UNL     1       9.546  14.530  18.098  0.00  0.00    +0.000 A 
ATOM     17  C   UNL     1       8.836  15.760  18.494  0.00  0.00    +0.000 C 
ATOM     18  O   UNL     1       8.984  13.350  18.481  0.00  0.00    +0.000 OA
ENDBRANCH  12  13
ENDBRANCH   7  11
TORSDOF 2
ENDMDL
MODEL 7
REMARK VINA RESULT:      -6.5      5.822      8.403
REMARK  Name = 
REMARK  4 active torsions:
REMARK  status: ('A' for Active; 'I' for Inactive)
REMARK    1  A    between atoms: C_1  and  C_2
REMARK    2  A    between atoms: C_7  and  C_9
REMARK    3  A    between atoms: C_10  and  C_11
REMARK    4  A    between atoms: C_14  and  C_15
REMARK                            x       y       z     vdW  Elec       q    Type
REMARK                         _______ _______ _______ _____ _____    ______ ____
ROOT
ATOM      1  C   UNL     1      -0.088   9.610  23.294  0.00  0.00    +0.000 C 
ATOM      2  C   UNL     1       0.260   9.476  21.856  0.00  0.00    +0.000 A 
ATOM      3  C   UNL     1      -0.157  10.316  20.843  0.00  0.00    +0.000 A 
ATOM      4  S   UNL     1       0.524   9.821  19.360  0.00  0.00    +0.000 S 
ATOM      5  C   UNL     1       1.336   8.547  20.155  0.00  0.00    +0.000 A 
ATOM      6  N   UNL     1       2.156   7.663  19.486  0.00  0.00    +0.000 N 
ATOM      7  C   UNL     1       2.649   7.849  18.215  0.00  0.00    +0.000 C 
ATOM      8  O   UNL     1       2.484   8.829  17.499  0.00  0.00    +0.000 OA
ATOM      9  N   UNL     1       1.087   8.435  21.441  0.00  0.00    +0.000 NA
ATOM     10  H   UNL     1       2.462   6.887  20.054  0.00  0.00    +0.000 HD
ENDROOT
BRANCH   7  11
ATOM     11  C   UNL     1       3.501   6.720  17.738  0.00  0.00    +0.000 C 
ATOM     12  C   UNL     1       4.504   7.023  16.898  0.00  0.00    +0.000 C 
BRANCH  12  13
ATOM     13  C   UNL     1       5.379   6.046  16.355  0.00  0.00    +0.000 A 
ATOM     14  C   UNL     1       6.478   5.457  16.973  0.00  0.00    +0.000 A 
ATOM     15  C   UNL     1       7.060   4.547  16.064  0.00  0.00    +0.000 A 
ATOM     16  C   UNL     1       6.293   4.613  14.926  0.00  0.00    +0.000 A 
ATOM     17  C   UNL     1       6.361   3.924  13.623  0.00  0.00    +0.000 C 
ATOM     18  O   UNL     1       5.281   5.509  15.090  0.00  0.00    +0.000 OA
ENDBRANCH  12  13
ENDBRANCH   7  11
TORSDOF 2
ENDMDL
MODEL 8
REMARK VINA RESULT:      -6.3      1.636      2.329
REMARK  Name = 
REMARK  4 active torsions:
REMARK  status: ('A' for Active; 'I' for Inactive)
REMARK    1  A    between atoms: C_1  and  C_2
REMARK    2  A    between atoms: C_7  and  C_9
REMARK    3  A    between atoms: C_10  and  C_11
REMARK    4  A    between atoms: C_14  and  C_15
REMARK                            x       y       z     vdW  Elec       q    Type
REMARK                         _______ _______ _______ _____ _____    ______ ____
ROOT
ATOM      1  C   UNL     1       5.314   4.136  14.892  0.00  0.00    +0.000 C 
ATOM      2  C   UNL     1       5.931   4.828  16.053  0.00  0.00    +0.000 A 
ATOM      3  C   UNL     1       6.215   4.256  17.276  0.00  0.00    +0.000 A 
ATOM      4  S   UNL     1       6.967   5.401  18.293  0.00  0.00    +0.000 S 
ATOM      5  C   UNL     1       6.883   6.566  17.047  0.00  0.00    +0.000 A 
ATOM      6  N   UNL     1       7.366   7.848  17.203  0.00  0.00    +0.000 N 
ATOM      7  C   UNL     1       8.205   8.260  18.212  0.00  0.00    +0.000 C 
ATOM      8  O   UNL     1       8.690   7.563  19.095  0.00  0.00    +0.000 OA
ATOM      9  N   UNL     1       6.283   6.172  15.947  0.00  0.00    +0.000 NA
ATOM     10  H   UNL     1       7.132   8.463  16.438  0.00  0.00    +0.000 HD
ENDROOT
BRANCH   7  11
ATOM     11  C   UNL     1       8.555   9.709  18.138  0.00  0.00    +0.000 C 
ATOM     12  C   UNL     1       9.340  10.200  19.111  0.00  0.00    +0.000 C 
BRANCH  12  13
ATOM     13  C   UNL     1       9.736  11.562  19.173  0.00  0.00    +0.000 A 
ATOM     14  C   UNL     1      10.960  12.068  19.598  0.00  0.00    +0.000 A 
ATOM     15  C   UNL     1      10.912  13.476  19.497  0.00  0.00    +0.000 A 
ATOM     16  C   UNL     1       9.662  13.775  19.013  0.00  0.00    +0.000 A 
ATOM     17  C   UNL     1       8.985  15.044  18.685  0.00  0.00    +0.000 C 
ATOM     18  O   UNL     1       8.948  12.633  18.814  0.00  0.00    +0.000 OA
ENDBRANCH  12  13
ENDBRANCH   7  11
TORSDOF 2
ENDMDL
MODEL 9
REMARK VINA RESULT:      -6.2      1.719      2.595
REMARK  Name = 
REMARK  4 active torsions:
REMARK  status: ('A' for Active; 'I' for Inactive)
REMARK    1  A    between atoms: C_1  and  C_2
REMARK    2  A    between atoms: C_7  and  C_9
REMARK    3  A    between atoms: C_10  and  C_11
REMARK    4  A    between atoms: C_14  and  C_15
REMARK                            x       y       z     vdW  Elec       q    Type
REMARK                         _______ _______ _______ _____ _____    ______ ____
ROOT
ATOM      1  C   UNL     1       5.785   4.150  15.034  0.00  0.00    +0.000 C 
ATOM      2  C   UNL     1       6.343   4.954  16.152  0.00  0.00    +0.000 A 
ATOM      3  C   UNL     1       6.723   4.467  17.386  0.00  0.00    +0.000 A 
ATOM      4  S   UNL     1       7.358   5.730  18.339  0.00  0.00    +0.000 S 
ATOM      5  C   UNL     1       7.107   6.828  17.057  0.00  0.00    +0.000 A 
ATOM      6  N   UNL     1       7.439   8.164  17.153  0.00  0.00    +0.000 N 
ATOM      7  C   UNL     1       8.247   8.710  18.122  0.00  0.00    +0.000 C 
ATOM      8  O   UNL     1       8.832   8.109  19.015  0.00  0.00    +0.000 OA
ATOM      9  N   UNL     1       6.531   6.325  15.988  0.00  0.00    +0.000 NA
ATOM     10  H   UNL     1       7.115   8.717  16.373  0.00  0.00    +0.000 HD
ENDROOT
BRANCH   7  11
ATOM     11  C   UNL     1       8.422  10.185  17.987  0.00  0.00    +0.000 C 
ATOM     12  C   UNL     1       9.436  10.747  18.665  0.00  0.00    +0.000 C 
BRANCH  12  13
ATOM     13  C   UNL     1       9.706  12.140  18.640  0.00  0.00    +0.000 A 
ATOM     14  C   UNL     1       9.321  13.093  19.578  0.00  0.00    +0.000 A 
ATOM     15  C   UNL     1       9.799  14.351  19.149  0.00  0.00    +0.000 A 
ATOM     16  C   UNL     1      10.459  14.118  17.968  0.00  0.00    +0.000 A 
ATOM     17  C   UNL     1      11.178  14.995  17.024  0.00  0.00    +0.000 C 
ATOM     18  O   UNL     1      10.410  12.794  17.653  0.00  0.00    +0.000 OA
ENDBRANCH  12  13
ENDBRANCH   7  11
TORSDOF 2
ENDMDL
