MODEL 1
REMARK VINA RESULT:      -7.7      0.000      0.000
REMARK  Name = 
REMARK  7 active torsions:
REMARK  status: ('A' for Active; 'I' for Inactive)
REMARK    1  A    between atoms: C_5  and  O_6
REMARK    2  A    between atoms: O_6  and  C_7
REMARK    3  A    between atoms: C_7  and  C_8
REMARK    4  A    between atoms: C_8  and  C_9
REMARK    5  A    between atoms: C_9  and  C_10
REMARK    6  A    between atoms: C_10  and  N_11
REMARK    7  A    between atoms: N_18  and  C_19
REMARK                            x       y       z     vdW  Elec       q    Type
REMARK                         _______ _______ _______ _____ _____    ______ ____
ROOT
ATOM      1  O   UNL     1       2.420   3.282  16.714  0.00  0.00    +0.000 OA
ATOM      2  C   UNL     1       3.519   3.724  17.045  0.00  0.00    +0.000 A 
ATOM      3  C   UNL     1       4.401   4.166  15.941  0.00  0.00    +0.000 A 
ATOM      4  C   UNL     1       5.618   4.651  16.175  0.00  0.00    +0.000 A 
ATOM      5  C   UNL     1       6.016   4.682  17.576  0.00  0.00    +0.000 A 
ATOM      6  N   UNL     1       5.294   4.395  18.600  0.00  0.00    +0.000 NA
ATOM      7  N   UNL     1       4.010   3.927  18.344  0.00  0.00    +0.000 N 
ENDROOT
BRANCH   7   8
ATOM      8  C   UNL     1       3.221   3.691  19.520  0.00  0.00    +0.000 A 
ATOM      9  C   UNL     1       3.561   2.701  20.452  0.00  0.00    +0.000 A 
ATOM     10  C   UNL     1       2.728   2.404  21.534  0.00  0.00    +0.000 A 
ATOM     11  C   UNL     1       1.534   3.094  21.704  0.00  0.00    +0.000 A 
ATOM     12  C   UNL     1       1.195   4.110  20.815  0.00  0.00    +0.000 A 
ATOM     13  C   UNL     1       2.041   4.419  19.743  0.00  0.00    +0.000 A 
ENDBRANCH   7   8
BRANCH   5  14
ATOM     14  O   UNL     1       7.316   5.062  17.645  0.00  0.00    +0.000 OA
BRANCH  14  15
ATOM     15  C   UNL     1       7.629   6.141  18.540  0.00  0.00    +0.000 C 
BRANCH  15  16
ATOM     16  C   UNL     1       7.805   7.418  17.718  0.00  0.00    +0.000 C 
BRANCH  16  17
ATOM     17  C   UNL     1       8.392   8.547  18.573  0.00  0.00    +0.000 C 
BRANCH  17  18
ATOM     18  C   UNL     1       8.583   9.868  17.816  0.00  0.00    +0.000 C 
BRANCH  18  19
ATOM     19  N   UNL     1       9.184  10.959  18.602  0.00  0.00    +0.000 NA
ATOM     20  C   UNL     1       9.591  10.533  19.951  0.00  0.00    +0.000 C 
ATOM     21  C   UNL     1      10.173  11.699  20.755  0.00  0.00    +0.000 C 
ATOM     22  C   UNL     1      11.338  12.354  20.025  0.00  0.00    +0.000 C 
ATOM     23  C   UNL     1      10.924  12.727  18.608  0.00  0.00    +0.000 C 
ATOM     24  C   UNL     1      10.332  11.527  17.869  0.00  0.00    +0.000 C 
ENDBRANCH  18  19
ENDBRANCH  17  18
ENDBRANCH  16  17
ENDBRANCH  15  16
ENDBRANCH  14  15
ENDBRANCH   5  14
TORSDOF 7
ENDMDL
MODEL 2
REMARK VINA RESULT:      -7.5      4.933      8.574
REMARK  Name = 
REMARK  7 active torsions:
REMARK  status: ('A' for Active; 'I' for Inactive)
REMARK    1  A    between atoms: C_5  and  O_6
REMARK    2  A    between atoms: O_6  and  C_7
REMARK    3  A    between atoms: C_7  and  C_8
REMARK    4  A    between atoms: C_8  and  C_9
REMARK    5  A    between atoms: C_9  and  C_10
REMARK    6  A    between atoms: C_10  and  N_11
REMARK    7  A    between atoms: N_18  and  C_19
REMARK                            x       y       z     vdW  Elec       q    Type
REMARK                         _______ _______ _______ _____ _____    ______ ____
ROOT
ATOM      1  O   UNL     1       0.588   8.946  21.329  0.00  0.00    +0.000 OA
ATOM      2  C   UNL     1       1.214   8.647  20.314  0.00  0.00    +0.000 A 
ATOM      3  C   UNL     1       1.876   7.323  20.324  0.00  0.00    +0.000 A 
ATOM      4  C   UNL     1       2.592   6.896  19.287  0.00  0.00    +0.000 A 
ATOM      5  C   UNL     1       2.696   7.831  18.175  0.00  0.00    +0.000 A 
ATOM      6  N   UNL     1       2.096   8.961  18.046  0.00  0.00    +0.000 NA
ATOM      7  N   UNL     1       1.319   9.379  19.120  0.00  0.00    +0.000 N 
ENDROOT
BRANCH   7   8
ATOM      8  C   UNL     1       0.613  10.608  18.897  0.00  0.00    +0.000 A 
ATOM      9  C   UNL     1      -0.744  10.629  18.546  0.00  0.00    +0.000 A 
ATOM     10  C   UNL     1      -1.393  11.824  18.223  0.00  0.00    +0.000 A 
ATOM     11  C   UNL     1      -0.695  13.026  18.246  0.00  0.00    +0.000 A 
ATOM     12  C   UNL     1       0.643  13.035  18.634  0.00  0.00    +0.000 A 
ATOM     13  C   UNL     1       1.285  11.839  18.976  0.00  0.00    +0.000 A 
ENDBRANCH   7   8
BRANCH   5  14
ATOM     14  O   UNL     1       3.562   7.322  17.264  0.00  0.00    +0.000 OA
BRANCH  14  15
ATOM     15  C   UNL     1       4.479   6.320  17.731  0.00  0.00    +0.000 C 
BRANCH  15  16
ATOM     16  C   UNL     1       4.856   5.422  16.553  0.00  0.00    +0.000 C 
BRANCH  16  17
ATOM     17  C   UNL     1       4.340   3.993  16.763  0.00  0.00    +0.000 C 
BRANCH  17  18
ATOM     18  C   UNL     1       4.586   3.441  18.173  0.00  0.00    +0.000 C 
BRANCH  18  19
ATOM     19  N   UNL     1       3.386   2.950  18.873  0.00  0.00    +0.000 NA
ATOM     20  C   UNL     1       3.259   3.493  20.236  0.00  0.00    +0.000 C 
ATOM     21  C   UNL     1       2.026   2.930  20.948  0.00  0.00    +0.000 C 
ATOM     22  C   UNL     1       0.755   3.184  20.149  0.00  0.00    +0.000 C 
ATOM     23  C   UNL     1       0.925   2.681  18.722  0.00  0.00    +0.000 C 
ATOM     24  C   UNL     1       2.184   3.261  18.076  0.00  0.00    +0.000 C 
ENDBRANCH  18  19
ENDBRANCH  17  18
ENDBRANCH  16  17
ENDBRANCH  15  16
ENDBRANCH  14  15
ENDBRANCH   5  14
TORSDOF 7
ENDMDL
MODEL 3
REMARK VINA RESULT:      -7.5      4.192      8.259
REMARK  Name = 
REMARK  7 active torsions:
REMARK  status: ('A' for Active; 'I' for Inactive)
REMARK    1  A    between atoms: C_5  and  O_6
REMARK    2  A    between atoms: O_6  and  C_7
REMARK    3  A    between atoms: C_7  and  C_8
REMARK    4  A    between atoms: C_8  and  C_9
REMARK    5  A    between atoms: C_9  and  C_10
REMARK    6  A    between atoms: C_10  and  N_11
REMARK    7  A    between atoms: N_18  and  C_19
REMARK                            x       y       z     vdW  Elec       q    Type
REMARK                         _______ _______ _______ _____ _____    ______ ____
ROOT
ATOM      1  O   UNL     1       8.158   4.124  17.046  0.00  0.00    +0.000 OA
ATOM      2  C   UNL     1       7.149   4.827  17.065  0.00  0.00    +0.000 A 
ATOM      3  C   UNL     1       6.814   5.449  18.366  0.00  0.00    +0.000 A 
ATOM      4  C   UNL     1       5.740   6.220  18.511  0.00  0.00    +0.000 A 
ATOM      5  C   UNL     1       4.919   6.376  17.318  0.00  0.00    +0.000 A 
ATOM      6  N   UNL     1       5.171   5.942  16.134  0.00  0.00    +0.000 NA
ATOM      7  N   UNL     1       6.318   5.170  15.986  0.00  0.00    +0.000 N 
ENDROOT
BRANCH   7   8
ATOM      8  C   UNL     1       6.593   4.772  14.635  0.00  0.00    +0.000 A 
ATOM      9  C   UNL     1       7.582   5.399  13.866  0.00  0.00    +0.000 A 
ATOM     10  C   UNL     1       7.768   5.080  12.518  0.00  0.00    +0.000 A 
ATOM     11  C   UNL     1       6.963   4.123  11.911  0.00  0.00    +0.000 A 
ATOM     12  C   UNL     1       6.001   3.455  12.666  0.00  0.00    +0.000 A 
ATOM     13  C   UNL     1       5.832   3.763  14.022  0.00  0.00    +0.000 A 
ENDBRANCH   7   8
BRANCH   5  14
ATOM     14  O   UNL     1       3.799   7.063  17.653  0.00  0.00    +0.000 OA
BRANCH  14  15
ATOM     15  C   UNL     1       2.710   6.301  18.197  0.00  0.00    +0.000 C 
BRANCH  15  16
ATOM     16  C   UNL     1       2.692   6.496  19.713  0.00  0.00    +0.000 C 
BRANCH  16  17
ATOM     17  C   UNL     1       1.401   5.939  20.325  0.00  0.00    +0.000 C 
BRANCH  17  18
ATOM     18  C   UNL     1       1.410   4.417  20.523  0.00  0.00    +0.000 C 
BRANCH  18  19
ATOM     19  N   UNL     1       2.378   3.682  19.691  0.00  0.00    +0.000 NA
ATOM     20  C   UNL     1       3.290   2.842  20.485  0.00  0.00    +0.000 C 
ATOM     21  C   UNL     1       4.309   2.126  19.594  0.00  0.00    +0.000 C 
ATOM     22  C   UNL     1       3.623   1.302  18.513  0.00  0.00    +0.000 C 
ATOM     23  C   UNL     1       2.633   2.166  17.745  0.00  0.00    +0.000 C 
ATOM     24  C   UNL     1       1.660   2.869  18.692  0.00  0.00    +0.000 C 
ENDBRANCH  18  19
ENDBRANCH  17  18
ENDBRANCH  16  17
ENDBRANCH  15  16
ENDBRANCH  14  15
ENDBRANCH   5  14
TORSDOF 7
ENDMDL
MODEL 4
REMARK VINA RESULT:      -7.4      1.074      1.774
REMARK  Name = 
REMARK  7 active torsions:
REMARK  status: ('A' for Active; 'I' for Inactive)
REMARK    1  A    between atoms: C_5  and  O_6
REMARK    2  A    between atoms: O_6  and  C_7
REMARK    3  A    between atoms: C_7  and  C_8
REMARK    4  A    between atoms: C_8  and  C_9
REMARK    5  A    between atoms: C_9  and  C_10
REMARK    6  A    between atoms: C_10  and  N_11
REMARK    7  A    between atoms: N_18  and  C_19
REMARK                            x       y       z     vdW  Elec       q    Type
REMARK                         _______ _______ _______ _____ _____    ______ ____
ROOT
ATOM      1  O   UNL     1       3.128   3.534  16.523  0.00  0.00    +0.000 OA
ATOM      2  C   UNL     1       3.996   4.171  17.119  0.00  0.00    +0.000 A 
ATOM      3  C   UNL     1       4.977   4.884  16.269  0.00  0.00    +0.000 A 
ATOM      4  C   UNL     1       5.967   5.595  16.800  0.00  0.00    +0.000 A 
ATOM      5  C   UNL     1       6.026   5.592  18.255  0.00  0.00    +0.000 A 
ATOM      6  N   UNL     1       5.179   5.071  19.070  0.00  0.00    +0.000 NA
ATOM      7  N   UNL     1       4.126   4.363  18.503  0.00  0.00    +0.000 N 
ENDROOT
BRANCH   7   8
ATOM      8  C   UNL     1       3.170   3.865  19.451  0.00  0.00    +0.000 A 
ATOM      9  C   UNL     1       1.867   4.377  19.526  0.00  0.00    +0.000 A 
ATOM     10  C   UNL     1       0.980   3.963  20.524  0.00  0.00    +0.000 A 
ATOM     11  C   UNL     1       1.380   3.025  21.468  0.00  0.00    +0.000 A 
ATOM     12  C   UNL     1       2.655   2.470  21.387  0.00  0.00    +0.000 A 
ATOM     13  C   UNL     1       3.535   2.872  20.375  0.00  0.00    +0.000 A 
ENDBRANCH   7   8
BRANCH   5  14
ATOM     14  O   UNL     1       7.156   6.234  18.642  0.00  0.00    +0.000 OA
BRANCH  14  15
ATOM     15  C   UNL     1       7.667   7.240  17.752  0.00  0.00    +0.000 C 
BRANCH  15  16
ATOM     16  C   UNL     1       8.538   8.203  18.559  0.00  0.00    +0.000 C 
BRANCH  16  17
ATOM     17  C   UNL     1       8.511   9.610  17.951  0.00  0.00    +0.000 C 
BRANCH  17  18
ATOM     18  C   UNL     1       9.123  10.691  18.852  0.00  0.00    +0.000 C 
BRANCH  18  19
ATOM     19  N   UNL     1       9.388  11.982  18.191  0.00  0.00    +0.000 NA
ATOM     20  C   UNL     1       9.122  13.135  19.067  0.00  0.00    +0.000 C 
ATOM     21  C   UNL     1       9.366  14.459  18.338  0.00  0.00    +0.000 C 
ATOM     22  C   UNL     1      10.777  14.531  17.768  0.00  0.00    +0.000 C 
ATOM     23  C   UNL     1      11.062  13.298  16.921  0.00  0.00    +0.000 C 
ATOM     24  C   UNL     1      10.778  12.013  17.699  0.00  0.00    +0.000 C 
ENDBRANCH  18  19
ENDBRANCH  17  18
ENDBRANCH  16  17
ENDBRANCH  15  16
ENDBRANCH  14  15
ENDBRANCH   5  14
TORSDOF 7
ENDMDL
MODEL 5
REMARK VINA RESULT:      -7.4      3.251      6.874
REMARK  Name = 
REMARK  7 active torsions:
REMARK  status: ('A' for Active; 'I' for Inactive)
REMARK    1  A    between atoms: C_5  and  O_6
REMARK    2  A    between atoms: O_6  and  C_7
REMARK    3  A    between atoms: C_7  and  C_8
REMARK    4  A    between atoms: C_8  and  C_9
REMARK    5  A    between atoms: C_9  and  C_10
REMARK    6  A    between atoms: C_10  and  N_11
REMARK    7  A    between atoms: N_18  and  C_19
REMARK                            x       y       z     vdW  Elec       q    Type
REMARK                         _______ _______ _______ _____ _____    ______ ____
ROOT
ATOM      1  O   UNL     1       4.597   3.955  16.008  0.00  0.00    +0.000 OA
ATOM      2  C   UNL     1       4.472   3.615  17.183  0.00  0.00    +0.000 A 
ATOM      3  C   UNL     1       3.697   2.376  17.422  0.00  0.00    +0.000 A 
ATOM      4  C   UNL     1       3.485   1.916  18.651  0.00  0.00    +0.000 A 
ATOM      5  C   UNL     1       4.039   2.728  19.725  0.00  0.00    +0.000 A 
ATOM      6  N   UNL     1       4.787   3.768  19.611  0.00  0.00    +0.000 NA
ATOM      7  N   UNL     1       5.035   4.217  18.319  0.00  0.00    +0.000 N 
ENDROOT
BRANCH   7   8
ATOM      8  C   UNL     1       5.933   5.335  18.243  0.00  0.00    +0.000 A 
ATOM      9  C   UNL     1       5.720   6.394  17.350  0.00  0.00    +0.000 A 
ATOM     10  C   UNL     1       6.657   7.422  17.204  0.00  0.00    +0.000 A 
ATOM     11  C   UNL     1       7.828   7.408  17.953  0.00  0.00    +0.000 A 
ATOM     12  C   UNL     1       8.041   6.389  18.877  0.00  0.00    +0.000 A 
ATOM     13  C   UNL     1       7.092   5.372  19.035  0.00  0.00    +0.000 A 
ENDBRANCH   7   8
BRANCH   5  14
ATOM     14  O   UNL     1       3.626   2.216  20.910  0.00  0.00    +0.000 OA
BRANCH  14  15
ATOM     15  C   UNL     1       2.737   3.028  21.693  0.00  0.00    +0.000 C 
BRANCH  15  16
ATOM     16  C   UNL     1       1.328   2.902  21.113  0.00  0.00    +0.000 C 
BRANCH  16  17
ATOM     17  C   UNL     1       0.928   4.175  20.357  0.00  0.00    +0.000 C 
BRANCH  17  18
ATOM     18  C   UNL     1       1.779   5.402  20.708  0.00  0.00    +0.000 C 
BRANCH  18  19
ATOM     19  N   UNL     1       1.457   6.625  19.952  0.00  0.00    +0.000 NA
ATOM     20  C   UNL     1       1.379   7.820  20.808  0.00  0.00    +0.000 C 
ATOM     21  C   UNL     1       1.001   9.064  19.998  0.00  0.00    +0.000 C 
ATOM     22  C   UNL     1       1.967   9.293  18.844  0.00  0.00    +0.000 C 
ATOM     23  C   UNL     1       2.091   8.027  18.007  0.00  0.00    +0.000 C 
ATOM     24  C   UNL     1       2.447   6.821  18.876  0.00  0.00    +0.000 C 
ENDBRANCH  18  19
ENDBRANCH  17  18
ENDBRANCH  16  17
ENDBRANCH  15  16
ENDBRANCH  14  15
ENDBRANCH   5  14
TORSDOF 7
ENDMDL
MODEL 6
REMARK VINA RESULT:      -7.3      4.873      7.836
REMARK  Name = 
REMARK  7 active torsions:
REMARK  status: ('A' for Active; 'I' for Inactive)
REMARK    1  A    between atoms: C_5  and  O_6
REMARK    2  A    between atoms: O_6  and  C_7
REMARK    3  A    between atoms: C_7  and  C_8
REMARK    4  A    between atoms: C_8  and  C_9
REMARK    5  A    between atoms: C_9  and  C_10
REMARK    6  A    between atoms: C_10  and  N_11
REMARK    7  A    between atoms: N_18  and  C_19
REMARK                            x       y       z     vdW  Elec       q    Type
REMARK                         _______ _______ _______ _____ _____    ______ ____
ROOT
ATOM      1  O   UNL     1       1.424  10.026  18.415  0.00  0.00    +0.000 OA
ATOM      2  C   UNL     1       1.574   8.995  19.068  0.00  0.00    +0.000 A 
ATOM      3  C   UNL     1       2.342   7.914  18.409  0.00  0.00    +0.000 A 
ATOM      4  C   UNL     1       2.559   6.749  19.013  0.00  0.00    +0.000 A 
ATOM      5  C   UNL     1       1.967   6.613  20.336  0.00  0.00    +0.000 A 
ATOM      6  N   UNL     1       1.356   7.518  21.015  0.00  0.00    +0.000 NA
ATOM      7  N   UNL     1       1.169   8.745  20.389  0.00  0.00    +0.000 N 
ENDROOT
BRANCH   7   8
ATOM      8  C   UNL     1       0.548   9.742  21.214  0.00  0.00    +0.000 A 
ATOM      9  C   UNL     1      -0.278   9.400  22.292  0.00  0.00    +0.000 A 
ATOM     10  C   UNL     1      -0.966  10.375  23.020  0.00  0.00    +0.000 A 
ATOM     11  C   UNL     1      -0.839  11.717  22.681  0.00  0.00    +0.000 A 
ATOM     12  C   UNL     1       0.010  12.085  21.640  0.00  0.00    +0.000 A 
ATOM     13  C   UNL     1       0.713  11.107  20.926  0.00  0.00    +0.000 A 
ENDBRANCH   7   8
BRANCH   5  14
ATOM     14  O   UNL     1       2.150   5.338  20.761  0.00  0.00    +0.000 OA
BRANCH  14  15
ATOM     15  C   UNL     1       1.080   4.413  20.514  0.00  0.00    +0.000 C 
BRANCH  15  16
ATOM     16  C   UNL     1       1.530   3.021  20.959  0.00  0.00    +0.000 C 
BRANCH  16  17
ATOM     17  C   UNL     1       2.997   2.773  20.589  0.00  0.00    +0.000 C 
BRANCH  17  18
ATOM     18  C   UNL     1       3.199   2.234  19.166  0.00  0.00    +0.000 C 
BRANCH  18  19
ATOM     19  N   UNL     1       4.179   2.972  18.350  0.00  0.00    +0.000 NA
ATOM     20  C   UNL     1       3.561   3.673  17.213  0.00  0.00    +0.000 C 
ATOM     21  C   UNL     1       4.611   4.394  16.362  0.00  0.00    +0.000 C 
ATOM     22  C   UNL     1       5.442   5.357  17.199  0.00  0.00    +0.000 C 
ATOM     23  C   UNL     1       6.018   4.636  18.410  0.00  0.00    +0.000 C 
ATOM     24  C   UNL     1       4.923   3.920  19.202  0.00  0.00    +0.000 C 
ENDBRANCH  18  19
ENDBRANCH  17  18
ENDBRANCH  16  17
ENDBRANCH  15  16
ENDBRANCH  14  15
ENDBRANCH   5  14
TORSDOF 7
ENDMDL
MODEL 7
REMARK VINA RESULT:      -7.3      4.854      8.543
REMARK  Name = 
REMARK  7 active torsions:
REMARK  status: ('A' for Active; 'I' for Inactive)
REMARK    1  A    between atoms: C_5  and  O_6
REMARK    2  A    between atoms: O_6  and  C_7
REMARK    3  A    between atoms: C_7  and  C_8
REMARK    4  A    between atoms: C_8  and  C_9
REMARK    5  A    between atoms: C_9  and  C_10
REMARK    6  A    between atoms: C_10  and  N_11
REMARK    7  A    between atoms: N_18  and  C_19
REMARK                            x       y       z     vdW  Elec       q    Type
REMARK                         _______ _______ _______ _____ _____    ______ ____
ROOT
ATOM      1  O   UNL     1       0.669   8.838  21.662  0.00  0.00    +0.000 OA
ATOM      2  C   UNL     1       1.237   8.532  20.615  0.00  0.00    +0.000 A 
ATOM      3  C   UNL     1       1.935   7.226  20.612  0.00  0.00    +0.000 A 
ATOM      4  C   UNL     1       2.593   6.793  19.541  0.00  0.00    +0.000 A 
ATOM      5  C   UNL     1       2.598   7.702  18.403  0.00  0.00    +0.000 A 
ATOM      6  N   UNL     1       1.959   8.812  18.287  0.00  0.00    +0.000 NA
ATOM      7  N   UNL     1       1.242   9.235  19.400  0.00  0.00    +0.000 N 
ENDROOT
BRANCH   7   8
ATOM      8  C   UNL     1       0.488  10.440  19.196  0.00  0.00    +0.000 A 
ATOM      9  C   UNL     1       1.113  11.684  19.030  0.00  0.00    +0.000 A 
ATOM     10  C   UNL     1       0.371  12.865  18.943  0.00  0.00    +0.000 A 
ATOM     11  C   UNL     1      -1.016  12.823  19.019  0.00  0.00    +0.000 A 
ATOM     12  C   UNL     1      -1.661  11.595  19.141  0.00  0.00    +0.000 A 
ATOM     13  C   UNL     1      -0.916  10.412  19.208  0.00  0.00    +0.000 A 
ENDBRANCH   7   8
BRANCH   5  14
ATOM     14  O   UNL     1       3.417   7.194  17.449  0.00  0.00    +0.000 OA
BRANCH  14  15
ATOM     15  C   UNL     1       4.406   6.246  17.881  0.00  0.00    +0.000 C 
BRANCH  15  16
ATOM     16  C   UNL     1       4.741   5.326  16.708  0.00  0.00    +0.000 C 
BRANCH  16  17
ATOM     17  C   UNL     1       4.010   3.984  16.834  0.00  0.00    +0.000 C 
BRANCH  17  18
ATOM     18  C   UNL     1       4.380   3.188  18.093  0.00  0.00    +0.000 C 
BRANCH  18  19
ATOM     19  N   UNL     1       3.243   2.804  18.947  0.00  0.00    +0.000 NA
ATOM     20  C   UNL     1       3.395   3.265  20.337  0.00  0.00    +0.000 C 
ATOM     21  C   UNL     1       2.218   2.814  21.207  0.00  0.00    +0.000 C 
ATOM     22  C   UNL     1       0.887   3.277  20.630  0.00  0.00    +0.000 C 
ATOM     23  C   UNL     1       0.774   2.854  19.172  0.00  0.00    +0.000 C 
ATOM     24  C   UNL     1       1.988   3.315  18.365  0.00  0.00    +0.000 C 
ENDBRANCH  18  19
ENDBRANCH  17  18
ENDBRANCH  16  17
ENDBRANCH  15  16
ENDBRANCH  14  15
ENDBRANCH   5  14
TORSDOF 7
ENDMDL
MODEL 8
REMARK VINA RESULT:      -7.3      0.365      1.046
REMARK  Name = 
REMARK  7 active torsions:
REMARK  status: ('A' for Active; 'I' for Inactive)
REMARK    1  A    between atoms: C_5  and  O_6
REMARK    2  A    between atoms: O_6  and  C_7
REMARK    3  A    between atoms: C_7  and  C_8
REMARK    4  A    between atoms: C_8  and  C_9
REMARK    5  A    between atoms: C_9  and  C_10
REMARK    6  A    between atoms: C_10  and  N_11
REMARK    7  A    between atoms: N_18  and  C_19
REMARK                            x       y       z     vdW  Elec       q    Type
REMARK                         _______ _______ _______ _____ _____    ______ ____
ROOT
ATOM      1  O   UNL     1       2.687   3.071  16.517  0.00  0.00    +0.000 OA
ATOM      2  C   UNL     1       3.715   3.596  16.942  0.00  0.00    +0.000 A 
ATOM      3  C   UNL     1       4.684   4.050  15.919  0.00  0.00    +0.000 A 
ATOM      4  C   UNL     1       5.836   4.621  16.260  0.00  0.00    +0.000 A 
ATOM      5  C   UNL     1       6.077   4.734  17.692  0.00  0.00    +0.000 A 
ATOM      6  N   UNL     1       5.266   4.441  18.645  0.00  0.00    +0.000 NA
ATOM      7  N   UNL     1       4.048   3.881  18.276  0.00  0.00    +0.000 N 
ENDROOT
BRANCH   7   8
ATOM      8  C   UNL     1       3.151   3.641  19.371  0.00  0.00    +0.000 A 
ATOM      9  C   UNL     1       1.954   4.355  19.516  0.00  0.00    +0.000 A 
ATOM     10  C   UNL     1       1.143   4.193  20.642  0.00  0.00    +0.000 A 
ATOM     11  C   UNL     1       1.514   3.308  21.648  0.00  0.00    +0.000 A 
ATOM     12  C   UNL     1       2.678   2.556  21.505  0.00  0.00    +0.000 A 
ATOM     13  C   UNL     1       3.478   2.706  20.367  0.00  0.00    +0.000 A 
ENDBRANCH   7   8
BRANCH   5  14
ATOM     14  O   UNL     1       7.336   5.200  17.881  0.00  0.00    +0.000 OA
BRANCH  14  15
ATOM     15  C   UNL     1       7.476   6.388  18.675  0.00  0.00    +0.000 C 
BRANCH  15  16
ATOM     16  C   UNL     1       7.948   7.524  17.769  0.00  0.00    +0.000 C 
BRANCH  16  17
ATOM     17  C   UNL     1       8.631   8.630  18.583  0.00  0.00    +0.000 C 
BRANCH  17  18
ATOM     18  C   UNL     1       8.438  10.039  18.008  0.00  0.00    +0.000 C 
BRANCH  18  19
ATOM     19  N   UNL     1       8.974  11.133  18.836  0.00  0.00    +0.000 NA
ATOM     20  C   UNL     1       9.839  10.652  19.926  0.00  0.00    +0.000 C 
ATOM     21  C   UNL     1      10.345  11.810  20.791  0.00  0.00    +0.000 C 
ATOM     22  C   UNL     1      11.067  12.858  19.955  0.00  0.00    +0.000 C 
ATOM     23  C   UNL     1      10.188  13.295  18.791  0.00  0.00    +0.000 C 
ATOM     24  C   UNL     1       9.699  12.093  17.983  0.00  0.00    +0.000 C 
ENDBRANCH  18  19
ENDBRANCH  17  18
ENDBRANCH  16  17
ENDBRANCH  15  16
ENDBRANCH  14  15
ENDBRANCH   5  14
TORSDOF 7
ENDMDL
MODEL 9
REMARK VINA RESULT:      -7.2      4.080      8.043
REMARK  Name = 
REMARK  7 active torsions:
REMARK  status: ('A' for Active; 'I' for Inactive)
REMARK    1  A    between atoms: C_5  and  O_6
REMARK    2  A    between atoms: O_6  and  C_7
REMARK    3  A    between atoms: C_7  and  C_8
REMARK    4  A    between atoms: C_8  and  C_9
REMARK    5  A    between atoms: C_9  and  C_10
REMARK    6  A    between atoms: C_10  and  N_11
REMARK    7  A    between atoms: N_18  and  C_19
REMARK                            x       y       z     vdW  Elec       q    Type
REMARK                         _______ _______ _______ _____ _____    ______ ____
ROOT
ATOM      1  O   UNL     1       8.268   4.062  16.796  0.00  0.00    +0.000 OA
ATOM      2  C   UNL     1       7.344   4.866  16.903  0.00  0.00    +0.000 A 
ATOM      3  C   UNL     1       7.195   5.513  18.226  0.00  0.00    +0.000 A 
ATOM      4  C   UNL     1       6.225   6.391  18.465  0.00  0.00    +0.000 A 
ATOM      5  C   UNL     1       5.321   6.639  17.350  0.00  0.00    +0.000 A 
ATOM      6  N   UNL     1       5.418   6.187  16.150  0.00  0.00    +0.000 NA
ATOM      7  N   UNL     1       6.459   5.300  15.902  0.00  0.00    +0.000 N 
ENDROOT
BRANCH   7   8
ATOM      8  C   UNL     1       6.568   4.882  14.533  0.00  0.00    +0.000 A 
ATOM      9  C   UNL     1       5.741   3.886  13.996  0.00  0.00    +0.000 A 
ATOM     10  C   UNL     1       5.928   3.409  12.696  0.00  0.00    +0.000 A 
ATOM     11  C   UNL     1       6.949   3.922  11.905  0.00  0.00    +0.000 A 
ATOM     12  C   UNL     1       7.757   4.942  12.402  0.00  0.00    +0.000 A 
ATOM     13  C   UNL     1       7.555   5.432  13.698  0.00  0.00    +0.000 A 
ENDBRANCH   7   8
BRANCH   5  14
ATOM     14  O   UNL     1       4.314   7.437  17.783  0.00  0.00    +0.000 OA
BRANCH  14  15
ATOM     15  C   UNL     1       2.986   7.094  17.357  0.00  0.00    +0.000 C 
BRANCH  15  16
ATOM     16  C   UNL     1       2.032   7.296  18.534  0.00  0.00    +0.000 C 
BRANCH  16  17
ATOM     17  C   UNL     1       2.588   6.652  19.810  0.00  0.00    +0.000 C 
BRANCH  17  18
ATOM     18  C   UNL     1       1.768   5.457  20.313  0.00  0.00    +0.000 C 
BRANCH  18  19
ATOM     19  N   UNL     1       2.205   4.142  19.813  0.00  0.00    +0.000 NA
ATOM     20  C   UNL     1       1.564   3.776  18.539  0.00  0.00    +0.000 C 
ATOM     21  C   UNL     1       2.007   2.387  18.069  0.00  0.00    +0.000 C 
ATOM     22  C   UNL     1       3.523   2.294  17.954  0.00  0.00    +0.000 C 
ATOM     23  C   UNL     1       4.175   2.742  19.255  0.00  0.00    +0.000 C 
ATOM     24  C   UNL     1       3.673   4.123  19.679  0.00  0.00    +0.000 C 
ENDBRANCH  18  19
ENDBRANCH  17  18
ENDBRANCH  16  17
ENDBRANCH  15  16
ENDBRANCH  14  15
ENDBRANCH   5  14
TORSDOF 7
ENDMDL
