MODEL 1
REMARK VINA RESULT:      -8.7      0.000      0.000
REMARK  Name = 
REMARK  5 active torsions:
REMARK  status: ('A' for Active; 'I' for Inactive)
REMARK    1  A    between atoms: C_1  and  C_2
REMARK    2  A    between atoms: C_5  and  N_6
REMARK    3  A    between atoms: C_8  and  C_9
REMARK    4  A    between atoms: C_15  and  N_16
REMARK    5  A    between atoms: C_17  and  C_19
REMARK                            x       y       z     vdW  Elec       q    Type
REMARK                         _______ _______ _______ _____ _____    ______ ____
ROOT
ATOM      1  N   UNL     1       3.568   5.675  18.586  0.00  0.00    +0.000 N 
ATOM      2  N   UNL     1       4.648   5.292  17.841  0.00  0.00    +0.000 NA
ATOM      3  C   UNL     1       4.835   6.292  16.968  0.00  0.00    +0.000 A 
ATOM      4  C   UNL     1       3.976   7.382  17.245  0.00  0.00    +0.000 A 
ATOM      5  C   UNL     1       3.156   6.967  18.268  0.00  0.00    +0.000 A 
ENDROOT
BRANCH   1  10
ATOM      6  C   UNL     1       1.096   2.048  22.275  0.00  0.00    +0.000 C 
ATOM      7  C   UNL     1       1.738   2.997  21.303  0.00  0.00    +0.000 A 
ATOM      8  C   UNL     1       1.015   4.066  20.759  0.00  0.00    +0.000 A 
ATOM      9  C   UNL     1       1.624   4.963  19.877  0.00  0.00    +0.000 A 
ATOM     10  C   UNL     1       2.957   4.769  19.492  0.00  0.00    +0.000 A 
ATOM     11  C   UNL     1       3.672   3.680  20.001  0.00  0.00    +0.000 A 
ATOM     12  C   UNL     1       3.071   2.812  20.920  0.00  0.00    +0.000 A 
ENDBRANCH   1  10
BRANCH   3  13
ATOM     13  C   UNL     1       5.866   6.190  15.865  0.00  0.00    +0.000 C 
ATOM     14  C   UNL     1       5.600   5.035  14.905  0.00  0.00    +0.000 C 
ATOM     15  C   UNL     1       6.333   3.870  15.538  0.00  0.00    +0.000 C 
ATOM     16  N   UNL     1       7.561   4.447  16.092  0.00  0.00    +0.000 NA
ATOM     17  C   UNL     1       7.271   5.861  16.403  0.00  0.00    +0.000 C 
ATOM     18  H   UNL     1       8.288   4.419  15.373  0.00  0.00    +0.000 HD
ENDBRANCH   3  13
BRANCH   5  19
ATOM     19  N   UNL     1       2.234   7.787  18.921  0.00  0.00    +0.000 N 
ATOM     20  C   UNL     1       1.738   9.006  18.365  0.00  0.00    +0.000 C 
ATOM     21  O   UNL     1       2.041   9.367  17.217  0.00  0.00    +0.000 OA
ATOM     22  H   UNL     1       1.872   7.487  19.830  0.00  0.00    +0.000 HD
BRANCH  20  23
ATOM     23  C   UNL     1       0.780   9.651  19.227  0.00  0.00    +0.000 A 
ATOM     24  C   UNL     1       0.908  10.006  20.592  0.00  0.00    +0.000 A 
ATOM     25  N   UNL     1      -0.136  10.679  21.065  0.00  0.00    +0.000 NA
ATOM     26  N   UNL     1      -0.907  10.891  19.978  0.00  0.00    +0.000 N 
ATOM     27  C   UNL     1      -1.819  11.922  19.757  0.00  0.00    +0.000 A 
ATOM     28  C   UNL     1      -2.269  12.111  18.510  0.00  0.00    +0.000 A 
ATOM     29  C   UNL     1      -2.121  10.935  17.614  0.00  0.00    +0.000 A 
ATOM     30  N   UNL     1      -1.212  10.002  17.744  0.00  0.00    +0.000 NA
ATOM     31  C   UNL     1      -0.480  10.105  18.892  0.00  0.00    +0.000 A 
ENDBRANCH  20  23
ENDBRANCH   5  19
TORSDOF 4
ENDMDL
MODEL 2
REMARK VINA RESULT:      -8.6      0.924      2.048
REMARK  Name = 
REMARK  5 active torsions:
REMARK  status: ('A' for Active; 'I' for Inactive)
REMARK    1  A    between atoms: C_1  and  C_2
REMARK    2  A    between atoms: C_5  and  N_6
REMARK    3  A    between atoms: C_8  and  C_9
REMARK    4  A    between atoms: C_15  and  N_16
REMARK    5  A    between atoms: C_17  and  C_19
REMARK                            x       y       z     vdW  Elec       q    Type
REMARK                         _______ _______ _______ _____ _____    ______ ____
ROOT
ATOM      1  N   UNL     1       3.572   5.692  18.561  0.00  0.00    +0.000 N 
ATOM      2  N   UNL     1       4.641   5.288  17.811  0.00  0.00    +0.000 NA
ATOM      3  C   UNL     1       4.838   6.279  16.931  0.00  0.00    +0.000 A 
ATOM      4  C   UNL     1       3.999   7.385  17.207  0.00  0.00    +0.000 A 
ATOM      5  C   UNL     1       3.179   6.989  18.237  0.00  0.00    +0.000 A 
ENDROOT
BRANCH   1  10
ATOM      6  C   UNL     1       1.066   2.129  22.288  0.00  0.00    +0.000 C 
ATOM      7  C   UNL     1       1.716   3.061  21.306  0.00  0.00    +0.000 A 
ATOM      8  C   UNL     1       1.026   4.173  20.805  0.00  0.00    +0.000 A 
ATOM      9  C   UNL     1       1.645   5.054  19.914  0.00  0.00    +0.000 A 
ATOM     10  C   UNL     1       2.952   4.803  19.476  0.00  0.00    +0.000 A 
ATOM     11  C   UNL     1       3.631   3.673  19.942  0.00  0.00    +0.000 A 
ATOM     12  C   UNL     1       3.024   2.820  20.870  0.00  0.00    +0.000 A 
ENDBRANCH   1  10
BRANCH   3  13
ATOM     13  C   UNL     1       5.861   6.153  15.823  0.00  0.00    +0.000 C 
ATOM     14  C   UNL     1       5.575   4.993  14.876  0.00  0.00    +0.000 C 
ATOM     15  C   UNL     1       6.297   3.825  15.516  0.00  0.00    +0.000 C 
ATOM     16  N   UNL     1       7.536   4.393  16.056  0.00  0.00    +0.000 NA
ATOM     17  C   UNL     1       7.266   5.814  16.355  0.00  0.00    +0.000 C 
ATOM     18  H   UNL     1       8.259   4.349  15.333  0.00  0.00    +0.000 HD
ENDBRANCH   3  13
BRANCH   5  19
ATOM     19  N   UNL     1       2.274   7.828  18.891  0.00  0.00    +0.000 N 
ATOM     20  C   UNL     1       1.790   9.049  18.328  0.00  0.00    +0.000 C 
ATOM     21  O   UNL     1       2.089   9.395  17.173  0.00  0.00    +0.000 OA
ATOM     22  H   UNL     1       1.916   7.542  19.805  0.00  0.00    +0.000 HD
BRANCH  20  23
ATOM     23  C   UNL     1       0.849   9.716  19.192  0.00  0.00    +0.000 A 
ATOM     24  C   UNL     1      -0.342  10.401  18.852  0.00  0.00    +0.000 A 
ATOM     25  N   UNL     1      -1.032  10.821  19.908  0.00  0.00    +0.000 NA
ATOM     26  N   UNL     1      -0.368  10.300  20.960  0.00  0.00    +0.000 N 
ATOM     27  C   UNL     1      -0.869   9.978  22.221  0.00  0.00    +0.000 A 
ATOM     28  C   UNL     1      -0.118   9.214  23.023  0.00  0.00    +0.000 A 
ATOM     29  C   UNL     1       1.327   9.190  22.680  0.00  0.00    +0.000 A 
ATOM     30  N   UNL     1       1.819   9.394  21.483  0.00  0.00    +0.000 NA
ATOM     31  C   UNL     1       0.887   9.798  20.570  0.00  0.00    +0.000 A 
ENDBRANCH  20  23
ENDBRANCH   5  19
TORSDOF 4
ENDMDL
MODEL 3
REMARK VINA RESULT:      -8.3      1.251      1.405
REMARK  Name = 
REMARK  5 active torsions:
REMARK  status: ('A' for Active; 'I' for Inactive)
REMARK    1  A    between atoms: C_1  and  C_2
REMARK    2  A    between atoms: C_5  and  N_6
REMARK    3  A    between atoms: C_8  and  C_9
REMARK    4  A    between atoms: C_15  and  N_16
REMARK    5  A    between atoms: C_17  and  C_19
REMARK                            x       y       z     vdW  Elec       q    Type
REMARK                         _______ _______ _______ _____ _____    ______ ____
ROOT
ATOM      1  N   UNL     1       3.526   5.631  18.563  0.00  0.00    +0.000 N 
ATOM      2  N   UNL     1       4.529   5.211  17.733  0.00  0.00    +0.000 NA
ATOM      3  C   UNL     1       4.719   6.229  16.882  0.00  0.00    +0.000 A 
ATOM      4  C   UNL     1       3.949   7.358  17.252  0.00  0.00    +0.000 A 
ATOM      5  C   UNL     1       3.175   6.956  18.314  0.00  0.00    +0.000 A 
ENDROOT
BRANCH   1  10
ATOM      6  C   UNL     1       1.080   2.030  22.294  0.00  0.00    +0.000 C 
ATOM      7  C   UNL     1       1.715   2.972  21.310  0.00  0.00    +0.000 A 
ATOM      8  C   UNL     1       0.980   4.020  20.742  0.00  0.00    +0.000 A 
ATOM      9  C   UNL     1       1.583   4.911  19.850  0.00  0.00    +0.000 A 
ATOM     10  C   UNL     1       2.922   4.732  19.479  0.00  0.00    +0.000 A 
ATOM     11  C   UNL     1       3.649   3.663  20.013  0.00  0.00    +0.000 A 
ATOM     12  C   UNL     1       3.054   2.802  20.942  0.00  0.00    +0.000 A 
ENDBRANCH   1  10
BRANCH   3  13
ATOM     13  C   UNL     1       5.666   6.105  15.708  0.00  0.00    +0.000 C 
ATOM     14  C   UNL     1       5.369   4.896  14.827  0.00  0.00    +0.000 C 
ATOM     15  C   UNL     1       6.189   3.787  15.456  0.00  0.00    +0.000 C 
ATOM     16  N   UNL     1       7.434   4.431  15.885  0.00  0.00    +0.000 NA
ATOM     17  C   UNL     1       7.119   5.849  16.150  0.00  0.00    +0.000 C 
ATOM     18  H   UNL     1       8.106   4.391  15.114  0.00  0.00    +0.000 HD
ENDBRANCH   3  13
BRANCH   5  19
ATOM     19  N   UNL     1       2.351   7.806  19.055  0.00  0.00    +0.000 N 
ATOM     20  C   UNL     1       1.771   8.998  18.520  0.00  0.00    +0.000 C 
ATOM     21  O   UNL     1       1.904   9.304  17.324  0.00  0.00    +0.000 OA
ATOM     22  H   UNL     1       2.125   7.549  20.019  0.00  0.00    +0.000 HD
BRANCH  20  23
ATOM     23  C   UNL     1       0.944   9.683  19.480  0.00  0.00    +0.000 A 
ATOM     24  C   UNL     1       0.264   9.156  20.605  0.00  0.00    +0.000 A 
ATOM     25  N   UNL     1      -0.338  10.085  21.342  0.00  0.00    +0.000 NA
ATOM     26  N   UNL     1       0.050  11.249  20.783  0.00  0.00    +0.000 N 
ATOM     27  C   UNL     1       0.159  12.500  21.387  0.00  0.00    +0.000 A 
ATOM     28  C   UNL     1       0.829  13.460  20.737  0.00  0.00    +0.000 A 
ATOM     29  C   UNL     1       0.968  13.236  19.275  0.00  0.00    +0.000 A 
ATOM     30  N   UNL     1       0.965  12.063  18.691  0.00  0.00    +0.000 NA
ATOM     31  C   UNL     1       0.660  11.033  19.533  0.00  0.00    +0.000 A 
ENDBRANCH  20  23
ENDBRANCH   5  19
TORSDOF 4
ENDMDL
MODEL 4
REMARK VINA RESULT:      -8.2      5.851      9.755
REMARK  Name = 
REMARK  5 active torsions:
REMARK  status: ('A' for Active; 'I' for Inactive)
REMARK    1  A    between atoms: C_1  and  C_2
REMARK    2  A    between atoms: C_5  and  N_6
REMARK    3  A    between atoms: C_8  and  C_9
REMARK    4  A    between atoms: C_15  and  N_16
REMARK    5  A    between atoms: C_17  and  C_19
REMARK                            x       y       z     vdW  Elec       q    Type
REMARK                         _______ _______ _______ _____ _____    ______ ____
ROOT
ATOM      1  N   UNL     1      -1.693  13.014  22.439  0.00  0.00    +0.000 N 
ATOM      2  N   UNL     1      -1.532  13.716  23.601  0.00  0.00    +0.000 NA
ATOM      3  C   UNL     1      -2.196  14.864  23.403  0.00  0.00    +0.000 A 
ATOM      4  C   UNL     1      -2.907  14.841  22.179  0.00  0.00    +0.000 A 
ATOM      5  C   UNL     1      -2.560  13.662  21.563  0.00  0.00    +0.000 A 
ENDROOT
BRANCH   1  10
ATOM      6  C   UNL     1       1.238   8.181  21.475  0.00  0.00    +0.000 C 
ATOM      7  C   UNL     1       0.477   9.452  21.727  0.00  0.00    +0.000 A 
ATOM      8  C   UNL     1       0.576  10.535  20.845  0.00  0.00    +0.000 A 
ATOM      9  C   UNL     1      -0.157  11.705  21.068  0.00  0.00    +0.000 A 
ATOM     10  C   UNL     1      -0.962  11.819  22.209  0.00  0.00    +0.000 A 
ATOM     11  C   UNL     1      -1.032  10.756  23.114  0.00  0.00    +0.000 A 
ATOM     12  C   UNL     1      -0.334   9.570  22.861  0.00  0.00    +0.000 A 
ENDBRANCH   1  10
BRANCH   3  13
ATOM     13  C   UNL     1      -2.147  15.984  24.419  0.00  0.00    +0.000 C 
ATOM     14  C   UNL     1      -1.287  17.161  23.969  0.00  0.00    +0.000 C 
ATOM     15  C   UNL     1       0.097  16.803  24.471  0.00  0.00    +0.000 C 
ATOM     16  N   UNL     1      -0.124  16.165  25.772  0.00  0.00    +0.000 NA
ATOM     17  C   UNL     1      -1.469  15.557  25.734  0.00  0.00    +0.000 C 
ATOM     18  H   UNL     1      -0.119  16.888  26.496  0.00  0.00    +0.000 HD
ENDBRANCH   3  13
BRANCH   5  19
ATOM     19  N   UNL     1      -3.131  13.195  20.377  0.00  0.00    +0.000 N 
ATOM     20  C   UNL     1      -4.355  12.457  20.334  0.00  0.00    +0.000 C 
ATOM     21  O   UNL     1      -5.030  12.260  21.356  0.00  0.00    +0.000 OA
ATOM     22  H   UNL     1      -2.668  13.416  19.492  0.00  0.00    +0.000 HD
BRANCH  20  23
ATOM     23  C   UNL     1      -4.739  12.114  18.988  0.00  0.00    +0.000 A 
ATOM     24  C   UNL     1      -5.848  12.570  18.235  0.00  0.00    +0.000 A 
ATOM     25  N   UNL     1      -5.857  12.126  16.982  0.00  0.00    +0.000 NA
ATOM     26  N   UNL     1      -4.681  11.478  16.857  0.00  0.00    +0.000 N 
ATOM     27  C   UNL     1      -3.936  11.261  15.699  0.00  0.00    +0.000 A 
ATOM     28  C   UNL     1      -2.669  10.848  15.830  0.00  0.00    +0.000 A 
ATOM     29  C   UNL     1      -2.353  10.226  17.141  0.00  0.00    +0.000 A 
ATOM     30  N   UNL     1      -2.975  10.484  18.265  0.00  0.00    +0.000 NA
ATOM     31  C   UNL     1      -4.075  11.279  18.112  0.00  0.00    +0.000 A 
ENDBRANCH  20  23
ENDBRANCH   5  19
TORSDOF 4
ENDMDL
MODEL 5
REMARK VINA RESULT:      -8.2      2.296      9.109
REMARK  Name = 
REMARK  5 active torsions:
REMARK  status: ('A' for Active; 'I' for Inactive)
REMARK    1  A    between atoms: C_1  and  C_2
REMARK    2  A    between atoms: C_5  and  N_6
REMARK    3  A    between atoms: C_8  and  C_9
REMARK    4  A    between atoms: C_15  and  N_16
REMARK    5  A    between atoms: C_17  and  C_19
REMARK                            x       y       z     vdW  Elec       q    Type
REMARK                         _______ _______ _______ _____ _____    ______ ____
ROOT
ATOM      1  N   UNL     1      -1.115  10.932  19.614  0.00  0.00    +0.000 N 
ATOM      2  N   UNL     1      -1.597  11.806  20.548  0.00  0.00    +0.000 NA
ATOM      3  C   UNL     1      -0.861  11.577  21.645  0.00  0.00    +0.000 A 
ATOM      4  C   UNL     1       0.189  10.666  21.376  0.00  0.00    +0.000 A 
ATOM      5  C   UNL     1       0.002  10.245  20.081  0.00  0.00    +0.000 A 
ENDROOT
BRANCH   1  10
ATOM      6  C   UNL     1      -3.791  10.229  14.592  0.00  0.00    +0.000 C 
ATOM      7  C   UNL     1      -3.091  10.404  15.910  0.00  0.00    +0.000 A 
ATOM      8  C   UNL     1      -1.970   9.631  16.236  0.00  0.00    +0.000 A 
ATOM      9  C   UNL     1      -1.304   9.819  17.451  0.00  0.00    +0.000 A 
ATOM     10  C   UNL     1      -1.786  10.755  18.376  0.00  0.00    +0.000 A 
ATOM     11  C   UNL     1      -2.929  11.501  18.071  0.00  0.00    +0.000 A 
ATOM     12  C   UNL     1      -3.563  11.343  16.834  0.00  0.00    +0.000 A 
ENDBRANCH   1  10
BRANCH   3  13
ATOM     13  C   UNL     1      -1.176  12.259  22.958  0.00  0.00    +0.000 C 
ATOM     14  C   UNL     1      -2.567  11.925  23.485  0.00  0.00    +0.000 C 
ATOM     15  C   UNL     1      -3.449  12.986  22.858  0.00  0.00    +0.000 C 
ATOM     16  N   UNL     1      -2.641  14.209  22.870  0.00  0.00    +0.000 NA
ATOM     17  C   UNL     1      -1.225  13.792  22.827  0.00  0.00    +0.000 C 
ATOM     18  H   UNL     1      -2.804  14.700  23.753  0.00  0.00    +0.000 HD
ENDBRANCH   3  13
BRANCH   5  19
ATOM     19  N   UNL     1       0.892   9.424  19.384  0.00  0.00    +0.000 N 
ATOM     20  C   UNL     1       1.457   8.233  19.937  0.00  0.00    +0.000 C 
ATOM     21  O   UNL     1       1.119   7.813  21.054  0.00  0.00    +0.000 OA
ATOM     22  H   UNL     1       1.128   9.669  18.419  0.00  0.00    +0.000 HD
BRANCH  20  23
ATOM     23  C   UNL     1       2.323   7.556  19.006  0.00  0.00    +0.000 A 
ATOM     24  C   UNL     1       2.996   8.077  17.874  0.00  0.00    +0.000 A 
ATOM     25  N   UNL     1       3.797   7.197  17.282  0.00  0.00    +0.000 NA
ATOM     26  N   UNL     1       3.762   6.123  18.098  0.00  0.00    +0.000 N 
ATOM     27  C   UNL     1       4.737   5.142  18.272  0.00  0.00    +0.000 A 
ATOM     28  C   UNL     1       4.630   4.326  19.328  0.00  0.00    +0.000 A 
ATOM     29  C   UNL     1       3.267   4.247  19.914  0.00  0.00    +0.000 A 
ATOM     30  N   UNL     1       2.365   5.193  19.847  0.00  0.00    +0.000 NA
ATOM     31  C   UNL     1       2.722   6.234  19.039  0.00  0.00    +0.000 A 
ENDBRANCH  20  23
ENDBRANCH   5  19
TORSDOF 4
ENDMDL
MODEL 6
REMARK VINA RESULT:      -8.2      4.494      8.922
REMARK  Name = 
REMARK  5 active torsions:
REMARK  status: ('A' for Active; 'I' for Inactive)
REMARK    1  A    between atoms: C_1  and  C_2
REMARK    2  A    between atoms: C_5  and  N_6
REMARK    3  A    between atoms: C_8  and  C_9
REMARK    4  A    between atoms: C_15  and  N_16
REMARK    5  A    between atoms: C_17  and  C_19
REMARK                            x       y       z     vdW  Elec       q    Type
REMARK                         _______ _______ _______ _____ _____    ______ ____
ROOT
ATOM      1  N   UNL     1       5.296   4.593  18.008  0.00  0.00    +0.000 N 
ATOM      2  N   UNL     1       4.546   4.220  19.088  0.00  0.00    +0.000 NA
ATOM      3  C   UNL     1       3.694   3.300  18.614  0.00  0.00    +0.000 A 
ATOM      4  C   UNL     1       3.990   2.971  17.269  0.00  0.00    +0.000 A 
ATOM      5  C   UNL     1       5.002   3.820  16.887  0.00  0.00    +0.000 A 
ENDROOT
BRANCH   1  10
ATOM      6  C   UNL     1       8.869   9.061  18.379  0.00  0.00    +0.000 C 
ATOM      7  C   UNL     1       7.939   7.885  18.279  0.00  0.00    +0.000 A 
ATOM      8  C   UNL     1       8.235   6.679  18.925  0.00  0.00    +0.000 A 
ATOM      9  C   UNL     1       7.352   5.597  18.854  0.00  0.00    +0.000 A 
ATOM     10  C   UNL     1       6.182   5.698  18.090  0.00  0.00    +0.000 A 
ATOM     11  C   UNL     1       5.902   6.887  17.409  0.00  0.00    +0.000 A 
ATOM     12  C   UNL     1       6.766   7.982  17.523  0.00  0.00    +0.000 A 
ENDBRANCH   1  10
BRANCH   3  13
ATOM     13  C   UNL     1       2.592   2.729  19.480  0.00  0.00    +0.000 C 
ATOM     14  C   UNL     1       1.297   3.530  19.402  0.00  0.00    +0.000 C 
ATOM     15  C   UNL     1       1.455   4.570  20.493  0.00  0.00    +0.000 C 
ATOM     16  N   UNL     1       2.136   3.872  21.588  0.00  0.00    +0.000 NA
ATOM     17  C   UNL     1       2.934   2.788  20.980  0.00  0.00    +0.000 C 
ATOM     18  H   UNL     1       1.430   3.449  22.195  0.00  0.00    +0.000 HD
ENDBRANCH   3  13
BRANCH   5  19
ATOM     19  N   UNL     1       5.669   3.750  15.661  0.00  0.00    +0.000 N 
ATOM     20  C   UNL     1       5.522   4.730  14.632  0.00  0.00    +0.000 C 
ATOM     21  O   UNL     1       4.847   5.757  14.805  0.00  0.00    +0.000 OA
ATOM     22  H   UNL     1       6.317   2.975  15.503  0.00  0.00    +0.000 HD
BRANCH  20  23
ATOM     23  C   UNL     1       6.335   4.438  13.478  0.00  0.00    +0.000 A 
ATOM     24  C   UNL     1       7.618   4.934  13.145  0.00  0.00    +0.000 A 
ATOM     25  N   UNL     1       8.131   4.384  12.049  0.00  0.00    +0.000 NA
ATOM     26  N   UNL     1       7.244   3.422  11.721  0.00  0.00    +0.000 N 
ATOM     27  C   UNL     1       7.476   2.242  11.015  0.00  0.00    +0.000 A 
ATOM     28  C   UNL     1       6.532   1.294  11.043  0.00  0.00    +0.000 A 
ATOM     29  C   UNL     1       5.178   1.778  11.416  0.00  0.00    +0.000 A 
ATOM     30  N   UNL     1       4.935   2.830  12.158  0.00  0.00    +0.000 NA
ATOM     31  C   UNL     1       6.048   3.565  12.448  0.00  0.00    +0.000 A 
ENDBRANCH  20  23
ENDBRANCH   5  19
TORSDOF 4
ENDMDL
MODEL 7
REMARK VINA RESULT:      -8.1      4.740      8.880
REMARK  Name = 
REMARK  5 active torsions:
REMARK  status: ('A' for Active; 'I' for Inactive)
REMARK    1  A    between atoms: C_1  and  C_2
REMARK    2  A    between atoms: C_5  and  N_6
REMARK    3  A    between atoms: C_8  and  C_9
REMARK    4  A    between atoms: C_15  and  N_16
REMARK    5  A    between atoms: C_17  and  C_19
REMARK                            x       y       z     vdW  Elec       q    Type
REMARK                         _______ _______ _______ _____ _____    ______ ____
ROOT
ATOM      1  N   UNL     1       5.535   4.616  18.147  0.00  0.00    +0.000 N 
ATOM      2  N   UNL     1       4.869   4.208  19.269  0.00  0.00    +0.000 NA
ATOM      3  C   UNL     1       4.076   3.210  18.855  0.00  0.00    +0.000 A 
ATOM      4  C   UNL     1       4.338   2.874  17.505  0.00  0.00    +0.000 A 
ATOM      5  C   UNL     1       5.256   3.794  17.058  0.00  0.00    +0.000 A 
ENDROOT
BRANCH   1  10
ATOM      6  C   UNL     1       8.745   9.366  18.175  0.00  0.00    +0.000 C 
ATOM      7  C   UNL     1       7.897   8.126  18.170  0.00  0.00    +0.000 A 
ATOM      8  C   UNL     1       6.676   8.093  17.484  0.00  0.00    +0.000 A 
ATOM      9  C   UNL     1       5.905   6.927  17.459  0.00  0.00    +0.000 A 
ATOM     10  C   UNL     1       6.328   5.793  18.164  0.00  0.00    +0.000 A 
ATOM     11  C   UNL     1       7.526   5.834  18.884  0.00  0.00    +0.000 A 
ATOM     12  C   UNL     1       8.317   6.988  18.867  0.00  0.00    +0.000 A 
ENDBRANCH   1  10
BRANCH   3  13
ATOM     13  C   UNL     1       3.067   2.571  19.783  0.00  0.00    +0.000 C 
ATOM     14  C   UNL     1       1.880   1.960  19.046  0.00  0.00    +0.000 C 
ATOM     15  C   UNL     1       0.892   3.104  18.950  0.00  0.00    +0.000 C 
ATOM     16  N   UNL     1       1.018   3.823  20.222  0.00  0.00    +0.000 NA
ATOM     17  C   UNL     1       2.391   3.597  20.713  0.00  0.00    +0.000 C 
ATOM     18  H   UNL     1       0.365   3.413  20.895  0.00  0.00    +0.000 HD
ENDBRANCH   3  13
BRANCH   5  19
ATOM     19  N   UNL     1       5.870   3.749  15.804  0.00  0.00    +0.000 N 
ATOM     20  C   UNL     1       5.575   4.672  14.753  0.00  0.00    +0.000 C 
ATOM     21  O   UNL     1       4.805   5.630  14.928  0.00  0.00    +0.000 OA
ATOM     22  H   UNL     1       6.588   3.040  15.637  0.00  0.00    +0.000 HD
BRANCH  20  23
ATOM     23  C   UNL     1       6.361   4.425  13.571  0.00  0.00    +0.000 A 
ATOM     24  C   UNL     1       7.631   4.943  13.221  0.00  0.00    +0.000 A 
ATOM     25  N   UNL     1       8.120   4.433  12.095  0.00  0.00    +0.000 NA
ATOM     26  N   UNL     1       7.234   3.473  11.760  0.00  0.00    +0.000 N 
ATOM     27  C   UNL     1       7.457   2.319  11.010  0.00  0.00    +0.000 A 
ATOM     28  C   UNL     1       6.522   1.362  11.031  0.00  0.00    +0.000 A 
ATOM     29  C   UNL     1       5.174   1.822  11.453  0.00  0.00    +0.000 A 
ATOM     30  N   UNL     1       4.941   2.846  12.235  0.00  0.00    +0.000 NA
ATOM     31  C   UNL     1       6.055   3.582  12.520  0.00  0.00    +0.000 A 
ENDBRANCH  20  23
ENDBRANCH   5  19
TORSDOF 4
ENDMDL
MODEL 8
REMARK VINA RESULT:      -8.1      5.493      9.650
REMARK  Name = 
REMARK  5 active torsions:
REMARK  status: ('A' for Active; 'I' for Inactive)
REMARK    1  A    between atoms: C_1  and  C_2
REMARK    2  A    between atoms: C_5  and  N_6
REMARK    3  A    between atoms: C_8  and  C_9
REMARK    4  A    between atoms: C_15  and  N_16
REMARK    5  A    between atoms: C_17  and  C_19
REMARK                            x       y       z     vdW  Elec       q    Type
REMARK                         _______ _______ _______ _____ _____    ______ ____
ROOT
ATOM      1  N   UNL     1      -1.265  12.497  22.300  0.00  0.00    +0.000 N 
ATOM      2  N   UNL     1      -1.010  13.148  23.475  0.00  0.00    +0.000 NA
ATOM      3  C   UNL     1      -1.627  14.331  23.353  0.00  0.00    +0.000 A 
ATOM      4  C   UNL     1      -2.402  14.386  22.169  0.00  0.00    +0.000 A 
ATOM      5  C   UNL     1      -2.145  13.216  21.495  0.00  0.00    +0.000 A 
ENDROOT
BRANCH   1  10
ATOM      6  C   UNL     1       1.371   7.570  21.016  0.00  0.00    +0.000 C 
ATOM      7  C   UNL     1       0.687   8.866  21.350  0.00  0.00    +0.000 A 
ATOM      8  C   UNL     1       0.653   9.919  20.428  0.00  0.00    +0.000 A 
ATOM      9  C   UNL     1      -0.010  11.112  20.733  0.00  0.00    +0.000 A 
ATOM     10  C   UNL     1      -0.606  11.279  21.989  0.00  0.00    +0.000 A 
ATOM     11  C   UNL     1      -0.539  10.246  22.929  0.00  0.00    +0.000 A 
ATOM     12  C   UNL     1       0.084   9.037  22.601  0.00  0.00    +0.000 A 
ENDBRANCH   1  10
BRANCH   3  13
ATOM     13  C   UNL     1      -1.471  15.410  24.402  0.00  0.00    +0.000 C 
ATOM     14  C   UNL     1      -2.499  15.305  25.524  0.00  0.00    +0.000 C 
ATOM     15  C   UNL     1      -3.665  16.129  25.017  0.00  0.00    +0.000 C 
ATOM     16  N   UNL     1      -3.053  17.268  24.325  0.00  0.00    +0.000 NA
ATOM     17  C   UNL     1      -1.732  16.820  23.839  0.00  0.00    +0.000 C 
ATOM     18  H   UNL     1      -2.908  18.022  25.000  0.00  0.00    +0.000 HD
ENDBRANCH   3  13
BRANCH   5  19
ATOM     19  N   UNL     1      -2.800  12.820  20.326  0.00  0.00    +0.000 N 
ATOM     20  C   UNL     1      -4.152  12.356  20.305  0.00  0.00    +0.000 C 
ATOM     21  O   UNL     1      -4.855  12.358  21.327  0.00  0.00    +0.000 OA
ATOM     22  H   UNL     1      -2.299  12.894  19.438  0.00  0.00    +0.000 HD
BRANCH  20  23
ATOM     23  C   UNL     1      -4.598  12.033  18.973  0.00  0.00    +0.000 A 
ATOM     24  C   UNL     1      -5.713  12.537  18.261  0.00  0.00    +0.000 A 
ATOM     25  N   UNL     1      -5.785  12.098  17.008  0.00  0.00    +0.000 NA
ATOM     26  N   UNL     1      -4.641  11.402  16.841  0.00  0.00    +0.000 N 
ATOM     27  C   UNL     1      -3.948  11.158  15.655  0.00  0.00    +0.000 A 
ATOM     28  C   UNL     1      -2.696  10.693  15.741  0.00  0.00    +0.000 A 
ATOM     29  C   UNL     1      -2.359  10.054  17.039  0.00  0.00    +0.000 A 
ATOM     30  N   UNL     1      -2.930  10.334  18.184  0.00  0.00    +0.000 NA
ATOM     31  C   UNL     1      -4.000  11.174  18.072  0.00  0.00    +0.000 A 
ENDBRANCH  20  23
ENDBRANCH   5  19
TORSDOF 4
ENDMDL
MODEL 9
REMARK VINA RESULT:      -8.1      4.623      7.965
REMARK  Name = 
REMARK  5 active torsions:
REMARK  status: ('A' for Active; 'I' for Inactive)
REMARK    1  A    between atoms: C_1  and  C_2
REMARK    2  A    between atoms: C_5  and  N_6
REMARK    3  A    between atoms: C_8  and  C_9
REMARK    4  A    between atoms: C_15  and  N_16
REMARK    5  A    between atoms: C_17  and  C_19
REMARK                            x       y       z     vdW  Elec       q    Type
REMARK                         _______ _______ _______ _____ _____    ______ ____
ROOT
ATOM      1  N   UNL     1       0.944  12.718  19.052  0.00  0.00    +0.000 N 
ATOM      2  N   UNL     1       1.878  13.608  19.504  0.00  0.00    +0.000 NA
ATOM      3  C   UNL     1       1.363  14.815  19.232  0.00  0.00    +0.000 A 
ATOM      4  C   UNL     1       0.037  14.709  18.745  0.00  0.00    +0.000 A 
ATOM      5  C   UNL     1      -0.210  13.363  18.614  0.00  0.00    +0.000 A 
ENDROOT
BRANCH   1  10
ATOM      6  C   UNL     1       2.140   7.114  18.867  0.00  0.00    +0.000 C 
ATOM      7  C   UNL     1       1.818   8.581  18.917  0.00  0.00    +0.000 A 
ATOM      8  C   UNL     1       1.100   9.123  19.990  0.00  0.00    +0.000 A 
ATOM      9  C   UNL     1       0.829  10.493  20.046  0.00  0.00    +0.000 A 
ATOM     10  C   UNL     1       1.234  11.330  18.998  0.00  0.00    +0.000 A 
ATOM     11  C   UNL     1       1.916  10.787  17.905  0.00  0.00    +0.000 A 
ATOM     12  C   UNL     1       2.226   9.423  17.877  0.00  0.00    +0.000 A 
ENDBRANCH   1  10
BRANCH   3  13
ATOM     13  C   UNL     1       2.161  16.080  19.461  0.00  0.00    +0.000 C 
ATOM     14  C   UNL     1       1.382  17.347  19.122  0.00  0.00    +0.000 C 
ATOM     15  C   UNL     1       1.679  17.564  17.652  0.00  0.00    +0.000 C 
ATOM     16  N   UNL     1       3.084  17.179  17.486  0.00  0.00    +0.000 NA
ATOM     17  C   UNL     1       3.384  16.179  18.531  0.00  0.00    +0.000 C 
ATOM     18  H   UNL     1       3.670  18.001  17.651  0.00  0.00    +0.000 HD
ENDBRANCH   3  13
BRANCH   5  19
ATOM     19  N   UNL     1      -1.450  12.820  18.268  0.00  0.00    +0.000 N 
ATOM     20  C   UNL     1      -2.370  12.294  19.226  0.00  0.00    +0.000 C 
ATOM     21  O   UNL     1      -2.150  12.367  20.446  0.00  0.00    +0.000 OA
ATOM     22  H   UNL     1      -1.727  12.826  17.283  0.00  0.00    +0.000 HD
BRANCH  20  23
ATOM     23  C   UNL     1      -3.584  11.816  18.614  0.00  0.00    +0.000 A 
ATOM     24  C   UNL     1      -3.754  11.143  17.381  0.00  0.00    +0.000 A 
ATOM     25  N   UNL     1      -5.006  10.755  17.157  0.00  0.00    +0.000 NA
ATOM     26  N   UNL     1      -5.650  11.053  18.303  0.00  0.00    +0.000 N 
ATOM     27  C   UNL     1      -6.790  10.449  18.833  0.00  0.00    +0.000 A 
ATOM     28  C   UNL     1      -7.102  10.701  20.110  0.00  0.00    +0.000 A 
ATOM     29  C   UNL     1      -6.490  11.935  20.666  0.00  0.00    +0.000 A 
ATOM     30  N   UNL     1      -5.370  12.471  20.250  0.00  0.00    +0.000 NA
ATOM     31  C   UNL     1      -4.865  11.881  19.126  0.00  0.00    +0.000 A 
ENDBRANCH  20  23
ENDBRANCH   5  19
TORSDOF 4
ENDMDL
