MODEL 1
REMARK VINA RESULT:      -7.5      0.000      0.000
REMARK  Name = 
REMARK  6 active torsions:
REMARK  status: ('A' for Active; 'I' for Inactive)
REMARK    1  A    between atoms: C_2  and  C_3
REMARK    2  A    between atoms: C_3  and  N_4
REMARK    3  A    between atoms: C_7  and  C_8
REMARK    4  A    between atoms: C_7  and  C_9
REMARK    5  A    between atoms: C_13  and  O_14
REMARK    6  A    between atoms: C_16  and  C_17
REMARK                            x       y       z     vdW  Elec       q    Type
REMARK                         _______ _______ _______ _____ _____    ______ ____
ROOT
ATOM      1  N   UNL     1       1.428   3.926  18.896  0.00  0.00    +0.000 NA
ATOM      2  C   UNL     1       1.711   5.083  19.745  0.00  0.00    +0.000 C 
ATOM      3  C   UNL     1       3.177   5.503  19.713  0.00  0.00    +0.000 C 
ATOM      4  C   UNL     1       3.737   5.802  18.288  0.00  0.00    +0.000 C 
ATOM      5  C   UNL     1       3.024   7.108  17.804  0.00  0.00    +0.000 C 
ATOM      6  C   UNL     1       3.332   4.656  17.287  0.00  0.00    +0.000 C 
ATOM      7  C   UNL     1       4.322   3.495  17.170  0.00  0.00    +0.000 C 
ATOM      8  C   UNL     1       1.885   4.140  17.522  0.00  0.00    +0.000 C 
ENDROOT
BRANCH   4   9
ATOM      9  C   UNL     1       5.273   6.043  18.341  0.00  0.00    +0.000 A 
ATOM     10  C   UNL     1       5.955   6.763  17.342  0.00  0.00    +0.000 A 
ATOM     11  C   UNL     1       7.338   7.016  17.423  0.00  0.00    +0.000 A 
ATOM     12  C   UNL     1       8.079   6.531  18.489  0.00  0.00    +0.000 A 
ATOM     13  C   UNL     1       7.442   5.773  19.459  0.00  0.00    +0.000 A 
ATOM     14  C   UNL     1       6.069   5.532  19.391  0.00  0.00    +0.000 A 
BRANCH  13  15
ATOM     15  O   UNL     1       8.125   5.241  20.512  0.00  0.00    +0.000 OA
ATOM     16  H   UNL     1       8.330   5.953  21.138  0.00  0.00    +0.000 HD
ENDBRANCH  13  15
ENDBRANCH   4   9
BRANCH   1  17
ATOM     17  C   UNL     1       1.819   2.640  19.478  0.00  0.00    +0.000 C 
BRANCH  17  19
ATOM     18  C   UNL     1       2.184   2.661  21.987  0.00  0.00    +0.000 C 
ATOM     19  C   UNL     1       1.380   2.551  20.922  0.00  0.00    +0.000 C 
ENDBRANCH  17  19
ENDBRANCH   1  17
TORSDOF 4
ENDMDL
MODEL 2
REMARK VINA RESULT:      -7.3      2.497      5.818
REMARK  Name = 
REMARK  6 active torsions:
REMARK  status: ('A' for Active; 'I' for Inactive)
REMARK    1  A    between atoms: C_2  and  C_3
REMARK    2  A    between atoms: C_3  and  N_4
REMARK    3  A    between atoms: C_7  and  C_8
REMARK    4  A    between atoms: C_7  and  C_9
REMARK    5  A    between atoms: C_13  and  O_14
REMARK    6  A    between atoms: C_16  and  C_17
REMARK                            x       y       z     vdW  Elec       q    Type
REMARK                         _______ _______ _______ _____ _____    ______ ____
ROOT
ATOM      1  N   UNL     1       7.447   6.058  17.129  0.00  0.00    +0.000 NA
ATOM      2  C   UNL     1       7.413   4.665  17.577  0.00  0.00    +0.000 C 
ATOM      3  C   UNL     1       6.087   4.279  18.225  0.00  0.00    +0.000 C 
ATOM      4  C   UNL     1       4.830   4.531  17.336  0.00  0.00    +0.000 C 
ATOM      5  C   UNL     1       4.916   3.505  16.158  0.00  0.00    +0.000 C 
ATOM      6  C   UNL     1       4.887   5.970  16.700  0.00  0.00    +0.000 C 
ATOM      7  C   UNL     1       4.232   7.085  17.519  0.00  0.00    +0.000 C 
ATOM      8  C   UNL     1       6.319   6.370  16.250  0.00  0.00    +0.000 C 
ENDROOT
BRANCH   4   9
ATOM      9  C   UNL     1       3.526   4.278  18.145  0.00  0.00    +0.000 A 
ATOM     10  C   UNL     1       2.307   3.954  17.521  0.00  0.00    +0.000 A 
ATOM     11  C   UNL     1       1.143   3.680  18.265  0.00  0.00    +0.000 A 
ATOM     12  C   UNL     1       1.160   3.754  19.649  0.00  0.00    +0.000 A 
ATOM     13  C   UNL     1       2.334   4.124  20.285  0.00  0.00    +0.000 A 
ATOM     14  C   UNL     1       3.494   4.381  19.554  0.00  0.00    +0.000 A 
BRANCH  13  15
ATOM     15  O   UNL     1       2.403   4.246  21.642  0.00  0.00    +0.000 OA
ATOM     16  H   UNL     1       1.503   4.357  21.987  0.00  0.00    +0.000 HD
ENDBRANCH  13  15
ENDBRANCH   4   9
BRANCH   1  17
ATOM     17  C   UNL     1       7.676   7.030  18.199  0.00  0.00    +0.000 C 
BRANCH  17  19
ATOM     18  C   UNL     1       8.485   9.433  18.235  0.00  0.00    +0.000 C 
ATOM     19  C   UNL     1       7.850   8.421  17.632  0.00  0.00    +0.000 C 
ENDBRANCH  17  19
ENDBRANCH   1  17
TORSDOF 4
ENDMDL
MODEL 3
REMARK VINA RESULT:      -7.2      2.850      6.009
REMARK  Name = 
REMARK  6 active torsions:
REMARK  status: ('A' for Active; 'I' for Inactive)
REMARK    1  A    between atoms: C_2  and  C_3
REMARK    2  A    between atoms: C_3  and  N_4
REMARK    3  A    between atoms: C_7  and  C_8
REMARK    4  A    between atoms: C_7  and  C_9
REMARK    5  A    between atoms: C_13  and  O_14
REMARK    6  A    between atoms: C_16  and  C_17
REMARK                            x       y       z     vdW  Elec       q    Type
REMARK                         _______ _______ _______ _____ _____    ______ ____
ROOT
ATOM      1  N   UNL     1       7.293   5.998  17.153  0.00  0.00    +0.000 NA
ATOM      2  C   UNL     1       7.272   4.621  17.646  0.00  0.00    +0.000 C 
ATOM      3  C   UNL     1       5.992   4.277  18.402  0.00  0.00    +0.000 C 
ATOM      4  C   UNL     1       4.677   4.524  17.600  0.00  0.00    +0.000 C 
ATOM      5  C   UNL     1       4.660   3.461  16.452  0.00  0.00    +0.000 C 
ATOM      6  C   UNL     1       4.708   5.941  16.916  0.00  0.00    +0.000 C 
ATOM      7  C   UNL     1       4.132   7.092  17.746  0.00  0.00    +0.000 C 
ATOM      8  C   UNL     1       6.108   6.302  16.350  0.00  0.00    +0.000 C 
ENDROOT
BRANCH   4   9
ATOM      9  C   UNL     1       3.433   4.318  18.510  0.00  0.00    +0.000 A 
ATOM     10  C   UNL     1       3.311   4.939  19.767  0.00  0.00    +0.000 A 
ATOM     11  C   UNL     1       2.160   4.784  20.563  0.00  0.00    +0.000 A 
ATOM     12  C   UNL     1       1.115   3.980  20.137  0.00  0.00    +0.000 A 
ATOM     13  C   UNL     1       1.232   3.313  18.928  0.00  0.00    +0.000 A 
ATOM     14  C   UNL     1       2.364   3.475  18.129  0.00  0.00    +0.000 A 
BRANCH  13  15
ATOM     15  O   UNL     1       0.252   2.481  18.473  0.00  0.00    +0.000 OA
ATOM     16  H   UNL     1      -0.433   2.409  19.157  0.00  0.00    +0.000 HD
ENDBRANCH  13  15
ENDBRANCH   4   9
BRANCH   1  17
ATOM     17  C   UNL     1       7.616   6.999  18.172  0.00  0.00    +0.000 C 
BRANCH  17  19
ATOM     18  C   UNL     1       8.409   9.407  18.099  0.00  0.00    +0.000 C 
ATOM     19  C   UNL     1       7.767   8.369  17.549  0.00  0.00    +0.000 C 
ENDBRANCH  17  19
ENDBRANCH   1  17
TORSDOF 4
ENDMDL
MODEL 4
REMARK VINA RESULT:      -6.7      1.012      1.513
REMARK  Name = 
REMARK  6 active torsions:
REMARK  status: ('A' for Active; 'I' for Inactive)
REMARK    1  A    between atoms: C_2  and  C_3
REMARK    2  A    between atoms: C_3  and  N_4
REMARK    3  A    between atoms: C_7  and  C_8
REMARK    4  A    between atoms: C_7  and  C_9
REMARK    5  A    between atoms: C_13  and  O_14
REMARK    6  A    between atoms: C_16  and  C_17
REMARK                            x       y       z     vdW  Elec       q    Type
REMARK                         _______ _______ _______ _____ _____    ______ ____
ROOT
ATOM      1  N   UNL     1       1.595   3.701  18.443  0.00  0.00    +0.000 NA
ATOM      2  C   UNL     1       1.749   4.890  17.605  0.00  0.00    +0.000 C 
ATOM      3  C   UNL     1       3.102   5.574  17.781  0.00  0.00    +0.000 C 
ATOM      4  C   UNL     1       4.334   4.649  17.539  0.00  0.00    +0.000 C 
ATOM      5  C   UNL     1       4.342   4.324  16.009  0.00  0.00    +0.000 C 
ATOM      6  C   UNL     1       4.154   3.283  18.301  0.00  0.00    +0.000 C 
ATOM      7  C   UNL     1       4.706   3.240  19.727  0.00  0.00    +0.000 C 
ATOM      8  C   UNL     1       2.694   2.755  18.245  0.00  0.00    +0.000 C 
ENDROOT
BRANCH   4   9
ATOM      9  C   UNL     1       5.653   5.383  17.917  0.00  0.00    +0.000 A 
ATOM     10  C   UNL     1       6.227   6.368  17.092  0.00  0.00    +0.000 A 
ATOM     11  C   UNL     1       7.395   7.060  17.465  0.00  0.00    +0.000 A 
ATOM     12  C   UNL     1       8.036   6.763  18.657  0.00  0.00    +0.000 A 
ATOM     13  C   UNL     1       7.523   5.759  19.463  0.00  0.00    +0.000 A 
ATOM     14  C   UNL     1       6.357   5.082  19.105  0.00  0.00    +0.000 A 
BRANCH  13  15
ATOM     15  O   UNL     1       8.129   5.400  20.630  0.00  0.00    +0.000 OA
ATOM     16  H   UNL     1       9.085   5.536  20.535  0.00  0.00    +0.000 HD
ENDBRANCH  13  15
ENDBRANCH   4   9
BRANCH   1  17
ATOM     17  C   UNL     1       1.277   3.988  19.844  0.00  0.00    +0.000 C 
BRANCH  17  19
ATOM     18  C   UNL     1       1.699   2.553  21.891  0.00  0.00    +0.000 C 
ATOM     19  C   UNL     1       1.219   2.711  20.652  0.00  0.00    +0.000 C 
ENDBRANCH  17  19
ENDBRANCH   1  17
TORSDOF 4
ENDMDL
MODEL 5
REMARK VINA RESULT:      -6.7      2.904      5.754
REMARK  Name = 
REMARK  6 active torsions:
REMARK  status: ('A' for Active; 'I' for Inactive)
REMARK    1  A    between atoms: C_2  and  C_3
REMARK    2  A    between atoms: C_3  and  N_4
REMARK    3  A    between atoms: C_7  and  C_8
REMARK    4  A    between atoms: C_7  and  C_9
REMARK    5  A    between atoms: C_13  and  O_14
REMARK    6  A    between atoms: C_16  and  C_17
REMARK                            x       y       z     vdW  Elec       q    Type
REMARK                         _______ _______ _______ _____ _____    ______ ____
ROOT
ATOM      1  N   UNL     1       6.416   6.178  16.297  0.00  0.00    +0.000 NA
ATOM      2  C   UNL     1       5.089   6.411  15.728  0.00  0.00    +0.000 C 
ATOM      3  C   UNL     1       3.980   5.682  16.480  0.00  0.00    +0.000 C 
ATOM      4  C   UNL     1       3.913   5.999  18.006  0.00  0.00    +0.000 C 
ATOM      5  C   UNL     1       3.448   7.488  18.123  0.00  0.00    +0.000 C 
ATOM      6  C   UNL     1       5.347   5.911  18.649  0.00  0.00    +0.000 C 
ATOM      7  C   UNL     1       5.748   4.539  19.197  0.00  0.00    +0.000 C 
ATOM      8  C   UNL     1       6.453   6.493  17.726  0.00  0.00    +0.000 C 
ENDROOT
BRANCH   4   9
ATOM      9  C   UNL     1       2.877   5.079  18.712  0.00  0.00    +0.000 A 
ATOM     10  C   UNL     1       2.327   5.393  19.969  0.00  0.00    +0.000 A 
ATOM     11  C   UNL     1       1.354   4.577  20.579  0.00  0.00    +0.000 A 
ATOM     12  C   UNL     1       0.929   3.411  19.962  0.00  0.00    +0.000 A 
ATOM     13  C   UNL     1       1.495   3.050  18.749  0.00  0.00    +0.000 A 
ATOM     14  C   UNL     1       2.447   3.862  18.134  0.00  0.00    +0.000 A 
BRANCH  13  15
ATOM     15  O   UNL     1       1.141   1.897  18.112  0.00  0.00    +0.000 OA
ATOM     16  H   UNL     1       1.778   1.732  17.398  0.00  0.00    +0.000 HD
ENDBRANCH  13  15
ENDBRANCH   4   9
BRANCH   1  17
ATOM     17  C   UNL     1       7.008   4.888  15.939  0.00  0.00    +0.000 C 
BRANCH  17  19
ATOM     18  C   UNL     1       6.204   3.803  13.792  0.00  0.00    +0.000 C 
ATOM     19  C   UNL     1       6.978   4.682  14.441  0.00  0.00    +0.000 C 
ENDBRANCH  17  19
ENDBRANCH   1  17
TORSDOF 4
ENDMDL
MODEL 6
REMARK VINA RESULT:      -6.7      1.801      1.963
REMARK  Name = 
REMARK  6 active torsions:
REMARK  status: ('A' for Active; 'I' for Inactive)
REMARK    1  A    between atoms: C_2  and  C_3
REMARK    2  A    between atoms: C_3  and  N_4
REMARK    3  A    between atoms: C_7  and  C_8
REMARK    4  A    between atoms: C_7  and  C_9
REMARK    5  A    between atoms: C_13  and  O_14
REMARK    6  A    between atoms: C_16  and  C_17
REMARK                            x       y       z     vdW  Elec       q    Type
REMARK                         _______ _______ _______ _____ _____    ______ ____
ROOT
ATOM      1  N   UNL     1       1.632   3.955  20.125  0.00  0.00    +0.000 NA
ATOM      2  C   UNL     1       2.562   5.011  20.525  0.00  0.00    +0.000 C 
ATOM      3  C   UNL     1       3.800   5.085  19.637  0.00  0.00    +0.000 C 
ATOM      4  C   UNL     1       3.499   5.257  18.116  0.00  0.00    +0.000 C 
ATOM      5  C   UNL     1       2.904   6.694  17.948  0.00  0.00    +0.000 C 
ATOM      6  C   UNL     1       2.388   4.241  17.657  0.00  0.00    +0.000 C 
ATOM      7  C   UNL     1       2.892   2.885  17.158  0.00  0.00    +0.000 C 
ATOM      8  C   UNL     1       1.262   4.068  18.714  0.00  0.00    +0.000 C 
ENDROOT
BRANCH   4   9
ATOM      9  C   UNL     1       4.807   5.140  17.282  0.00  0.00    +0.000 A 
ATOM     10  C   UNL     1       4.870   5.519  15.927  0.00  0.00    +0.000 A 
ATOM     11  C   UNL     1       6.070   5.454  15.194  0.00  0.00    +0.000 A 
ATOM     12  C   UNL     1       7.230   4.979  15.786  0.00  0.00    +0.000 A 
ATOM     13  C   UNL     1       7.183   4.548  17.102  0.00  0.00    +0.000 A 
ATOM     14  C   UNL     1       6.000   4.625  17.838  0.00  0.00    +0.000 A 
BRANCH  13  15
ATOM     15  O   UNL     1       8.283   4.040  17.727  0.00  0.00    +0.000 OA
ATOM     16  H   UNL     1       8.220   4.242  18.674  0.00  0.00    +0.000 HD
ENDBRANCH  13  15
ENDBRANCH   4   9
BRANCH   1  17
ATOM     17  C   UNL     1       2.027   2.610  20.549  0.00  0.00    +0.000 C 
BRANCH  17  19
ATOM     18  C   UNL     1       4.443   1.862  20.367  0.00  0.00    +0.000 C 
ATOM     19  C   UNL     1       3.483   2.584  20.958  0.00  0.00    +0.000 C 
ENDBRANCH  17  19
ENDBRANCH   1  17
TORSDOF 4
ENDMDL
MODEL 7
REMARK VINA RESULT:      -6.7      3.698      4.859
REMARK  Name = 
REMARK  6 active torsions:
REMARK  status: ('A' for Active; 'I' for Inactive)
REMARK    1  A    between atoms: C_2  and  C_3
REMARK    2  A    between atoms: C_3  and  N_4
REMARK    3  A    between atoms: C_7  and  C_8
REMARK    4  A    between atoms: C_7  and  C_9
REMARK    5  A    between atoms: C_13  and  O_14
REMARK    6  A    between atoms: C_16  and  C_17
REMARK                            x       y       z     vdW  Elec       q    Type
REMARK                         _______ _______ _______ _____ _____    ______ ____
ROOT
ATOM      1  N   UNL     1       4.015   5.117  18.348  0.00  0.00    +0.000 NA
ATOM      2  C   UNL     1       4.608   3.801  18.106  0.00  0.00    +0.000 C 
ATOM      3  C   UNL     1       5.127   3.634  16.681  0.00  0.00    +0.000 C 
ATOM      4  C   UNL     1       6.156   4.717  16.232  0.00  0.00    +0.000 C 
ATOM      5  C   UNL     1       7.452   4.463  17.072  0.00  0.00    +0.000 C 
ATOM      6  C   UNL     1       5.638   6.156  16.607  0.00  0.00    +0.000 C 
ATOM      7  C   UNL     1       4.797   6.858  15.538  0.00  0.00    +0.000 C 
ATOM      8  C   UNL     1       4.936   6.197  17.992  0.00  0.00    +0.000 C 
ENDROOT
BRANCH   4   9
ATOM      9  C   UNL     1       6.486   4.568  14.720  0.00  0.00    +0.000 A 
ATOM     10  C   UNL     1       7.504   5.313  14.096  0.00  0.00    +0.000 A 
ATOM     11  C   UNL     1       7.826   5.136  12.737  0.00  0.00    +0.000 A 
ATOM     12  C   UNL     1       7.118   4.233  11.959  0.00  0.00    +0.000 A 
ATOM     13  C   UNL     1       6.075   3.526  12.535  0.00  0.00    +0.000 A 
ATOM     14  C   UNL     1       5.762   3.686  13.885  0.00  0.00    +0.000 A 
BRANCH  13  15
ATOM     15  O   UNL     1       5.322   2.649  11.812  0.00  0.00    +0.000 OA
ATOM     16  H   UNL     1       5.900   1.940  11.489  0.00  0.00    +0.000 HD
ENDBRANCH  13  15
ENDBRANCH   4   9
BRANCH   1  17
ATOM     17  C   UNL     1       2.657   5.272  17.825  0.00  0.00    +0.000 C 
BRANCH  17  19
ATOM     18  C   UNL     1       1.399   4.070  19.669  0.00  0.00    +0.000 C 
ATOM     19  C   UNL     1       1.742   4.205  18.383  0.00  0.00    +0.000 C 
ENDBRANCH  17  19
ENDBRANCH   1  17
TORSDOF 4
ENDMDL
MODEL 8
REMARK VINA RESULT:      -6.6      3.225      4.375
REMARK  Name = 
REMARK  6 active torsions:
REMARK  status: ('A' for Active; 'I' for Inactive)
REMARK    1  A    between atoms: C_2  and  C_3
REMARK    2  A    between atoms: C_3  and  N_4
REMARK    3  A    between atoms: C_7  and  C_8
REMARK    4  A    between atoms: C_7  and  C_9
REMARK    5  A    between atoms: C_13  and  O_14
REMARK    6  A    between atoms: C_16  and  C_17
REMARK                            x       y       z     vdW  Elec       q    Type
REMARK                         _______ _______ _______ _____ _____    ______ ____
ROOT
ATOM      1  N   UNL     1       3.776   4.976  18.784  0.00  0.00    +0.000 NA
ATOM      2  C   UNL     1       4.418   3.684  18.541  0.00  0.00    +0.000 C 
ATOM      3  C   UNL     1       5.000   3.562  17.136  0.00  0.00    +0.000 C 
ATOM      4  C   UNL     1       6.013   4.684  16.751  0.00  0.00    +0.000 C 
ATOM      5  C   UNL     1       7.280   4.452  17.639  0.00  0.00    +0.000 C 
ATOM      6  C   UNL     1       5.435   6.098  17.131  0.00  0.00    +0.000 C 
ATOM      7  C   UNL     1       4.618   6.797  16.042  0.00  0.00    +0.000 C 
ATOM      8  C   UNL     1       4.676   6.091  18.487  0.00  0.00    +0.000 C 
ENDROOT
BRANCH   4   9
ATOM      9  C   UNL     1       6.408   4.575  15.251  0.00  0.00    +0.000 A 
ATOM     10  C   UNL     1       5.742   3.713  14.360  0.00  0.00    +0.000 A 
ATOM     11  C   UNL     1       6.077   3.657  12.993  0.00  0.00    +0.000 A 
ATOM     12  C   UNL     1       7.106   4.437  12.489  0.00  0.00    +0.000 A 
ATOM     13  C   UNL     1       7.814   5.254  13.356  0.00  0.00    +0.000 A 
ATOM     14  C   UNL     1       7.476   5.325  14.708  0.00  0.00    +0.000 A 
BRANCH  13  15
ATOM     15  O   UNL     1       8.857   6.019  12.925  0.00  0.00    +0.000 OA
ATOM     16  H   UNL     1       8.751   6.915  13.282  0.00  0.00    +0.000 HD
ENDBRANCH  13  15
ENDBRANCH   4   9
BRANCH   1  17
ATOM     17  C   UNL     1       2.435   5.101  18.208  0.00  0.00    +0.000 C 
BRANCH  17  19
ATOM     18  C   UNL     1       0.969   3.827  19.837  0.00  0.00    +0.000 C 
ATOM     19  C   UNL     1       1.556   3.950  18.641  0.00  0.00    +0.000 C 
ENDBRANCH  17  19
ENDBRANCH   1  17
TORSDOF 4
ENDMDL
MODEL 9
REMARK VINA RESULT:      -6.5      3.211      5.689
REMARK  Name = 
REMARK  6 active torsions:
REMARK  status: ('A' for Active; 'I' for Inactive)
REMARK    1  A    between atoms: C_2  and  C_3
REMARK    2  A    between atoms: C_3  and  N_4
REMARK    3  A    between atoms: C_7  and  C_8
REMARK    4  A    between atoms: C_7  and  C_9
REMARK    5  A    between atoms: C_13  and  O_14
REMARK    6  A    between atoms: C_16  and  C_17
REMARK                            x       y       z     vdW  Elec       q    Type
REMARK                         _______ _______ _______ _____ _____    ______ ____
ROOT
ATOM      1  N   UNL     1       6.294   4.176  15.366  0.00  0.00    +0.000 NA
ATOM      2  C   UNL     1       6.797   5.472  15.820  0.00  0.00    +0.000 C 
ATOM      3  C   UNL     1       5.737   6.310  16.527  0.00  0.00    +0.000 C 
ATOM      4  C   UNL     1       5.054   5.607  17.741  0.00  0.00    +0.000 C 
ATOM      5  C   UNL     1       6.152   5.485  18.849  0.00  0.00    +0.000 C 
ATOM      6  C   UNL     1       4.624   4.142  17.355  0.00  0.00    +0.000 C 
ATOM      7  C   UNL     1       3.212   3.993  16.783  0.00  0.00    +0.000 C 
ATOM      8  C   UNL     1       5.672   3.426  16.459  0.00  0.00    +0.000 C 
ENDROOT
BRANCH   4   9
ATOM      9  C   UNL     1       3.872   6.463  18.278  0.00  0.00    +0.000 A 
ATOM     10  C   UNL     1       3.196   6.145  19.470  0.00  0.00    +0.000 A 
ATOM     11  C   UNL     1       2.158   6.954  19.973  0.00  0.00    +0.000 A 
ATOM     12  C   UNL     1       1.749   8.082  19.280  0.00  0.00    +0.000 A 
ATOM     13  C   UNL     1       2.362   8.388  18.075  0.00  0.00    +0.000 A 
ATOM     14  C   UNL     1       3.401   7.599  17.581  0.00  0.00    +0.000 A 
BRANCH  13  15
ATOM     15  O   UNL     1       1.979   9.466  17.333  0.00  0.00    +0.000 OA
ATOM     16  H   UNL     1       2.491  10.237  17.624  0.00  0.00    +0.000 HD
ENDBRANCH  13  15
ENDBRANCH   4   9
BRANCH   1  17
ATOM     17  C   UNL     1       5.504   4.232  14.135  0.00  0.00    +0.000 C 
BRANCH  17  19
ATOM     18  C   UNL     1       5.742   2.963  11.953  0.00  0.00    +0.000 C 
ATOM     19  C   UNL     1       6.275   3.641  12.976  0.00  0.00    +0.000 C 
ENDBRANCH  17  19
ENDBRANCH   1  17
TORSDOF 4
ENDMDL
