MODEL 1
REMARK VINA RESULT:      -9.6      0.000      0.000
REMARK  Name = 
REMARK  7 active torsions:
REMARK  status: ('A' for Active; 'I' for Inactive)
REMARK    1  A    between atoms: C_1  and  C_2
REMARK    2  A    between atoms: N_4  and  C_5
REMARK    3  A    between atoms: C_5  and  C_6
REMARK    4  A    between atoms: N_8  and  C_9
REMARK    5  A    between atoms: C_13  and  C_14
REMARK    6  A    between atoms: C_18  and  C_19
REMARK    7  A    between atoms: C_25  and  C_26
REMARK                            x       y       z     vdW  Elec       q    Type
REMARK                         _______ _______ _______ _____ _____    ______ ____
ROOT
ATOM      1  C   UNL     1       2.519   7.505  18.857  0.00  0.00    +0.000 A 
ATOM      2  C   UNL     1       2.565   8.263  17.687  0.00  0.00    +0.000 A 
ATOM      3  C   UNL     1       1.800   9.417  17.587  0.00  0.00    +0.000 A 
ATOM      4  C   UNL     1       1.047   9.851  18.681  0.00  0.00    +0.000 A 
ATOM      5  C   UNL     1       1.043   9.163  19.915  0.00  0.00    +0.000 A 
ATOM      6  C   UNL     1       1.768   7.955  19.963  0.00  0.00    +0.000 A 
ENDROOT
BRANCH   5   7
ATOM      7  C   UNL     1       0.319   9.738  21.090  0.00  0.00    +0.000 A 
ATOM      8  C   UNL     1       0.266   9.146  22.354  0.00  0.00    +0.000 A 
ATOM      9  C   UNL     1      -0.483   9.726  23.399  0.00  0.00    +0.000 A 
ATOM     10  C   UNL     1      -1.226  10.906  23.204  0.00  0.00    +0.000 A 
ATOM     11  C   UNL     1      -1.200  11.528  21.964  0.00  0.00    +0.000 A 
ATOM     12  C   UNL     1      -0.391  10.944  20.955  0.00  0.00    +0.000 A 
BRANCH  11  13
ATOM     13  C   UNL     1      -1.986  12.708  21.544  0.00  0.00    +0.000 A 
ATOM     14  N   UNL     1      -3.181  12.555  21.009  0.00  0.00    +0.000 NA
ATOM     15  C   UNL     1      -3.725  13.791  20.881  0.00  0.00    +0.000 A 
ATOM     16  C   UNL     1      -5.015  14.103  20.450  0.00  0.00    +0.000 A 
ATOM     17  C   UNL     1      -5.397  15.438  20.426  0.00  0.00    +0.000 A 
ATOM     18  C   UNL     1      -4.470  16.433  20.733  0.00  0.00    +0.000 A 
ATOM     19  C   UNL     1      -3.133  16.148  21.107  0.00  0.00    +0.000 A 
ATOM     20  C   UNL     1      -2.162  17.285  21.222  0.00  0.00    +0.000 C 
ATOM     21  C   UNL     1      -2.813  14.779  21.238  0.00  0.00    +0.000 A 
ATOM     22  N   UNL     1      -1.716  14.057  21.679  0.00  0.00    +0.000 N 
ATOM     23  H   UNL     1      -0.895  14.452  22.118  0.00  0.00    +0.000 HD
ENDBRANCH  11  13
ENDBRANCH   5   7
BRANCH   1  26
ATOM     24  C   UNL     1       2.707   5.052  18.870  0.00  0.00    +0.000 C 
ATOM     25  O   UNL     1       1.509   4.824  18.712  0.00  0.00    +0.000 OA
ATOM     26  N   UNL     1       3.280   6.315  18.888  0.00  0.00    +0.000 N 
ATOM     27  H   UNL     1       4.224   6.369  18.512  0.00  0.00    +0.000 HD
BRANCH  24  28
ATOM     28  C   UNL     1       3.726   3.911  18.980  0.00  0.00    +0.000 C 
BRANCH  28  32
ATOM     29  C   UNL     1       5.478   3.892  14.334  0.00  0.00    +0.000 C 
ATOM     30  C   UNL     1       5.647   4.055  15.809  0.00  0.00    +0.000 A 
ATOM     31  C   UNL     1       4.671   3.860  16.707  0.00  0.00    +0.000 A 
ATOM     32  N   UNL     1       4.851   4.077  18.057  0.00  0.00    +0.000 N 
ATOM     33  C   UNL     1       6.063   4.518  18.570  0.00  0.00    +0.000 A 
ATOM     34  O   UNL     1       6.224   4.810  19.753  0.00  0.00    +0.000 OA
ATOM     35  N   UNL     1       7.084   4.630  17.664  0.00  0.00    +0.000 N 
ATOM     36  C   UNL     1       6.978   4.488  16.306  0.00  0.00    +0.000 A 
ATOM     37  O   UNL     1       7.911   4.712  15.553  0.00  0.00    +0.000 OA
ATOM     38  H   UNL     1       7.971   4.951  18.015  0.00  0.00    +0.000 HD
ENDBRANCH  28  32
ENDBRANCH  24  28
ENDBRANCH   1  26
TORSDOF 5
ENDMDL
MODEL 2
REMARK VINA RESULT:      -9.5      0.936      1.148
REMARK  Name = 
REMARK  7 active torsions:
REMARK  status: ('A' for Active; 'I' for Inactive)
REMARK    1  A    between atoms: C_1  and  C_2
REMARK    2  A    between atoms: N_4  and  C_5
REMARK    3  A    between atoms: C_5  and  C_6
REMARK    4  A    between atoms: N_8  and  C_9
REMARK    5  A    between atoms: C_13  and  C_14
REMARK    6  A    between atoms: C_18  and  C_19
REMARK    7  A    between atoms: C_25  and  C_26
REMARK                            x       y       z     vdW  Elec       q    Type
REMARK                         _______ _______ _______ _____ _____    ______ ____
ROOT
ATOM      1  C   UNL     1       2.475   7.574  18.949  0.00  0.00    +0.000 A 
ATOM      2  C   UNL     1       2.384   8.201  17.706  0.00  0.00    +0.000 A 
ATOM      3  C   UNL     1       1.519   9.273  17.540  0.00  0.00    +0.000 A 
ATOM      4  C   UNL     1       0.801   9.764  18.633  0.00  0.00    +0.000 A 
ATOM      5  C   UNL     1       0.931   9.217  19.929  0.00  0.00    +0.000 A 
ATOM      6  C   UNL     1       1.759   8.082  20.052  0.00  0.00    +0.000 A 
ENDROOT
BRANCH   5   7
ATOM      7  C   UNL     1       0.235   9.859  21.086  0.00  0.00    +0.000 A 
ATOM      8  C   UNL     1      -0.057   9.214  22.291  0.00  0.00    +0.000 A 
ATOM      9  C   UNL     1      -0.766   9.875  23.317  0.00  0.00    +0.000 A 
ATOM     10  C   UNL     1      -1.228  11.196  23.159  0.00  0.00    +0.000 A 
ATOM     11  C   UNL     1      -0.958  11.873  21.978  0.00  0.00    +0.000 A 
ATOM     12  C   UNL     1      -0.196  11.194  20.993  0.00  0.00    +0.000 A 
BRANCH  11  13
ATOM     13  C   UNL     1      -1.441  13.217  21.594  0.00  0.00    +0.000 A 
ATOM     14  N   UNL     1      -2.487  13.745  22.197  0.00  0.00    +0.000 NA
ATOM     15  C   UNL     1      -2.595  15.026  21.766  0.00  0.00    +0.000 A 
ATOM     16  C   UNL     1      -3.500  15.991  22.209  0.00  0.00    +0.000 A 
ATOM     17  C   UNL     1      -3.423  17.267  21.666  0.00  0.00    +0.000 A 
ATOM     18  C   UNL     1      -2.523  17.532  20.635  0.00  0.00    +0.000 A 
ATOM     19  C   UNL     1      -1.639  16.552  20.116  0.00  0.00    +0.000 A 
ATOM     20  C   UNL     1      -0.855  16.875  18.880  0.00  0.00    +0.000 C 
ATOM     21  C   UNL     1      -1.660  15.301  20.772  0.00  0.00    +0.000 A 
ATOM     22  N   UNL     1      -0.921  14.132  20.698  0.00  0.00    +0.000 N 
ATOM     23  H   UNL     1      -0.080  14.007  20.150  0.00  0.00    +0.000 HD
ENDBRANCH  11  13
ENDBRANCH   5   7
BRANCH   1  26
ATOM     24  C   UNL     1       2.876   5.149  19.068  0.00  0.00    +0.000 C 
ATOM     25  O   UNL     1       1.708   4.811  18.886  0.00  0.00    +0.000 OA
ATOM     26  N   UNL     1       3.335   6.458  19.050  0.00  0.00    +0.000 N 
ATOM     27  H   UNL     1       4.283   6.580  18.699  0.00  0.00    +0.000 HD
BRANCH  24  28
ATOM     28  C   UNL     1       3.986   4.108  19.253  0.00  0.00    +0.000 C 
BRANCH  28  32
ATOM     29  C   UNL     1       5.399   3.916  14.496  0.00  0.00    +0.000 C 
ATOM     30  C   UNL     1       5.674   4.128  15.950  0.00  0.00    +0.000 A 
ATOM     31  C   UNL     1       4.764   3.971  16.921  0.00  0.00    +0.000 A 
ATOM     32  N   UNL     1       5.042   4.234  18.247  0.00  0.00    +0.000 N 
ATOM     33  C   UNL     1       6.290   4.683  18.656  0.00  0.00    +0.000 A 
ATOM     34  O   UNL     1       6.538   5.014  19.813  0.00  0.00    +0.000 OA
ATOM     35  N   UNL     1       7.244   4.756  17.675  0.00  0.00    +0.000 N 
ATOM     36  C   UNL     1       7.040   4.569  16.334  0.00  0.00    +0.000 A 
ATOM     37  O   UNL     1       7.917   4.759  15.508  0.00  0.00    +0.000 OA
ATOM     38  H   UNL     1       8.155   5.083  17.950  0.00  0.00    +0.000 HD
ENDBRANCH  28  32
ENDBRANCH  24  28
ENDBRANCH   1  26
TORSDOF 5
ENDMDL
MODEL 3
REMARK VINA RESULT:      -9.4      1.513      2.237
REMARK  Name = 
REMARK  7 active torsions:
REMARK  status: ('A' for Active; 'I' for Inactive)
REMARK    1  A    between atoms: C_1  and  C_2
REMARK    2  A    between atoms: N_4  and  C_5
REMARK    3  A    between atoms: C_5  and  C_6
REMARK    4  A    between atoms: N_8  and  C_9
REMARK    5  A    between atoms: C_13  and  C_14
REMARK    6  A    between atoms: C_18  and  C_19
REMARK    7  A    between atoms: C_25  and  C_26
REMARK                            x       y       z     vdW  Elec       q    Type
REMARK                         _______ _______ _______ _____ _____    ______ ____
ROOT
ATOM      1  C   UNL     1       2.171   7.733  19.255  0.00  0.00    +0.000 A 
ATOM      2  C   UNL     1       2.095   8.211  17.947  0.00  0.00    +0.000 A 
ATOM      3  C   UNL     1       1.259   9.280  17.654  0.00  0.00    +0.000 A 
ATOM      4  C   UNL     1       0.556   9.916  18.681  0.00  0.00    +0.000 A 
ATOM      5  C   UNL     1       0.674   9.522  20.032  0.00  0.00    +0.000 A 
ATOM      6  C   UNL     1       1.471   8.387  20.289  0.00  0.00    +0.000 A 
ENDROOT
BRANCH   5   7
ATOM      7  C   UNL     1      -0.002  10.314  21.105  0.00  0.00    +0.000 A 
ATOM      8  C   UNL     1      -0.416   9.792  22.333  0.00  0.00    +0.000 A 
ATOM      9  C   UNL     1      -1.096  10.595  23.273  0.00  0.00    +0.000 A 
ATOM     10  C   UNL     1      -1.407  11.941  23.002  0.00  0.00    +0.000 A 
ATOM     11  C   UNL     1      -1.013  12.500  21.794  0.00  0.00    +0.000 A 
ATOM     12  C   UNL     1      -0.283  11.676  20.899  0.00  0.00    +0.000 A 
BRANCH  11  13
ATOM     13  C   UNL     1      -1.332  13.855  21.295  0.00  0.00    +0.000 A 
ATOM     14  N   UNL     1      -0.506  14.472  20.474  0.00  0.00    +0.000 NA
ATOM     15  C   UNL     1      -1.125  15.604  20.057  0.00  0.00    +0.000 A 
ATOM     16  C   UNL     1      -0.663  16.517  19.108  0.00  0.00    +0.000 A 
ATOM     17  C   UNL     1      -1.469  17.601  18.788  0.00  0.00    +0.000 A 
ATOM     18  C   UNL     1      -2.662  17.810  19.480  0.00  0.00    +0.000 A 
ATOM     19  C   UNL     1      -3.122  16.937  20.498  0.00  0.00    +0.000 A 
ATOM     20  C   UNL     1      -4.308  17.352  21.317  0.00  0.00    +0.000 C 
ATOM     21  C   UNL     1      -2.339  15.782  20.713  0.00  0.00    +0.000 A 
ATOM     22  N   UNL     1      -2.456  14.636  21.483  0.00  0.00    +0.000 N 
ATOM     23  H   UNL     1      -3.274  14.372  22.016  0.00  0.00    +0.000 HD
ENDBRANCH  11  13
ENDBRANCH   5   7
BRANCH   1  26
ATOM     24  C   UNL     1       2.512   5.320  19.595  0.00  0.00    +0.000 C 
ATOM     25  O   UNL     1       1.345   4.990  19.391  0.00  0.00    +0.000 OA
ATOM     26  N   UNL     1       3.001   6.614  19.487  0.00  0.00    +0.000 N 
ATOM     27  H   UNL     1       3.965   6.688  19.170  0.00  0.00    +0.000 HD
BRANCH  24  28
ATOM     28  C   UNL     1       3.590   4.278  19.917  0.00  0.00    +0.000 C 
BRANCH  28  32
ATOM     29  C   UNL     1       8.110   6.102  18.968  0.00  0.00    +0.000 C 
ATOM     30  C   UNL     1       6.914   5.279  18.611  0.00  0.00    +0.000 A 
ATOM     31  C   UNL     1       5.806   5.195  19.359  0.00  0.00    +0.000 A 
ATOM     32  N   UNL     1       4.746   4.377  19.023  0.00  0.00    +0.000 N 
ATOM     33  C   UNL     1       4.766   3.586  17.884  0.00  0.00    +0.000 A 
ATOM     34  O   UNL     1       3.879   2.780  17.610  0.00  0.00    +0.000 OA
ATOM     35  N   UNL     1       5.861   3.743  17.074  0.00  0.00    +0.000 N 
ATOM     36  C   UNL     1       6.976   4.485  17.357  0.00  0.00    +0.000 A 
ATOM     37  O   UNL     1       7.958   4.487  16.635  0.00  0.00    +0.000 OA
ATOM     38  H   UNL     1       5.896   3.175  16.244  0.00  0.00    +0.000 HD
ENDBRANCH  28  32
ENDBRANCH  24  28
ENDBRANCH   1  26
TORSDOF 5
ENDMDL
MODEL 4
REMARK VINA RESULT:      -9.4      2.171      3.089
REMARK  Name = 
REMARK  7 active torsions:
REMARK  status: ('A' for Active; 'I' for Inactive)
REMARK    1  A    between atoms: C_1  and  C_2
REMARK    2  A    between atoms: N_4  and  C_5
REMARK    3  A    between atoms: C_5  and  C_6
REMARK    4  A    between atoms: N_8  and  C_9
REMARK    5  A    between atoms: C_13  and  C_14
REMARK    6  A    between atoms: C_18  and  C_19
REMARK    7  A    between atoms: C_25  and  C_26
REMARK                            x       y       z     vdW  Elec       q    Type
REMARK                         _______ _______ _______ _____ _____    ______ ____
ROOT
ATOM      1  C   UNL     1       2.140   6.982  19.008  0.00  0.00    +0.000 A 
ATOM      2  C   UNL     1       1.998   6.642  20.353  0.00  0.00    +0.000 A 
ATOM      3  C   UNL     1       1.587   7.605  21.265  0.00  0.00    +0.000 A 
ATOM      4  C   UNL     1       1.249   8.885  20.821  0.00  0.00    +0.000 A 
ATOM      5  C   UNL     1       1.292   9.247  19.456  0.00  0.00    +0.000 A 
ATOM      6  C   UNL     1       1.784   8.272  18.564  0.00  0.00    +0.000 A 
ENDROOT
BRANCH   5   7
ATOM      7  C   UNL     1       0.802  10.590  19.021  0.00  0.00    +0.000 A 
ATOM      8  C   UNL     1       1.629  11.665  18.686  0.00  0.00    +0.000 A 
ATOM      9  C   UNL     1       1.088  12.919  18.335  0.00  0.00    +0.000 A 
ATOM     10  C   UNL     1      -0.302  13.146  18.335  0.00  0.00    +0.000 A 
ATOM     11  C   UNL     1      -1.160  12.106  18.660  0.00  0.00    +0.000 A 
ATOM     12  C   UNL     1      -0.580  10.844  18.953  0.00  0.00    +0.000 A 
BRANCH  11  13
ATOM     13  C   UNL     1      -2.630  12.178  18.808  0.00  0.00    +0.000 A 
ATOM     14  N   UNL     1      -3.415  11.519  17.979  0.00  0.00    +0.000 NA
ATOM     15  C   UNL     1      -4.682  11.632  18.450  0.00  0.00    +0.000 A 
ATOM     16  C   UNL     1      -5.827  11.016  17.945  0.00  0.00    +0.000 A 
ATOM     17  C   UNL     1      -7.034  11.230  18.597  0.00  0.00    +0.000 A 
ATOM     18  C   UNL     1      -7.098  12.120  19.668  0.00  0.00    +0.000 A 
ATOM     19  C   UNL     1      -5.964  12.814  20.159  0.00  0.00    +0.000 A 
ATOM     20  C   UNL     1      -6.169  13.895  21.178  0.00  0.00    +0.000 C 
ATOM     21  C   UNL     1      -4.733  12.482  19.551  0.00  0.00    +0.000 A 
ATOM     22  N   UNL     1      -3.402  12.799  19.771  0.00  0.00    +0.000 N 
ATOM     23  H   UNL     1      -3.050  13.318  20.565  0.00  0.00    +0.000 HD
ENDBRANCH  11  13
ENDBRANCH   5   7
BRANCH   1  26
ATOM     24  C   UNL     1       2.135   4.672  18.161  0.00  0.00    +0.000 C 
ATOM     25  O   UNL     1       1.201   4.276  18.856  0.00  0.00    +0.000 OA
ATOM     26  N   UNL     1       2.605   5.977  18.132  0.00  0.00    +0.000 N 
ATOM     27  H   UNL     1       2.966   6.287  17.233  0.00  0.00    +0.000 HD
BRANCH  24  28
ATOM     28  C   UNL     1       2.836   3.741  17.165  0.00  0.00    +0.000 C 
BRANCH  28  32
ATOM     29  C   UNL     1       7.006   4.874  14.718  0.00  0.00    +0.000 C 
ATOM     30  C   UNL     1       6.266   4.465  15.950  0.00  0.00    +0.000 A 
ATOM     31  C   UNL     1       4.946   4.235  15.996  0.00  0.00    +0.000 A 
ATOM     32  N   UNL     1       4.290   3.915  17.167  0.00  0.00    +0.000 N 
ATOM     33  C   UNL     1       4.962   3.815  18.377  0.00  0.00    +0.000 A 
ATOM     34  O   UNL     1       4.391   3.625  19.448  0.00  0.00    +0.000 OA
ATOM     35  N   UNL     1       6.323   3.961  18.312  0.00  0.00    +0.000 N 
ATOM     36  C   UNL     1       7.044   4.332  17.208  0.00  0.00    +0.000 A 
ATOM     37  O   UNL     1       8.243   4.550  17.256  0.00  0.00    +0.000 OA
ATOM     38  H   UNL     1       6.829   3.895  19.179  0.00  0.00    +0.000 HD
ENDBRANCH  28  32
ENDBRANCH  24  28
ENDBRANCH   1  26
TORSDOF 5
ENDMDL
MODEL 5
REMARK VINA RESULT:      -9.3      1.440      1.988
REMARK  Name = 
REMARK  7 active torsions:
REMARK  status: ('A' for Active; 'I' for Inactive)
REMARK    1  A    between atoms: C_1  and  C_2
REMARK    2  A    between atoms: N_4  and  C_5
REMARK    3  A    between atoms: C_5  and  C_6
REMARK    4  A    between atoms: N_8  and  C_9
REMARK    5  A    between atoms: C_13  and  C_14
REMARK    6  A    between atoms: C_18  and  C_19
REMARK    7  A    between atoms: C_25  and  C_26
REMARK                            x       y       z     vdW  Elec       q    Type
REMARK                         _______ _______ _______ _____ _____    ______ ____
ROOT
ATOM      1  C   UNL     1       2.289   7.608  19.122  0.00  0.00    +0.000 A 
ATOM      2  C   UNL     1       2.292   8.198  17.857  0.00  0.00    +0.000 A 
ATOM      3  C   UNL     1       1.507   9.318  17.620  0.00  0.00    +0.000 A 
ATOM      4  C   UNL     1       0.776   9.890  18.664  0.00  0.00    +0.000 A 
ATOM      5  C   UNL     1       0.815   9.379  19.981  0.00  0.00    +0.000 A 
ATOM      6  C   UNL     1       1.561   8.198  20.175  0.00  0.00    +0.000 A 
ENDROOT
BRANCH   5   7
ATOM      7  C   UNL     1       0.113  10.102  21.085  0.00  0.00    +0.000 A 
ATOM      8  C   UNL     1      -0.228   9.531  22.314  0.00  0.00    +0.000 A 
ATOM      9  C   UNL     1      -0.938  10.267  23.286  0.00  0.00    +0.000 A 
ATOM     10  C   UNL     1      -1.353  11.591  23.049  0.00  0.00    +0.000 A 
ATOM     11  C   UNL     1      -1.033  12.197  21.842  0.00  0.00    +0.000 A 
ATOM     12  C   UNL     1      -0.271  11.444  20.912  0.00  0.00    +0.000 A 
BRANCH  11  13
ATOM     13  C   UNL     1      -1.462  13.534  21.377  0.00  0.00    +0.000 A 
ATOM     14  N   UNL     1      -2.503  14.127  21.927  0.00  0.00    +0.000 NA
ATOM     15  C   UNL     1      -2.559  15.386  21.428  0.00  0.00    +0.000 A 
ATOM     16  C   UNL     1      -3.440  16.402  21.798  0.00  0.00    +0.000 A 
ATOM     17  C   UNL     1      -3.309  17.644  21.192  0.00  0.00    +0.000 A 
ATOM     18  C   UNL     1      -2.379  17.824  20.169  0.00  0.00    +0.000 A 
ATOM     19  C   UNL     1      -1.518  16.790  19.723  0.00  0.00    +0.000 A 
ATOM     20  C   UNL     1      -0.696  17.021  18.490  0.00  0.00    +0.000 C 
ATOM     21  C   UNL     1      -1.594  15.577  20.442  0.00  0.00    +0.000 A 
ATOM     22  N   UNL     1      -0.893  14.382  20.446  0.00  0.00    +0.000 N 
ATOM     23  H   UNL     1      -0.045  14.201  19.926  0.00  0.00    +0.000 HD
ENDBRANCH  11  13
ENDBRANCH   5   7
BRANCH   1  26
ATOM     24  C   UNL     1       2.539   5.236  19.725  0.00  0.00    +0.000 C 
ATOM     25  O   UNL     1       1.341   5.013  19.890  0.00  0.00    +0.000 OA
ATOM     26  N   UNL     1       3.069   6.444  19.295  0.00  0.00    +0.000 N 
ATOM     27  H   UNL     1       3.910   6.370  18.726  0.00  0.00    +0.000 HD
BRANCH  24  28
ATOM     28  C   UNL     1       3.587   4.131  19.906  0.00  0.00    +0.000 C 
BRANCH  28  32
ATOM     29  C   UNL     1       8.072   6.046  18.969  0.00  0.00    +0.000 C 
ATOM     30  C   UNL     1       6.877   5.232  18.591  0.00  0.00    +0.000 A 
ATOM     31  C   UNL     1       5.784   5.098  19.355  0.00  0.00    +0.000 A 
ATOM     32  N   UNL     1       4.725   4.289  18.997  0.00  0.00    +0.000 N 
ATOM     33  C   UNL     1       4.730   3.558  17.818  0.00  0.00    +0.000 A 
ATOM     34  O   UNL     1       3.845   2.759  17.519  0.00  0.00    +0.000 OA
ATOM     35  N   UNL     1       5.807   3.767  16.997  0.00  0.00    +0.000 N 
ATOM     36  C   UNL     1       6.922   4.504  17.297  0.00  0.00    +0.000 A 
ATOM     37  O   UNL     1       7.890   4.553  16.557  0.00  0.00    +0.000 OA
ATOM     38  H   UNL     1       5.832   3.244  16.137  0.00  0.00    +0.000 HD
ENDBRANCH  28  32
ENDBRANCH  24  28
ENDBRANCH   1  26
TORSDOF 5
ENDMDL
MODEL 6
REMARK VINA RESULT:      -9.1      2.096      3.034
REMARK  Name = 
REMARK  7 active torsions:
REMARK  status: ('A' for Active; 'I' for Inactive)
REMARK    1  A    between atoms: C_1  and  C_2
REMARK    2  A    between atoms: N_4  and  C_5
REMARK    3  A    between atoms: C_5  and  C_6
REMARK    4  A    between atoms: N_8  and  C_9
REMARK    5  A    between atoms: C_13  and  C_14
REMARK    6  A    between atoms: C_18  and  C_19
REMARK    7  A    between atoms: C_25  and  C_26
REMARK                            x       y       z     vdW  Elec       q    Type
REMARK                         _______ _______ _______ _____ _____    ______ ____
ROOT
ATOM      1  C   UNL     1       2.139   6.978  19.073  0.00  0.00    +0.000 A 
ATOM      2  C   UNL     1       2.038   6.636  20.422  0.00  0.00    +0.000 A 
ATOM      3  C   UNL     1       1.635   7.591  21.344  0.00  0.00    +0.000 A 
ATOM      4  C   UNL     1       1.262   8.865  20.909  0.00  0.00    +0.000 A 
ATOM      5  C   UNL     1       1.262   9.227  19.544  0.00  0.00    +0.000 A 
ATOM      6  C   UNL     1       1.748   8.261  18.638  0.00  0.00    +0.000 A 
ENDROOT
BRANCH   5   7
ATOM      7  C   UNL     1       0.737  10.561  19.122  0.00  0.00    +0.000 A 
ATOM      8  C   UNL     1       1.526  11.602  18.626  0.00  0.00    +0.000 A 
ATOM      9  C   UNL     1       0.960  12.853  18.299  0.00  0.00    +0.000 A 
ATOM     10  C   UNL     1      -0.412  13.110  18.483  0.00  0.00    +0.000 A 
ATOM     11  C   UNL     1      -1.233  12.103  18.972  0.00  0.00    +0.000 A 
ATOM     12  C   UNL     1      -0.636  10.842  19.237  0.00  0.00    +0.000 A 
BRANCH  11  13
ATOM     13  C   UNL     1      -2.665  12.213  19.321  0.00  0.00    +0.000 A 
ATOM     14  N   UNL     1      -3.029  12.466  20.563  0.00  0.00    +0.000 NA
ATOM     15  C   UNL     1      -4.369  12.676  20.555  0.00  0.00    +0.000 A 
ATOM     16  C   UNL     1      -5.168  13.067  21.629  0.00  0.00    +0.000 A 
ATOM     17  C   UNL     1      -6.523  13.268  21.405  0.00  0.00    +0.000 A 
ATOM     18  C   UNL     1      -7.071  12.986  20.155  0.00  0.00    +0.000 A 
ATOM     19  C   UNL     1      -6.296  12.520  19.064  0.00  0.00    +0.000 A 
ATOM     20  C   UNL     1      -7.004  12.055  17.826  0.00  0.00    +0.000 C 
ATOM     21  C   UNL     1      -4.904  12.442  19.292  0.00  0.00    +0.000 A 
ATOM     22  N   UNL     1      -3.788  12.169  18.517  0.00  0.00    +0.000 N 
ATOM     23  H   UNL     1      -3.789  12.055  17.513  0.00  0.00    +0.000 HD
ENDBRANCH  11  13
ENDBRANCH   5   7
BRANCH   1  26
ATOM     24  C   UNL     1       2.128   4.677  18.203  0.00  0.00    +0.000 C 
ATOM     25  O   UNL     1       1.195   4.276  18.897  0.00  0.00    +0.000 OA
ATOM     26  N   UNL     1       2.600   5.981  18.185  0.00  0.00    +0.000 N 
ATOM     27  H   UNL     1       2.957   6.300  17.287  0.00  0.00    +0.000 HD
BRANCH  24  28
ATOM     28  C   UNL     1       2.823   3.755  17.194  0.00  0.00    +0.000 C 
BRANCH  28  32
ATOM     29  C   UNL     1       6.993   4.887  14.747  0.00  0.00    +0.000 C 
ATOM     30  C   UNL     1       6.253   4.473  15.978  0.00  0.00    +0.000 A 
ATOM     31  C   UNL     1       4.933   4.248  16.024  0.00  0.00    +0.000 A 
ATOM     32  N   UNL     1       4.277   3.924  17.195  0.00  0.00    +0.000 N 
ATOM     33  C   UNL     1       4.951   3.815  18.403  0.00  0.00    +0.000 A 
ATOM     34  O   UNL     1       4.381   3.621  19.474  0.00  0.00    +0.000 OA
ATOM     35  N   UNL     1       6.313   3.957  18.336  0.00  0.00    +0.000 N 
ATOM     36  C   UNL     1       7.033   4.332  17.234  0.00  0.00    +0.000 A 
ATOM     37  O   UNL     1       8.233   4.544  17.281  0.00  0.00    +0.000 OA
ATOM     38  H   UNL     1       6.820   3.885  19.203  0.00  0.00    +0.000 HD
ENDBRANCH  28  32
ENDBRANCH  24  28
ENDBRANCH   1  26
TORSDOF 5
ENDMDL
MODEL 7
REMARK VINA RESULT:      -9.1      1.010      1.443
REMARK  Name = 
REMARK  7 active torsions:
REMARK  status: ('A' for Active; 'I' for Inactive)
REMARK    1  A    between atoms: C_1  and  C_2
REMARK    2  A    between atoms: N_4  and  C_5
REMARK    3  A    between atoms: C_5  and  C_6
REMARK    4  A    between atoms: N_8  and  C_9
REMARK    5  A    between atoms: C_13  and  C_14
REMARK    6  A    between atoms: C_18  and  C_19
REMARK    7  A    between atoms: C_25  and  C_26
REMARK                            x       y       z     vdW  Elec       q    Type
REMARK                         _______ _______ _______ _____ _____    ______ ____
ROOT
ATOM      1  C   UNL     1       2.467   7.557  18.942  0.00  0.00    +0.000 A 
ATOM      2  C   UNL     1       2.344   8.193  17.706  0.00  0.00    +0.000 A 
ATOM      3  C   UNL     1       1.472   9.264  17.569  0.00  0.00    +0.000 A 
ATOM      4  C   UNL     1       0.780   9.745  18.683  0.00  0.00    +0.000 A 
ATOM      5  C   UNL     1       0.943   9.189  19.971  0.00  0.00    +0.000 A 
ATOM      6  C   UNL     1       1.776   8.055  20.065  0.00  0.00    +0.000 A 
ENDROOT
BRANCH   5   7
ATOM      7  C   UNL     1       0.273   9.819  21.149  0.00  0.00    +0.000 A 
ATOM      8  C   UNL     1      -0.237   9.114  22.242  0.00  0.00    +0.000 A 
ATOM      9  C   UNL     1      -0.903   9.780  23.293  0.00  0.00    +0.000 A 
ATOM     10  C   UNL     1      -1.103  11.174  23.270  0.00  0.00    +0.000 A 
ATOM     11  C   UNL     1      -0.611  11.914  22.204  0.00  0.00    +0.000 A 
ATOM     12  C   UNL     1       0.102  11.215  21.195  0.00  0.00    +0.000 A 
BRANCH  11  13
ATOM     13  C   UNL     1      -0.806  13.358  21.958  0.00  0.00    +0.000 A 
ATOM     14  N   UNL     1      -1.759  13.772  21.146  0.00  0.00    +0.000 NA
ATOM     15  C   UNL     1      -1.811  15.123  21.243  0.00  0.00    +0.000 A 
ATOM     16  C   UNL     1      -2.731  15.977  20.634  0.00  0.00    +0.000 A 
ATOM     17  C   UNL     1      -2.639  17.338  20.892  0.00  0.00    +0.000 A 
ATOM     18  C   UNL     1      -1.587  17.831  21.663  0.00  0.00    +0.000 A 
ATOM     19  C   UNL     1      -0.598  16.995  22.236  0.00  0.00    +0.000 A 
ATOM     20  C   UNL     1       0.599  17.632  22.877  0.00  0.00    +0.000 C 
ATOM     21  C   UNL     1      -0.790  15.607  22.055  0.00  0.00    +0.000 A 
ATOM     22  N   UNL     1      -0.175  14.454  22.516  0.00  0.00    +0.000 N 
ATOM     23  H   UNL     1       0.548  14.421  23.222  0.00  0.00    +0.000 HD
ENDBRANCH  11  13
ENDBRANCH   5   7
BRANCH   1  26
ATOM     24  C   UNL     1       2.875   5.138  19.129  0.00  0.00    +0.000 C 
ATOM     25  O   UNL     1       1.695   4.797  19.069  0.00  0.00    +0.000 OA
ATOM     26  N   UNL     1       3.332   6.443  19.013  0.00  0.00    +0.000 N 
ATOM     27  H   UNL     1       4.243   6.544  18.573  0.00  0.00    +0.000 HD
BRANCH  24  28
ATOM     28  C   UNL     1       3.997   4.100  19.259  0.00  0.00    +0.000 C 
BRANCH  28  32
ATOM     29  C   UNL     1       5.250   4.053  14.454  0.00  0.00    +0.000 C 
ATOM     30  C   UNL     1       5.575   4.218  15.904  0.00  0.00    +0.000 A 
ATOM     31  C   UNL     1       4.697   4.035  16.899  0.00  0.00    +0.000 A 
ATOM     32  N   UNL     1       5.020   4.253  18.223  0.00  0.00    +0.000 N 
ATOM     33  C   UNL     1       6.283   4.683  18.604  0.00  0.00    +0.000 A 
ATOM     34  O   UNL     1       6.571   4.975  19.763  0.00  0.00    +0.000 OA
ATOM     35  N   UNL     1       7.205   4.782  17.595  0.00  0.00    +0.000 N 
ATOM     36  C   UNL     1       6.955   4.639  16.256  0.00  0.00    +0.000 A 
ATOM     37  O   UNL     1       7.806   4.852  15.408  0.00  0.00    +0.000 OA
ATOM     38  H   UNL     1       8.126   5.095  17.850  0.00  0.00    +0.000 HD
ENDBRANCH  28  32
ENDBRANCH  24  28
ENDBRANCH   1  26
TORSDOF 5
ENDMDL
MODEL 8
REMARK VINA RESULT:      -9.1      5.894      9.146
REMARK  Name = 
REMARK  7 active torsions:
REMARK  status: ('A' for Active; 'I' for Inactive)
REMARK    1  A    between atoms: C_1  and  C_2
REMARK    2  A    between atoms: N_4  and  C_5
REMARK    3  A    between atoms: C_5  and  C_6
REMARK    4  A    between atoms: N_8  and  C_9
REMARK    5  A    between atoms: C_13  and  C_14
REMARK    6  A    between atoms: C_18  and  C_19
REMARK    7  A    between atoms: C_25  and  C_26
REMARK                            x       y       z     vdW  Elec       q    Type
REMARK                         _______ _______ _______ _____ _____    ______ ____
ROOT
ATOM      1  C   UNL     1       3.765  14.873  18.004  0.00  0.00    +0.000 A 
ATOM      2  C   UNL     1       3.146  16.098  18.247  0.00  0.00    +0.000 A 
ATOM      3  C   UNL     1       1.807  16.131  18.611  0.00  0.00    +0.000 A 
ATOM      4  C   UNL     1       1.108  14.936  18.803  0.00  0.00    +0.000 A 
ATOM      5  C   UNL     1       1.721  13.671  18.656  0.00  0.00    +0.000 A 
ATOM      6  C   UNL     1       3.059  13.670  18.213  0.00  0.00    +0.000 A 
ENDROOT
BRANCH   5   7
ATOM      7  C   UNL     1       0.963  12.428  18.993  0.00  0.00    +0.000 A 
ATOM      8  C   UNL     1      -0.309  12.409  19.571  0.00  0.00    +0.000 A 
ATOM      9  C   UNL     1      -0.937  11.191  19.908  0.00  0.00    +0.000 A 
ATOM     10  C   UNL     1      -0.299   9.953  19.701  0.00  0.00    +0.000 A 
ATOM     11  C   UNL     1       0.964   9.926  19.127  0.00  0.00    +0.000 A 
ATOM     12  C   UNL     1       1.539  11.168  18.751  0.00  0.00    +0.000 A 
BRANCH  11  13
ATOM     13  C   UNL     1       1.824   8.741  18.923  0.00  0.00    +0.000 A 
ATOM     14  N   UNL     1       1.828   7.763  19.808  0.00  0.00    +0.000 NA
ATOM     15  C   UNL     1       2.567   6.753  19.286  0.00  0.00    +0.000 A 
ATOM     16  C   UNL     1       2.766   5.485  19.832  0.00  0.00    +0.000 A 
ATOM     17  C   UNL     1       3.530   4.571  19.118  0.00  0.00    +0.000 A 
ATOM     18  C   UNL     1       4.157   4.961  17.936  0.00  0.00    +0.000 A 
ATOM     19  C   UNL     1       4.030   6.265  17.393  0.00  0.00    +0.000 A 
ATOM     20  C   UNL     1       4.899   6.647  16.232  0.00  0.00    +0.000 C 
ATOM     21  C   UNL     1       3.150   7.130  18.080  0.00  0.00    +0.000 A 
ATOM     22  N   UNL     1       2.639   8.399  17.861  0.00  0.00    +0.000 N 
ATOM     23  H   UNL     1       2.765   8.942  17.017  0.00  0.00    +0.000 HD
ENDBRANCH  11  13
ENDBRANCH   5   7
BRANCH   1  26
ATOM     24  C   UNL     1       6.163  15.194  18.451  0.00  0.00    +0.000 C 
ATOM     25  O   UNL     1       6.054  15.346  19.667  0.00  0.00    +0.000 OA
ATOM     26  N   UNL     1       5.115  14.901  17.591  0.00  0.00    +0.000 N 
ATOM     27  H   UNL     1       5.360  14.318  16.794  0.00  0.00    +0.000 HD
BRANCH  24  28
ATOM     28  C   UNL     1       7.534  15.234  17.765  0.00  0.00    +0.000 C 
BRANCH  28  32
ATOM     29  C   UNL     1       9.142  10.545  18.060  0.00  0.00    +0.000 C 
ATOM     30  C   UNL     1       9.203  11.990  18.437  0.00  0.00    +0.000 A 
ATOM     31  C   UNL     1       8.342  12.920  18.001  0.00  0.00    +0.000 A 
ATOM     32  N   UNL     1       8.467  14.255  18.327  0.00  0.00    +0.000 N 
ATOM     33  C   UNL     1       9.501  14.718  19.128  0.00  0.00    +0.000 A 
ATOM     34  O   UNL     1       9.691  15.910  19.357  0.00  0.00    +0.000 OA
ATOM     35  N   UNL     1      10.325  13.754  19.646  0.00  0.00    +0.000 N 
ATOM     36  C   UNL     1      10.307  12.421  19.332  0.00  0.00    +0.000 A 
ATOM     37  O   UNL     1      11.146  11.641  19.751  0.00  0.00    +0.000 OA
ATOM     38  H   UNL     1      11.084  14.069  20.228  0.00  0.00    +0.000 HD
ENDBRANCH  28  32
ENDBRANCH  24  28
ENDBRANCH   1  26
TORSDOF 5
ENDMDL
MODEL 9
REMARK VINA RESULT:      -9.1      1.082      1.539
REMARK  Name = 
REMARK  7 active torsions:
REMARK  status: ('A' for Active; 'I' for Inactive)
REMARK    1  A    between atoms: C_1  and  C_2
REMARK    2  A    between atoms: N_4  and  C_5
REMARK    3  A    between atoms: C_5  and  C_6
REMARK    4  A    between atoms: N_8  and  C_9
REMARK    5  A    between atoms: C_13  and  C_14
REMARK    6  A    between atoms: C_18  and  C_19
REMARK    7  A    between atoms: C_25  and  C_26
REMARK                            x       y       z     vdW  Elec       q    Type
REMARK                         _______ _______ _______ _____ _____    ______ ____
ROOT
ATOM      1  C   UNL     1       2.421   7.615  19.029  0.00  0.00    +0.000 A 
ATOM      2  C   UNL     1       2.609   8.392  17.886  0.00  0.00    +0.000 A 
ATOM      3  C   UNL     1       1.930   9.596  17.754  0.00  0.00    +0.000 A 
ATOM      4  C   UNL     1       1.121  10.057  18.795  0.00  0.00    +0.000 A 
ATOM      5  C   UNL     1       0.973   9.346  20.007  0.00  0.00    +0.000 A 
ATOM      6  C   UNL     1       1.614   8.092  20.083  0.00  0.00    +0.000 A 
ENDROOT
BRANCH   5   7
ATOM      7  C   UNL     1       0.195   9.943  21.135  0.00  0.00    +0.000 A 
ATOM      8  C   UNL     1       0.120   9.401  22.421  0.00  0.00    +0.000 A 
ATOM      9  C   UNL     1      -0.680   9.998  23.418  0.00  0.00    +0.000 A 
ATOM     10  C   UNL     1      -1.452  11.145  23.152  0.00  0.00    +0.000 A 
ATOM     11  C   UNL     1      -1.405  11.718  21.889  0.00  0.00    +0.000 A 
ATOM     12  C   UNL     1      -0.546  11.121  20.930  0.00  0.00    +0.000 A 
BRANCH  11  13
ATOM     13  C   UNL     1      -2.212  12.855  21.397  0.00  0.00    +0.000 A 
ATOM     14  N   UNL     1      -3.424  12.652  20.919  0.00  0.00    +0.000 NA
ATOM     15  C   UNL     1      -3.981  13.870  20.705  0.00  0.00    +0.000 A 
ATOM     16  C   UNL     1      -5.286  14.140  20.293  0.00  0.00    +0.000 A 
ATOM     17  C   UNL     1      -5.678  15.466  20.169  0.00  0.00    +0.000 A 
ATOM     18  C   UNL     1      -4.748  16.488  20.358  0.00  0.00    +0.000 A 
ATOM     19  C   UNL     1      -3.397  16.241  20.709  0.00  0.00    +0.000 A 
ATOM     20  C   UNL     1      -2.431  17.388  20.694  0.00  0.00    +0.000 C 
ATOM     21  C   UNL     1      -3.064  14.889  20.945  0.00  0.00    +0.000 A 
ATOM     22  N   UNL     1      -1.947  14.211  21.408  0.00  0.00    +0.000 N 
ATOM     23  H   UNL     1      -1.115  14.646  21.784  0.00  0.00    +0.000 HD
ENDBRANCH  11  13
ENDBRANCH   5   7
BRANCH   1  26
ATOM     24  C   UNL     1       2.578   5.262  19.728  0.00  0.00    +0.000 C 
ATOM     25  O   UNL     1       1.446   5.186  20.201  0.00  0.00    +0.000 OA
ATOM     26  N   UNL     1       3.099   6.378  19.090  0.00  0.00    +0.000 N 
ATOM     27  H   UNL     1       3.755   6.181  18.338  0.00  0.00    +0.000 HD
BRANCH  24  28
ATOM     28  C   UNL     1       3.522   4.053  19.726  0.00  0.00    +0.000 C 
BRANCH  28  32
ATOM     29  C   UNL     1       8.096   5.833  18.972  0.00  0.00    +0.000 C 
ATOM     30  C   UNL     1       6.865   5.117  18.520  0.00  0.00    +0.000 A 
ATOM     31  C   UNL     1       5.765   4.962  19.268  0.00  0.00    +0.000 A 
ATOM     32  N   UNL     1       4.669   4.243  18.835  0.00  0.00    +0.000 N 
ATOM     33  C   UNL     1       4.643   3.631  17.590  0.00  0.00    +0.000 A 
ATOM     34  O   UNL     1       3.722   2.909  17.216  0.00  0.00    +0.000 OA
ATOM     35  N   UNL     1       5.731   3.867  16.791  0.00  0.00    +0.000 N 
ATOM     36  C   UNL     1       6.879   4.518  17.161  0.00  0.00    +0.000 A 
ATOM     37  O   UNL     1       7.850   4.592  16.427  0.00  0.00    +0.000 OA
ATOM     38  H   UNL     1       5.734   3.429  15.885  0.00  0.00    +0.000 HD
ENDBRANCH  28  32
ENDBRANCH  24  28
ENDBRANCH   1  26
TORSDOF 5
ENDMDL
