MODEL 1
REMARK VINA RESULT:      -6.7      0.000      0.000
REMARK  Name = 
REMARK  5 active torsions:
REMARK  status: ('A' for Active; 'I' for Inactive)
REMARK    1  A    between atoms: N_1  and  C_2
REMARK    2  A    between atoms: C_2  and  C_3
REMARK    3  A    between atoms: C_2  and  C_20
REMARK    4  A    between atoms: C_8  and  C_9
REMARK    5  A    between atoms: C_9  and  C_11
REMARK                            x       y       z     vdW  Elec       q    Type
REMARK                         _______ _______ _______ _____ _____    ______ ____
ROOT
ATOM      1  C   UNL     1       4.069   5.659  18.166  0.00  0.00    +0.000 C 
ATOM      2  O   UNL     1       3.772   6.234  17.121  0.00  0.00    +0.000 OA
ATOM      3  N   UNL     1       5.364   5.280  18.466  0.00  0.00    +0.000 N 
ATOM      4  C   UNL     1       5.980   4.866  19.714  0.00  0.00    +0.000 C 
ATOM      5  C   UNL     1       7.105   5.846  19.375  0.00  0.00    +0.000 C 
ATOM      6  C   UNL     1       6.630   5.784  17.898  0.00  0.00    +0.000 C 
ENDROOT
BRANCH   6   7
ATOM      7  C   UNL     1       7.418   4.783  16.977  0.00  0.00    +0.000 C 
ATOM      8  O   UNL     1       8.314   4.045  17.408  0.00  0.00    +0.000 OA
BRANCH   7   9
ATOM      9  C   UNL     1       6.945   4.735  15.607  0.00  0.00    +0.000 A 
ATOM     10  N   UNL     1       5.796   4.207  15.255  0.00  0.00    +0.000 NA
ATOM     11  C   UNL     1       5.793   3.993  13.890  0.00  0.00    +0.000 A 
ATOM     12  C   UNL     1       4.811   3.290  13.167  0.00  0.00    +0.000 A 
ATOM     13  C   UNL     1       5.000   3.049  11.802  0.00  0.00    +0.000 A 
ATOM     14  C   UNL     1       6.133   3.529  11.150  0.00  0.00    +0.000 A 
ATOM     15  C   UNL     1       7.094   4.276  11.834  0.00  0.00    +0.000 A 
ATOM     16  C   UNL     1       6.911   4.483  13.210  0.00  0.00    +0.000 A 
ATOM     17  S   UNL     1       7.939   5.288  14.329  0.00  0.00    +0.000 S 
ENDBRANCH   7   9
ENDBRANCH   6   7
BRANCH   1  18
ATOM     18  C   UNL     1       3.025   5.382  19.296  0.00  0.00    +0.000 C 
BRANCH  18  19
ATOM     19  C   UNL     1       1.731   4.684  18.777  0.00  0.00    +0.000 C 
ATOM     20  C   UNL     1       2.049   3.584  17.739  0.00  0.00    +0.000 C 
ATOM     21  C   UNL     1       2.685   2.329  18.351  0.00  0.00    +0.000 C 
ATOM     22  C   UNL     1       1.908   1.786  19.549  0.00  0.00    +0.000 C 
ATOM     23  C   UNL     1       1.562   2.870  20.563  0.00  0.00    +0.000 C 
ATOM     24  C   UNL     1       0.865   4.046  19.886  0.00  0.00    +0.000 C 
ENDBRANCH  18  19
BRANCH  18  25
ATOM     25  N   UNL     1       2.730   6.697  19.916  0.00  0.00    +0.000 NA
ATOM     26  H   UNL     1       1.796   6.997  19.649  0.00  0.00    +0.000 HD
ATOM     27  H   UNL     1       3.377   7.385  19.524  0.00  0.00    +0.000 HD
ENDBRANCH  18  25
ENDBRANCH   1  18
TORSDOF 5
ENDMDL
MODEL 2
REMARK VINA RESULT:      -6.6      5.037      6.726
REMARK  Name = 
REMARK  5 active torsions:
REMARK  status: ('A' for Active; 'I' for Inactive)
REMARK    1  A    between atoms: N_1  and  C_2
REMARK    2  A    between atoms: C_2  and  C_3
REMARK    3  A    between atoms: C_2  and  C_20
REMARK    4  A    between atoms: C_8  and  C_9
REMARK    5  A    between atoms: C_9  and  C_11
REMARK                            x       y       z     vdW  Elec       q    Type
REMARK                         _______ _______ _______ _____ _____    ______ ____
ROOT
ATOM      1  C   UNL     1       0.515   9.605  19.014  0.00  0.00    +0.000 C 
ATOM      2  O   UNL     1       1.286   9.691  18.061  0.00  0.00    +0.000 OA
ATOM      3  N   UNL     1       0.707   8.709  20.050  0.00  0.00    +0.000 N 
ATOM      4  C   UNL     1       0.116   8.627  21.373  0.00  0.00    +0.000 C 
ATOM      5  C   UNL     1       1.543   8.440  21.896  0.00  0.00    +0.000 C 
ATOM      6  C   UNL     1       1.948   8.020  20.457  0.00  0.00    +0.000 C 
ENDROOT
BRANCH   6   7
ATOM      7  C   UNL     1       1.993   6.471  20.193  0.00  0.00    +0.000 C 
ATOM      8  O   UNL     1       1.165   5.688  20.678  0.00  0.00    +0.000 OA
BRANCH   7   9
ATOM      9  C   UNL     1       3.029   6.054  19.267  0.00  0.00    +0.000 A 
ATOM     10  N   UNL     1       3.607   6.866  18.413  0.00  0.00    +0.000 NA
ATOM     11  C   UNL     1       4.267   6.122  17.454  0.00  0.00    +0.000 A 
ATOM     12  C   UNL     1       4.860   6.627  16.282  0.00  0.00    +0.000 A 
ATOM     13  C   UNL     1       5.392   5.739  15.341  0.00  0.00    +0.000 A 
ATOM     14  C   UNL     1       5.371   4.366  15.573  0.00  0.00    +0.000 A 
ATOM     15  C   UNL     1       4.838   3.845  16.755  0.00  0.00    +0.000 A 
ATOM     16  C   UNL     1       4.278   4.743  17.676  0.00  0.00    +0.000 A 
ATOM     17  S   UNL     1       3.490   4.409  19.168  0.00  0.00    +0.000 S 
ENDBRANCH   7   9
ENDBRANCH   6   7
BRANCH   1  18
ATOM     18  C   UNL     1      -0.708  10.562  19.193  0.00  0.00    +0.000 C 
BRANCH  18  19
ATOM     19  C   UNL     1      -1.288  11.075  17.840  0.00  0.00    +0.000 C 
ATOM     20  C   UNL     1      -1.949   9.938  17.031  0.00  0.00    +0.000 C 
ATOM     21  C   UNL     1      -3.285   9.464  17.619  0.00  0.00    +0.000 C 
ATOM     22  C   UNL     1      -4.255  10.609  17.906  0.00  0.00    +0.000 C 
ATOM     23  C   UNL     1      -3.602  11.751  18.676  0.00  0.00    +0.000 C 
ATOM     24  C   UNL     1      -2.323  12.213  17.984  0.00  0.00    +0.000 C 
ENDBRANCH  18  19
BRANCH  18  25
ATOM     25  N   UNL     1      -0.235  11.679  20.049  0.00  0.00    +0.000 NA
ATOM     26  H   UNL     1       0.781  11.654  20.109  0.00  0.00    +0.000 HD
ATOM     27  H   UNL     1      -0.584  11.523  20.996  0.00  0.00    +0.000 HD
ENDBRANCH  18  25
ENDBRANCH   1  18
TORSDOF 5
ENDMDL
MODEL 3
REMARK VINA RESULT:      -6.5      5.044      7.009
REMARK  Name = 
REMARK  5 active torsions:
REMARK  status: ('A' for Active; 'I' for Inactive)
REMARK    1  A    between atoms: N_1  and  C_2
REMARK    2  A    between atoms: C_2  and  C_3
REMARK    3  A    between atoms: C_2  and  C_20
REMARK    4  A    between atoms: C_8  and  C_9
REMARK    5  A    between atoms: C_9  and  C_11
REMARK                            x       y       z     vdW  Elec       q    Type
REMARK                         _______ _______ _______ _____ _____    ______ ____
ROOT
ATOM      1  C   UNL     1       0.453   9.729  19.125  0.00  0.00    +0.000 C 
ATOM      2  O   UNL     1       1.262   9.859  18.209  0.00  0.00    +0.000 OA
ATOM      3  N   UNL     1       0.625   8.815  20.148  0.00  0.00    +0.000 N 
ATOM      4  C   UNL     1      -0.022   8.687  21.442  0.00  0.00    +0.000 C 
ATOM      5  C   UNL     1       1.385   8.528  22.023  0.00  0.00    +0.000 C 
ATOM      6  C   UNL     1       1.866   8.153  20.596  0.00  0.00    +0.000 C 
ENDROOT
BRANCH   6   7
ATOM      7  C   UNL     1       1.968   6.612  20.300  0.00  0.00    +0.000 C 
ATOM      8  O   UNL     1       1.158   5.792  20.752  0.00  0.00    +0.000 OA
BRANCH   7   9
ATOM      9  C   UNL     1       3.035   6.250  19.387  0.00  0.00    +0.000 A 
ATOM     10  N   UNL     1       3.980   5.388  19.682  0.00  0.00    +0.000 NA
ATOM     11  C   UNL     1       5.017   5.524  18.778  0.00  0.00    +0.000 A 
ATOM     12  C   UNL     1       6.274   4.898  18.865  0.00  0.00    +0.000 A 
ATOM     13  C   UNL     1       7.271   5.222  17.939  0.00  0.00    +0.000 A 
ATOM     14  C   UNL     1       7.017   6.129  16.915  0.00  0.00    +0.000 A 
ATOM     15  C   UNL     1       5.759   6.721  16.775  0.00  0.00    +0.000 A 
ATOM     16  C   UNL     1       4.777   6.415  17.729  0.00  0.00    +0.000 A 
ATOM     17  S   UNL     1       3.177   7.030  17.870  0.00  0.00    +0.000 S 
ENDBRANCH   7   9
ENDBRANCH   6   7
BRANCH   1  18
ATOM     18  C   UNL     1      -0.804  10.647  19.269  0.00  0.00    +0.000 C 
BRANCH  18  19
ATOM     19  C   UNL     1      -1.366  11.137  17.900  0.00  0.00    +0.000 C 
ATOM     20  C   UNL     1      -1.975   9.978  17.081  0.00  0.00    +0.000 C 
ATOM     21  C   UNL     1      -3.310   9.467  17.639  0.00  0.00    +0.000 C 
ATOM     22  C   UNL     1      -4.319  10.585  17.896  0.00  0.00    +0.000 C 
ATOM     23  C   UNL     1      -3.718  11.749  18.677  0.00  0.00    +0.000 C 
ATOM     24  C   UNL     1      -2.437  12.245  18.013  0.00  0.00    +0.000 C 
ENDBRANCH  18  19
BRANCH  18  25
ATOM     25  N   UNL     1      -0.389  11.780  20.132  0.00  0.00    +0.000 NA
ATOM     26  H   UNL     1       0.403  11.499  20.706  0.00  0.00    +0.000 HD
ATOM     27  H   UNL     1      -1.154  11.986  20.777  0.00  0.00    +0.000 HD
ENDBRANCH  18  25
ENDBRANCH   1  18
TORSDOF 5
ENDMDL
MODEL 4
REMARK VINA RESULT:      -6.5      5.116      6.742
REMARK  Name = 
REMARK  5 active torsions:
REMARK  status: ('A' for Active; 'I' for Inactive)
REMARK    1  A    between atoms: N_1  and  C_2
REMARK    2  A    between atoms: C_2  and  C_3
REMARK    3  A    between atoms: C_2  and  C_20
REMARK    4  A    between atoms: C_8  and  C_9
REMARK    5  A    between atoms: C_9  and  C_11
REMARK                            x       y       z     vdW  Elec       q    Type
REMARK                         _______ _______ _______ _____ _____    ______ ____
ROOT
ATOM      1  C   UNL     1       0.371   9.743  19.049  0.00  0.00    +0.000 C 
ATOM      2  O   UNL     1       1.123   9.880  18.087  0.00  0.00    +0.000 OA
ATOM      3  N   UNL     1       0.606   8.823  20.054  0.00  0.00    +0.000 N 
ATOM      4  C   UNL     1       0.039   8.685  21.384  0.00  0.00    +0.000 C 
ATOM      5  C   UNL     1       1.479   8.525  21.878  0.00  0.00    +0.000 C 
ATOM      6  C   UNL     1       1.873   8.160  20.422  0.00  0.00    +0.000 C 
ENDROOT
BRANCH   6   7
ATOM      7  C   UNL     1       1.959   6.622  20.111  0.00  0.00    +0.000 C 
ATOM      8  O   UNL     1       1.431   5.765  20.833  0.00  0.00    +0.000 OA
BRANCH   7   9
ATOM      9  C   UNL     1       2.632   6.302  18.866  0.00  0.00    +0.000 A 
ATOM     10  N   UNL     1       2.774   5.078  18.414  0.00  0.00    +0.000 NA
ATOM     11  C   UNL     1       3.741   5.068  17.426  0.00  0.00    +0.000 A 
ATOM     12  C   UNL     1       4.292   3.923  16.823  0.00  0.00    +0.000 A 
ATOM     13  C   UNL     1       5.350   4.061  15.919  0.00  0.00    +0.000 A 
ATOM     14  C   UNL     1       5.836   5.323  15.587  0.00  0.00    +0.000 A 
ATOM     15  C   UNL     1       5.268   6.478  16.131  0.00  0.00    +0.000 A 
ATOM     16  C   UNL     1       4.230   6.325  17.062  0.00  0.00    +0.000 A 
ATOM     17  S   UNL     1       3.387   7.533  17.949  0.00  0.00    +0.000 S 
ENDBRANCH   7   9
ENDBRANCH   6   7
BRANCH   1  18
ATOM     18  C   UNL     1      -0.877  10.657  19.275  0.00  0.00    +0.000 C 
BRANCH  18  19
ATOM     19  C   UNL     1      -1.471  11.223  17.950  0.00  0.00    +0.000 C 
ATOM     20  C   UNL     1      -2.049  10.104  17.056  0.00  0.00    +0.000 C 
ATOM     21  C   UNL     1      -3.359   9.510  17.588  0.00  0.00    +0.000 C 
ATOM     22  C   UNL     1      -4.403  10.571  17.933  0.00  0.00    +0.000 C 
ATOM     23  C   UNL     1      -3.833  11.697  18.789  0.00  0.00    +0.000 C 
ATOM     24  C   UNL     1      -2.577  12.283  18.150  0.00  0.00    +0.000 C 
ENDBRANCH  18  19
BRANCH  18  25
ATOM     25  N   UNL     1      -0.433  11.741  20.187  0.00  0.00    +0.000 NA
ATOM     26  H   UNL     1       0.556  11.627  20.394  0.00  0.00    +0.000 HD
ATOM     27  H   UNL     1      -0.928  11.632  21.074  0.00  0.00    +0.000 HD
ENDBRANCH  18  25
ENDBRANCH   1  18
TORSDOF 5
ENDMDL
MODEL 5
REMARK VINA RESULT:      -6.5      5.919      9.344
REMARK  Name = 
REMARK  5 active torsions:
REMARK  status: ('A' for Active; 'I' for Inactive)
REMARK    1  A    between atoms: N_1  and  C_2
REMARK    2  A    between atoms: C_2  and  C_3
REMARK    3  A    between atoms: C_2  and  C_20
REMARK    4  A    between atoms: C_8  and  C_9
REMARK    5  A    between atoms: C_9  and  C_11
REMARK                            x       y       z     vdW  Elec       q    Type
REMARK                         _______ _______ _______ _____ _____    ______ ____
ROOT
ATOM      1  C   UNL     1       1.882   7.135  20.014  0.00  0.00    +0.000 C 
ATOM      2  O   UNL     1       1.617   7.450  21.172  0.00  0.00    +0.000 OA
ATOM      3  N   UNL     1       1.686   7.989  18.945  0.00  0.00    +0.000 N 
ATOM      4  C   UNL     1       2.175   7.949  17.578  0.00  0.00    +0.000 C 
ATOM      5  C   UNL     1       2.547   9.421  17.767  0.00  0.00    +0.000 C 
ATOM      6  C   UNL     1       1.542   9.458  18.950  0.00  0.00    +0.000 C 
ENDROOT
BRANCH   6   7
ATOM      7  C   UNL     1       0.112  10.011  18.605  0.00  0.00    +0.000 C 
ATOM      8  O   UNL     1      -0.506   9.670  17.587  0.00  0.00    +0.000 OA
BRANCH   7   9
ATOM      9  C   UNL     1      -0.452  10.881  19.619  0.00  0.00    +0.000 A 
ATOM     10  N   UNL     1      -0.326  10.667  20.908  0.00  0.00    +0.000 NA
ATOM     11  C   UNL     1      -1.249  11.439  21.588  0.00  0.00    +0.000 A 
ATOM     12  C   UNL     1      -1.535  11.360  22.964  0.00  0.00    +0.000 A 
ATOM     13  C   UNL     1      -2.581  12.122  23.495  0.00  0.00    +0.000 A 
ATOM     14  C   UNL     1      -3.313  12.983  22.682  0.00  0.00    +0.000 A 
ATOM     15  C   UNL     1      -3.011  13.119  21.325  0.00  0.00    +0.000 A 
ATOM     16  C   UNL     1      -1.983  12.325  20.796  0.00  0.00    +0.000 A 
ATOM     17  S   UNL     1      -1.430  12.212  19.171  0.00  0.00    +0.000 S 
ENDBRANCH   7   9
ENDBRANCH   6   7
BRANCH   1  18
ATOM     18  C   UNL     1       2.551   5.770  19.649  0.00  0.00    +0.000 C 
BRANCH  18  19
ATOM     19  C   UNL     1       2.132   4.608  20.600  0.00  0.00    +0.000 C 
ATOM     20  C   UNL     1       0.797   3.964  20.165  0.00  0.00    +0.000 C 
ATOM     21  C   UNL     1       0.913   3.110  18.895  0.00  0.00    +0.000 C 
ATOM     22  C   UNL     1       2.052   2.093  18.957  0.00  0.00    +0.000 C 
ATOM     23  C   UNL     1       3.367   2.714  19.417  0.00  0.00    +0.000 C 
ATOM     24  C   UNL     1       3.180   3.479  20.724  0.00  0.00    +0.000 C 
ENDBRANCH  18  19
BRANCH  18  25
ATOM     25  N   UNL     1       4.016   6.008  19.682  0.00  0.00    +0.000 NA
ATOM     26  H   UNL     1       4.369   6.087  18.731  0.00  0.00    +0.000 HD
ATOM     27  H   UNL     1       4.463   5.183  20.088  0.00  0.00    +0.000 HD
ENDBRANCH  18  25
ENDBRANCH   1  18
TORSDOF 5
ENDMDL
MODEL 6
REMARK VINA RESULT:      -6.4      6.140      8.444
REMARK  Name = 
REMARK  5 active torsions:
REMARK  status: ('A' for Active; 'I' for Inactive)
REMARK    1  A    between atoms: N_1  and  C_2
REMARK    2  A    between atoms: C_2  and  C_3
REMARK    3  A    between atoms: C_2  and  C_20
REMARK    4  A    between atoms: C_8  and  C_9
REMARK    5  A    between atoms: C_9  and  C_11
REMARK                            x       y       z     vdW  Elec       q    Type
REMARK                         _______ _______ _______ _____ _____    ______ ____
ROOT
ATOM      1  C   UNL     1      -0.876  10.232  18.262  0.00  0.00    +0.000 C 
ATOM      2  O   UNL     1      -0.265   9.600  17.403  0.00  0.00    +0.000 OA
ATOM      3  N   UNL     1      -0.436  10.330  19.569  0.00  0.00    +0.000 N 
ATOM      4  C   UNL     1      -0.819  11.223  20.648  0.00  0.00    +0.000 C 
ATOM      5  C   UNL     1       0.680  11.431  20.880  0.00  0.00    +0.000 C 
ATOM      6  C   UNL     1       0.920  10.107  20.107  0.00  0.00    +0.000 C 
ENDROOT
BRANCH   6   7
ATOM      7  C   UNL     1       1.104   8.827  21.000  0.00  0.00    +0.000 C 
ATOM      8  O   UNL     1       0.793   8.800  22.199  0.00  0.00    +0.000 OA
BRANCH   7   9
ATOM      9  C   UNL     1       1.583   7.662  20.282  0.00  0.00    +0.000 A 
ATOM     10  N   UNL     1       1.559   6.445  20.775  0.00  0.00    +0.000 NA
ATOM     11  C   UNL     1       2.389   5.634  20.025  0.00  0.00    +0.000 A 
ATOM     12  C   UNL     1       2.755   4.312  20.341  0.00  0.00    +0.000 A 
ATOM     13  C   UNL     1       3.700   3.651  19.549  0.00  0.00    +0.000 A 
ATOM     14  C   UNL     1       4.250   4.278  18.434  0.00  0.00    +0.000 A 
ATOM     15  C   UNL     1       3.860   5.568  18.068  0.00  0.00    +0.000 A 
ATOM     16  C   UNL     1       2.937   6.234  18.889  0.00  0.00    +0.000 A 
ATOM     17  S   UNL     1       2.324   7.835  18.749  0.00  0.00    +0.000 S 
ENDBRANCH   7   9
ENDBRANCH   6   7
BRANCH   1  18
ATOM     18  C   UNL     1      -2.162  11.059  17.938  0.00  0.00    +0.000 C 
BRANCH  18  19
ATOM     19  C   UNL     1      -3.192  10.276  17.069  0.00  0.00    +0.000 C 
ATOM     20  C   UNL     1      -4.129   9.405  17.935  0.00  0.00    +0.000 C 
ATOM     21  C   UNL     1      -5.160  10.217  18.730  0.00  0.00    +0.000 C 
ATOM     22  C   UNL     1      -5.932  11.215  17.869  0.00  0.00    +0.000 C 
ATOM     23  C   UNL     1      -5.018  12.057  16.986  0.00  0.00    +0.000 C 
ATOM     24  C   UNL     1      -4.078  11.171  16.173  0.00  0.00    +0.000 C 
ENDBRANCH  18  19
BRANCH  18  25
ATOM     25  N   UNL     1      -1.696  12.295  17.261  0.00  0.00    +0.000 NA
ATOM     26  H   UNL     1      -2.346  12.541  16.517  0.00  0.00    +0.000 HD
ATOM     27  H   UNL     1      -0.803  12.091  16.808  0.00  0.00    +0.000 HD
ENDBRANCH  18  25
ENDBRANCH   1  18
TORSDOF 5
ENDMDL
MODEL 7
REMARK VINA RESULT:      -6.4      7.824     10.099
REMARK  Name = 
REMARK  5 active torsions:
REMARK  status: ('A' for Active; 'I' for Inactive)
REMARK    1  A    between atoms: N_1  and  C_2
REMARK    2  A    between atoms: C_2  and  C_3
REMARK    3  A    between atoms: C_2  and  C_20
REMARK    4  A    between atoms: C_8  and  C_9
REMARK    5  A    between atoms: C_9  and  C_11
REMARK                            x       y       z     vdW  Elec       q    Type
REMARK                         _______ _______ _______ _____ _____    ______ ____
ROOT
ATOM      1  C   UNL     1      -2.967  10.744  18.014  0.00  0.00    +0.000 C 
ATOM      2  O   UNL     1      -2.763   9.618  17.566  0.00  0.00    +0.000 OA
ATOM      3  N   UNL     1      -2.019  11.441  18.740  0.00  0.00    +0.000 N 
ATOM      4  C   UNL     1      -1.928  12.842  19.108  0.00  0.00    +0.000 C 
ATOM      5  C   UNL     1      -0.476  12.778  18.628  0.00  0.00    +0.000 C 
ATOM      6  C   UNL     1      -0.557  11.236  18.788  0.00  0.00    +0.000 C 
ENDROOT
BRANCH   6   7
ATOM      7  C   UNL     1       0.014  10.665  20.136  0.00  0.00    +0.000 C 
ATOM      8  O   UNL     1      -0.352  11.082  21.244  0.00  0.00    +0.000 OA
BRANCH   7   9
ATOM      9  C   UNL     1       0.933   9.555  19.973  0.00  0.00    +0.000 A 
ATOM     10  N   UNL     1       1.619   9.338  18.875  0.00  0.00    +0.000 NA
ATOM     11  C   UNL     1       2.110   8.047  18.895  0.00  0.00    +0.000 A 
ATOM     12  C   UNL     1       2.747   7.390  17.825  0.00  0.00    +0.000 A 
ATOM     13  C   UNL     1       3.087   6.039  17.949  0.00  0.00    +0.000 A 
ATOM     14  C   UNL     1       2.833   5.352  19.134  0.00  0.00    +0.000 A 
ATOM     15  C   UNL     1       2.253   5.998  20.229  0.00  0.00    +0.000 A 
ATOM     16  C   UNL     1       1.885   7.343  20.081  0.00  0.00    +0.000 A 
ATOM     17  S   UNL     1       1.095   8.378  21.205  0.00  0.00    +0.000 S 
ENDBRANCH   7   9
ENDBRANCH   6   7
BRANCH   1  18
ATOM     18  C   UNL     1      -4.287  11.533  17.731  0.00  0.00    +0.000 C 
BRANCH  18  19
ATOM     19  C   UNL     1      -5.420  11.220  18.754  0.00  0.00    +0.000 C 
ATOM     20  C   UNL     1      -5.378  12.176  19.968  0.00  0.00    +0.000 C 
ATOM     21  C   UNL     1      -5.835  13.603  19.640  0.00  0.00    +0.000 C 
ATOM     22  C   UNL     1      -7.178  13.651  18.912  0.00  0.00    +0.000 C 
ATOM     23  C   UNL     1      -7.240  12.688  17.733  0.00  0.00    +0.000 C 
ATOM     24  C   UNL     1      -6.845  11.277  18.161  0.00  0.00    +0.000 C 
ENDBRANCH  18  19
BRANCH  18  25
ATOM     25  N   UNL     1      -4.684  11.185  16.345  0.00  0.00    +0.000 NA
ATOM     26  H   UNL     1      -5.487  11.746  16.070  0.00  0.00    +0.000 HD
ATOM     27  H   UNL     1      -4.996  10.212  16.338  0.00  0.00    +0.000 HD
ENDBRANCH  18  25
ENDBRANCH   1  18
TORSDOF 5
ENDMDL
MODEL 8
REMARK VINA RESULT:      -6.4      6.061      8.359
REMARK  Name = 
REMARK  5 active torsions:
REMARK  status: ('A' for Active; 'I' for Inactive)
REMARK    1  A    between atoms: N_1  and  C_2
REMARK    2  A    between atoms: C_2  and  C_3
REMARK    3  A    between atoms: C_2  and  C_20
REMARK    4  A    between atoms: C_8  and  C_9
REMARK    5  A    between atoms: C_9  and  C_11
REMARK                            x       y       z     vdW  Elec       q    Type
REMARK                         _______ _______ _______ _____ _____    ______ ____
ROOT
ATOM      1  C   UNL     1      -0.326  10.861  18.894  0.00  0.00    +0.000 C 
ATOM      2  O   UNL     1      -1.372  10.273  19.158  0.00  0.00    +0.000 OA
ATOM      3  N   UNL     1       0.898  10.220  18.844  0.00  0.00    +0.000 N 
ATOM      4  C   UNL     1       2.177  10.629  18.292  0.00  0.00    +0.000 C 
ATOM      5  C   UNL     1       2.229   9.248  17.635  0.00  0.00    +0.000 C 
ATOM      6  C   UNL     1       1.180   8.780  18.679  0.00  0.00    +0.000 C 
ENDROOT
BRANCH   6   7
ATOM      7  C   UNL     1       1.764   8.044  19.940  0.00  0.00    +0.000 C 
ATOM      8  O   UNL     1       1.846   8.588  21.050  0.00  0.00    +0.000 OA
BRANCH   7   9
ATOM      9  C   UNL     1       2.113   6.655  19.712  0.00  0.00    +0.000 A 
ATOM     10  N   UNL     1       2.733   6.231  18.636  0.00  0.00    +0.000 NA
ATOM     11  C   UNL     1       2.603   4.858  18.547  0.00  0.00    +0.000 A 
ATOM     12  C   UNL     1       2.984   4.062  17.451  0.00  0.00    +0.000 A 
ATOM     13  C   UNL     1       2.682   2.697  17.453  0.00  0.00    +0.000 A 
ATOM     14  C   UNL     1       2.042   2.115  18.544  0.00  0.00    +0.000 A 
ATOM     15  C   UNL     1       1.704   2.874  19.667  0.00  0.00    +0.000 A 
ATOM     16  C   UNL     1       1.981   4.249  19.640  0.00  0.00    +0.000 A 
ATOM     17  S   UNL     1       1.624   5.447  20.822  0.00  0.00    +0.000 S 
ENDBRANCH   7   9
ENDBRANCH   6   7
BRANCH   1  18
ATOM     18  C   UNL     1      -0.290  12.374  18.502  0.00  0.00    +0.000 C 
BRANCH  18  19
ATOM     19  C   UNL     1      -0.549  13.326  19.709  0.00  0.00    +0.000 C 
ATOM     20  C   UNL     1       0.426  13.052  20.876  0.00  0.00    +0.000 C 
ATOM     21  C   UNL     1       1.861  13.516  20.598  0.00  0.00    +0.000 C 
ATOM     22  C   UNL     1       1.940  14.961  20.107  0.00  0.00    +0.000 C 
ATOM     23  C   UNL     1       0.959  15.250  18.977  0.00  0.00    +0.000 C 
ATOM     24  C   UNL     1      -0.456  14.829  19.363  0.00  0.00    +0.000 C 
ENDBRANCH  18  19
BRANCH  18  25
ATOM     25  N   UNL     1      -1.307  12.547  17.436  0.00  0.00    +0.000 NA
ATOM     26  H   UNL     1      -1.135  11.878  16.690  0.00  0.00    +0.000 HD
ATOM     27  H   UNL     1      -1.183  13.475  17.026  0.00  0.00    +0.000 HD
ENDBRANCH  18  25
ENDBRANCH   1  18
TORSDOF 5
ENDMDL
MODEL 9
REMARK VINA RESULT:      -6.3      1.757      2.134
REMARK  Name = 
REMARK  5 active torsions:
REMARK  status: ('A' for Active; 'I' for Inactive)
REMARK    1  A    between atoms: N_1  and  C_2
REMARK    2  A    between atoms: C_2  and  C_3
REMARK    3  A    between atoms: C_2  and  C_20
REMARK    4  A    between atoms: C_8  and  C_9
REMARK    5  A    between atoms: C_9  and  C_11
REMARK                            x       y       z     vdW  Elec       q    Type
REMARK                         _______ _______ _______ _____ _____    ______ ____
ROOT
ATOM      1  C   UNL     1       4.535   3.806  17.826  0.00  0.00    +0.000 C 
ATOM      2  O   UNL     1       4.236   2.895  17.057  0.00  0.00    +0.000 OA
ATOM      3  N   UNL     1       5.106   4.989  17.396  0.00  0.00    +0.000 N 
ATOM      4  C   UNL     1       5.272   6.273  18.053  0.00  0.00    +0.000 C 
ATOM      5  C   UNL     1       4.729   6.896  16.766  0.00  0.00    +0.000 C 
ATOM      6  C   UNL     1       5.105   5.576  16.041  0.00  0.00    +0.000 C 
ENDROOT
BRANCH   6   7
ATOM      7  C   UNL     1       6.488   5.585  15.294  0.00  0.00    +0.000 C 
ATOM      8  O   UNL     1       7.505   6.096  15.781  0.00  0.00    +0.000 OA
BRANCH   7   9
ATOM      9  C   UNL     1       6.489   4.870  14.032  0.00  0.00    +0.000 A 
ATOM     10  N   UNL     1       5.473   4.159  13.601  0.00  0.00    +0.000 NA
ATOM     11  C   UNL     1       5.898   3.332  12.579  0.00  0.00    +0.000 A 
ATOM     12  C   UNL     1       5.142   2.307  11.980  0.00  0.00    +0.000 A 
ATOM     13  C   UNL     1       5.744   1.470  11.035  0.00  0.00    +0.000 A 
ATOM     14  C   UNL     1       7.070   1.666  10.659  0.00  0.00    +0.000 A 
ATOM     15  C   UNL     1       7.823   2.712  11.198  0.00  0.00    +0.000 A 
ATOM     16  C   UNL     1       7.219   3.525  12.170  0.00  0.00    +0.000 A 
ATOM     17  S   UNL     1       7.898   4.829  13.062  0.00  0.00    +0.000 S 
ENDBRANCH   7   9
ENDBRANCH   6   7
BRANCH   1  18
ATOM     18  C   UNL     1       4.215   3.750  19.356  0.00  0.00    +0.000 C 
BRANCH  18  19
ATOM     19  C   UNL     1       3.046   4.693  19.773  0.00  0.00    +0.000 C 
ATOM     20  C   UNL     1       1.900   4.679  18.736  0.00  0.00    +0.000 C 
ATOM     21  C   UNL     1       1.082   3.381  18.743  0.00  0.00    +0.000 C 
ATOM     22  C   UNL     1       0.604   2.981  20.138  0.00  0.00    +0.000 C 
ATOM     23  C   UNL     1       1.721   3.022  21.175  0.00  0.00    +0.000 C 
ATOM     24  C   UNL     1       2.433   4.372  21.154  0.00  0.00    +0.000 C 
ENDBRANCH  18  19
BRANCH  18  25
ATOM     25  N   UNL     1       5.478   4.097  20.053  0.00  0.00    +0.000 NA
ATOM     26  H   UNL     1       5.573   3.526  20.889  0.00  0.00    +0.000 HD
ATOM     27  H   UNL     1       5.409   5.066  20.371  0.00  0.00    +0.000 HD
ENDBRANCH  18  25
ENDBRANCH   1  18
TORSDOF 5
ENDMDL
