MODEL 1
REMARK VINA RESULT:      -5.8      0.000      0.000
REMARK  Name = 
REMARK  16 active torsions:
REMARK  status: ('A' for Active; 'I' for Inactive)
REMARK    1  A    between atoms: C_1  and  C_2
REMARK    2  A    between atoms: C_2  and  C_3
REMARK    3  A    between atoms: C_3  and  N_4
REMARK    4  A    between atoms: N_4  and  C_5
REMARK    5  A    between atoms: N_4  and  C_8
REMARK    6  A    between atoms: C_5  and  C_6
REMARK    7  A    between atoms: C_6  and  C_7
REMARK    8  A    between atoms: C_8  and  C_9
REMARK    9  A    between atoms: C_9  and  C_10
REMARK   10  A    between atoms: C_10  and  C_11
REMARK   11  A    between atoms: C_11  and  N_12
REMARK   12  A    between atoms: C_13  and  C_15
REMARK   13  A    between atoms: C_19  and  N_20
REMARK   14  A    between atoms: C_21  and  C_22
REMARK   15  A    between atoms: C_25  and  O_26
REMARK   16  A    between atoms: O_26  and  C_27
REMARK                            x       y       z     vdW  Elec       q    Type
REMARK                         _______ _______ _______ _____ _____    ______ ____
ROOT
ATOM      1  N   UNL     1       1.407   4.181  19.560  0.00  0.00    +0.000 N 
ATOM      2  C   UNL     1       1.796   5.104  20.513  0.00  0.00    +0.000 C 
ATOM      3  O   UNL     1       2.228   4.806  21.618  0.00  0.00    +0.000 OA
ATOM      4  H   UNL     1       1.023   4.496  18.679  0.00  0.00    +0.000 HD
ENDROOT
BRANCH   2   5
ATOM      5  C   UNL     1       1.567   6.521  20.142  0.00  0.00    +0.000 A 
ATOM      6  C   UNL     1       0.823   7.270  21.072  0.00  0.00    +0.000 A 
ATOM      7  C   UNL     1       0.643   8.663  20.954  0.00  0.00    +0.000 A 
ATOM      8  I   UNL     1      -0.029   9.516  22.758  0.00  0.00    +0.000 I 
ATOM      9  C   UNL     1       1.143   9.333  19.837  0.00  0.00    +0.000 A 
ATOM     10  C   UNL     1       1.933   8.567  18.938  0.00  0.00    +0.000 A 
ATOM     11  C   UNL     1       2.163   7.185  19.076  0.00  0.00    +0.000 A 
BRANCH   9  12
ATOM     12  N   UNL     1       1.053  10.691  19.465  0.00  0.00    +0.000 N 
ATOM     13  C   UNL     1       0.083  11.577  19.123  0.00  0.00    +0.000 C 
ATOM     14  C   UNL     1      -1.357  11.214  18.949  0.00  0.00    +0.000 C 
ATOM     15  O   UNL     1       0.445  12.735  18.882  0.00  0.00    +0.000 OA
ATOM     16  H   UNL     1       1.947  11.149  19.308  0.00  0.00    +0.000 HD
ENDBRANCH   9  12
BRANCH  11  17
ATOM     17  O   UNL     1       3.049   6.708  18.151  0.00  0.00    +0.000 OA
ATOM     18  C   UNL     1       3.754   7.640  17.341  0.00  0.00    +0.000 C 
ENDBRANCH  11  17
ENDBRANCH   2   5
BRANCH   1  19
ATOM     19  C   UNL     1       1.359   2.761  19.849  0.00  0.00    +0.000 C 
BRANCH  19  20
ATOM     20  C   UNL     1       2.630   2.023  19.424  0.00  0.00    +0.000 C 
BRANCH  20  21
ATOM     21  C   UNL     1       3.348   2.706  18.255  0.00  0.00    +0.000 C 
BRANCH  21  22
ATOM     22  C   UNL     1       4.702   3.317  18.660  0.00  0.00    +0.000 C 
BRANCH  22  23
ATOM     23  N   UNL     1       5.208   4.404  17.791  0.00  0.00    +0.000 NA
BRANCH  23  24
ATOM     24  C   UNL     1       6.660   4.598  18.004  0.00  0.00    +0.000 C 
BRANCH  24  26
ATOM     25  C   UNL     1       7.495   6.918  17.331  0.00  0.00    +0.000 C 
ATOM     26  C   UNL     1       7.128   5.983  18.473  0.00  0.00    +0.000 C 
ENDBRANCH  24  26
ENDBRANCH  23  24
BRANCH  23  27
ATOM     27  C   UNL     1       4.909   4.118  16.368  0.00  0.00    +0.000 C 
BRANCH  27  28
ATOM     28  C   UNL     1       6.107   3.713  15.488  0.00  0.00    +0.000 C 
ATOM     29  C   UNL     1       6.295   4.603  14.268  0.00  0.00    +0.000 C 
ENDBRANCH  27  28
ENDBRANCH  23  27
ENDBRANCH  22  23
ENDBRANCH  21  22
ENDBRANCH  20  21
ENDBRANCH  19  20
ENDBRANCH   1  19
TORSDOF 12
ENDMDL
MODEL 2
REMARK VINA RESULT:      -5.8      3.408      5.829
REMARK  Name = 
REMARK  16 active torsions:
REMARK  status: ('A' for Active; 'I' for Inactive)
REMARK    1  A    between atoms: C_1  and  C_2
REMARK    2  A    between atoms: C_2  and  C_3
REMARK    3  A    between atoms: C_3  and  N_4
REMARK    4  A    between atoms: N_4  and  C_5
REMARK    5  A    between atoms: N_4  and  C_8
REMARK    6  A    between atoms: C_5  and  C_6
REMARK    7  A    between atoms: C_6  and  C_7
REMARK    8  A    between atoms: C_8  and  C_9
REMARK    9  A    between atoms: C_9  and  C_10
REMARK   10  A    between atoms: C_10  and  C_11
REMARK   11  A    between atoms: C_11  and  N_12
REMARK   12  A    between atoms: C_13  and  C_15
REMARK   13  A    between atoms: C_19  and  N_20
REMARK   14  A    between atoms: C_21  and  C_22
REMARK   15  A    between atoms: C_25  and  O_26
REMARK   16  A    between atoms: O_26  and  C_27
REMARK                            x       y       z     vdW  Elec       q    Type
REMARK                         _______ _______ _______ _____ _____    ______ ____
ROOT
ATOM      1  N   UNL     1       0.590  10.619  18.099  0.00  0.00    +0.000 N 
ATOM      2  C   UNL     1      -0.221  10.480  19.210  0.00  0.00    +0.000 C 
ATOM      3  O   UNL     1       0.135   9.957  20.256  0.00  0.00    +0.000 OA
ATOM      4  H   UNL     1       0.220  11.028  17.251  0.00  0.00    +0.000 HD
ENDROOT
BRANCH   2   5
ATOM      5  C   UNL     1      -1.621  10.934  19.023  0.00  0.00    +0.000 A 
ATOM      6  C   UNL     1      -2.090  11.840  19.991  0.00  0.00    +0.000 A 
ATOM      7  C   UNL     1      -3.338  12.487  19.883  0.00  0.00    +0.000 A 
ATOM      8  I   UNL     1      -3.471  14.141  21.179  0.00  0.00    +0.000 I 
ATOM      9  C   UNL     1      -4.191  12.171  18.825  0.00  0.00    +0.000 A 
ATOM     10  C   UNL     1      -3.677  11.293  17.835  0.00  0.00    +0.000 A 
ATOM     11  C   UNL     1      -2.410  10.682  17.907  0.00  0.00    +0.000 A 
BRANCH   9  12
ATOM     12  N   UNL     1      -5.491  12.633  18.526  0.00  0.00    +0.000 N 
ATOM     13  C   UNL     1      -6.772  12.290  18.817  0.00  0.00    +0.000 C 
ATOM     14  C   UNL     1      -7.155  11.070  19.591  0.00  0.00    +0.000 C 
ATOM     15  O   UNL     1      -7.662  13.010  18.349  0.00  0.00    +0.000 OA
ATOM     16  H   UNL     1      -5.529  13.370  17.827  0.00  0.00    +0.000 HD
ENDBRANCH   9  12
BRANCH  11  17
ATOM     17  O   UNL     1      -2.105   9.978  16.776  0.00  0.00    +0.000 OA
ATOM     18  C   UNL     1      -2.685  10.385  15.544  0.00  0.00    +0.000 C 
ENDBRANCH  11  17
ENDBRANCH   2   5
BRANCH   1  19
ATOM     19  C   UNL     1       1.912  10.029  18.043  0.00  0.00    +0.000 C 
BRANCH  19  20
ATOM     20  C   UNL     1       1.899   8.578  17.554  0.00  0.00    +0.000 C 
BRANCH  20  21
ATOM     21  C   UNL     1       2.564   7.616  18.543  0.00  0.00    +0.000 C 
BRANCH  21  22
ATOM     22  C   UNL     1       2.464   6.144  18.103  0.00  0.00    +0.000 C 
BRANCH  22  23
ATOM     23  N   UNL     1       3.730   5.376  18.116  0.00  0.00    +0.000 NA
BRANCH  23  24
ATOM     24  C   UNL     1       4.846   6.218  17.627  0.00  0.00    +0.000 C 
BRANCH  24  26
ATOM     25  C   UNL     1       5.310   4.646  15.667  0.00  0.00    +0.000 C 
ATOM     26  C   UNL     1       5.237   6.087  16.148  0.00  0.00    +0.000 C 
ENDBRANCH  24  26
ENDBRANCH  23  24
BRANCH  23  27
ATOM     27  C   UNL     1       4.011   4.851  19.473  0.00  0.00    +0.000 C 
BRANCH  27  28
ATOM     28  C   UNL     1       3.035   3.786  20.007  0.00  0.00    +0.000 C 
ATOM     29  C   UNL     1       2.222   4.252  21.206  0.00  0.00    +0.000 C 
ENDBRANCH  27  28
ENDBRANCH  23  27
ENDBRANCH  22  23
ENDBRANCH  21  22
ENDBRANCH  20  21
ENDBRANCH  19  20
ENDBRANCH   1  19
TORSDOF 12
ENDMDL
MODEL 3
REMARK VINA RESULT:      -5.8      3.042      5.356
REMARK  Name = 
REMARK  16 active torsions:
REMARK  status: ('A' for Active; 'I' for Inactive)
REMARK    1  A    between atoms: C_1  and  C_2
REMARK    2  A    between atoms: C_2  and  C_3
REMARK    3  A    between atoms: C_3  and  N_4
REMARK    4  A    between atoms: N_4  and  C_5
REMARK    5  A    between atoms: N_4  and  C_8
REMARK    6  A    between atoms: C_5  and  C_6
REMARK    7  A    between atoms: C_6  and  C_7
REMARK    8  A    between atoms: C_8  and  C_9
REMARK    9  A    between atoms: C_9  and  C_10
REMARK   10  A    between atoms: C_10  and  C_11
REMARK   11  A    between atoms: C_11  and  N_12
REMARK   12  A    between atoms: C_13  and  C_15
REMARK   13  A    between atoms: C_19  and  N_20
REMARK   14  A    between atoms: C_21  and  C_22
REMARK   15  A    between atoms: C_25  and  O_26
REMARK   16  A    between atoms: O_26  and  C_27
REMARK                            x       y       z     vdW  Elec       q    Type
REMARK                         _______ _______ _______ _____ _____    ______ ____
ROOT
ATOM      1  N   UNL     1       1.537   9.500  18.049  0.00  0.00    +0.000 N 
ATOM      2  C   UNL     1       0.796   9.706  19.198  0.00  0.00    +0.000 C 
ATOM      3  O   UNL     1       1.072   9.222  20.287  0.00  0.00    +0.000 OA
ATOM      4  H   UNL     1       1.231   9.900  17.172  0.00  0.00    +0.000 HD
ENDROOT
BRANCH   2   5
ATOM      5  C   UNL     1      -0.444  10.499  19.009  0.00  0.00    +0.000 A 
ATOM      6  C   UNL     1      -1.034  10.390  17.737  0.00  0.00    +0.000 A 
ATOM      7  C   UNL     1      -2.292  10.950  17.435  0.00  0.00    +0.000 A 
ATOM      8  I   UNL     1      -3.097  10.146  15.663  0.00  0.00    +0.000 I 
ATOM      9  C   UNL     1      -2.957  11.716  18.394  0.00  0.00    +0.000 A 
ATOM     10  C   UNL     1      -2.367  11.769  19.685  0.00  0.00    +0.000 A 
ATOM     11  C   UNL     1      -1.136  11.168  20.011  0.00  0.00    +0.000 A 
BRANCH   9  12
ATOM     12  N   UNL     1      -4.181  12.414  18.323  0.00  0.00    +0.000 N 
ATOM     13  C   UNL     1      -5.506  12.133  18.415  0.00  0.00    +0.000 C 
ATOM     14  C   UNL     1      -6.059  10.751  18.550  0.00  0.00    +0.000 C 
ATOM     15  O   UNL     1      -6.287  13.086  18.313  0.00  0.00    +0.000 OA
ATOM     16  H   UNL     1      -4.100  13.385  18.031  0.00  0.00    +0.000 HD
ENDBRANCH   9  12
BRANCH  11  17
ATOM     17  O   UNL     1      -0.845  11.264  21.344  0.00  0.00    +0.000 OA
ATOM     18  C   UNL     1      -1.707  12.031  22.174  0.00  0.00    +0.000 C 
ENDBRANCH  11  17
ENDBRANCH   2   5
BRANCH   1  19
ATOM     19  C   UNL     1       2.649   8.571  18.016  0.00  0.00    +0.000 C 
BRANCH  19  20
ATOM     20  C   UNL     1       2.212   7.125  17.770  0.00  0.00    +0.000 C 
BRANCH  20  21
ATOM     21  C   UNL     1       2.526   6.204  18.953  0.00  0.00    +0.000 C 
BRANCH  21  22
ATOM     22  C   UNL     1       2.445   4.711  18.585  0.00  0.00    +0.000 C 
BRANCH  22  23
ATOM     23  N   UNL     1       3.643   3.899  18.903  0.00  0.00    +0.000 NA
BRANCH  23  24
ATOM     24  C   UNL     1       3.268   2.735  19.738  0.00  0.00    +0.000 C 
BRANCH  24  26
ATOM     25  C   UNL     1       1.414   2.746  21.497  0.00  0.00    +0.000 C 
ATOM     26  C   UNL     1       1.775   2.529  20.036  0.00  0.00    +0.000 C 
ENDBRANCH  24  26
ENDBRANCH  23  24
BRANCH  23  27
ATOM     27  C   UNL     1       4.328   3.468  17.662  0.00  0.00    +0.000 C 
BRANCH  27  28
ATOM     28  C   UNL     1       4.814   4.591  16.727  0.00  0.00    +0.000 C 
ATOM     29  C   UNL     1       5.559   4.083  15.500  0.00  0.00    +0.000 C 
ENDBRANCH  27  28
ENDBRANCH  23  27
ENDBRANCH  22  23
ENDBRANCH  21  22
ENDBRANCH  20  21
ENDBRANCH  19  20
ENDBRANCH   1  19
TORSDOF 12
ENDMDL
MODEL 4
REMARK VINA RESULT:      -5.8      3.317      5.844
REMARK  Name = 
REMARK  16 active torsions:
REMARK  status: ('A' for Active; 'I' for Inactive)
REMARK    1  A    between atoms: C_1  and  C_2
REMARK    2  A    between atoms: C_2  and  C_3
REMARK    3  A    between atoms: C_3  and  N_4
REMARK    4  A    between atoms: N_4  and  C_5
REMARK    5  A    between atoms: N_4  and  C_8
REMARK    6  A    between atoms: C_5  and  C_6
REMARK    7  A    between atoms: C_6  and  C_7
REMARK    8  A    between atoms: C_8  and  C_9
REMARK    9  A    between atoms: C_9  and  C_10
REMARK   10  A    between atoms: C_10  and  C_11
REMARK   11  A    between atoms: C_11  and  N_12
REMARK   12  A    between atoms: C_13  and  C_15
REMARK   13  A    between atoms: C_19  and  N_20
REMARK   14  A    between atoms: C_21  and  C_22
REMARK   15  A    between atoms: C_25  and  O_26
REMARK   16  A    between atoms: O_26  and  C_27
REMARK                            x       y       z     vdW  Elec       q    Type
REMARK                         _______ _______ _______ _____ _____    ______ ____
ROOT
ATOM      1  N   UNL     1       1.244  10.186  17.862  0.00  0.00    +0.000 N 
ATOM      2  C   UNL     1       0.376  10.346  18.926  0.00  0.00    +0.000 C 
ATOM      3  O   UNL     1       0.619   9.983  20.069  0.00  0.00    +0.000 OA
ATOM      4  H   UNL     1       0.965  10.476  16.935  0.00  0.00    +0.000 HD
ENDROOT
BRANCH   2   5
ATOM      5  C   UNL     1      -0.947  10.919  18.574  0.00  0.00    +0.000 A 
ATOM      6  C   UNL     1      -1.377  10.663  17.260  0.00  0.00    +0.000 A 
ATOM      7  C   UNL     1      -2.670  10.999  16.807  0.00  0.00    +0.000 A 
ATOM      8  I   UNL     1      -3.149  10.002  15.015  0.00  0.00    +0.000 I 
ATOM      9  C   UNL     1      -3.542  11.685  17.652  0.00  0.00    +0.000 A 
ATOM     10  C   UNL     1      -3.105  11.888  18.988  0.00  0.00    +0.000 A 
ATOM     11  C   UNL     1      -1.835  11.508  19.465  0.00  0.00    +0.000 A 
BRANCH   9  12
ATOM     12  N   UNL     1      -4.847  12.172  17.424  0.00  0.00    +0.000 N 
ATOM     13  C   UNL     1      -6.117  11.849  17.776  0.00  0.00    +0.000 C 
ATOM     14  C   UNL     1      -6.482  10.627  18.557  0.00  0.00    +0.000 C 
ATOM     15  O   UNL     1      -7.017  12.588  17.360  0.00  0.00    +0.000 OA
ATOM     16  H   UNL     1      -4.908  12.917  16.734  0.00  0.00    +0.000 HD
ENDBRANCH   9  12
BRANCH  11  17
ATOM     17  O   UNL     1      -1.703  11.705  20.812  0.00  0.00    +0.000 OA
ATOM     18  C   UNL     1      -2.439  12.758  21.420  0.00  0.00    +0.000 C 
ENDBRANCH  11  17
ENDBRANCH   2   5
BRANCH   1  19
ATOM     19  C   UNL     1       2.483   9.445  17.994  0.00  0.00    +0.000 C 
BRANCH  19  20
ATOM     20  C   UNL     1       2.301   7.939  17.792  0.00  0.00    +0.000 C 
BRANCH  20  21
ATOM     21  C   UNL     1       2.684   7.126  19.033  0.00  0.00    +0.000 C 
BRANCH  21  22
ATOM     22  C   UNL     1       3.552   5.898  18.699  0.00  0.00    +0.000 C 
BRANCH  22  23
ATOM     23  N   UNL     1       3.093   5.071  17.560  0.00  0.00    +0.000 NA
BRANCH  23  24
ATOM     24  C   UNL     1       4.220   4.282  17.010  0.00  0.00    +0.000 C 
BRANCH  24  26
ATOM     25  C   UNL     1       6.737   4.512  16.632  0.00  0.00    +0.000 C 
ATOM     26  C   UNL     1       5.352   5.054  16.316  0.00  0.00    +0.000 C 
ENDBRANCH  24  26
ENDBRANCH  23  24
BRANCH  23  27
ATOM     27  C   UNL     1       1.975   4.190  17.970  0.00  0.00    +0.000 C 
BRANCH  27  28
ATOM     28  C   UNL     1       2.100   3.530  19.356  0.00  0.00    +0.000 C 
ATOM     29  C   UNL     1       0.850   3.670  20.212  0.00  0.00    +0.000 C 
ENDBRANCH  27  28
ENDBRANCH  23  27
ENDBRANCH  22  23
ENDBRANCH  21  22
ENDBRANCH  20  21
ENDBRANCH  19  20
ENDBRANCH   1  19
TORSDOF 12
ENDMDL
MODEL 5
REMARK VINA RESULT:      -5.8      3.218      5.831
REMARK  Name = 
REMARK  16 active torsions:
REMARK  status: ('A' for Active; 'I' for Inactive)
REMARK    1  A    between atoms: C_1  and  C_2
REMARK    2  A    between atoms: C_2  and  C_3
REMARK    3  A    between atoms: C_3  and  N_4
REMARK    4  A    between atoms: N_4  and  C_5
REMARK    5  A    between atoms: N_4  and  C_8
REMARK    6  A    between atoms: C_5  and  C_6
REMARK    7  A    between atoms: C_6  and  C_7
REMARK    8  A    between atoms: C_8  and  C_9
REMARK    9  A    between atoms: C_9  and  C_10
REMARK   10  A    between atoms: C_10  and  C_11
REMARK   11  A    between atoms: C_11  and  N_12
REMARK   12  A    between atoms: C_13  and  C_15
REMARK   13  A    between atoms: C_19  and  N_20
REMARK   14  A    between atoms: C_21  and  C_22
REMARK   15  A    between atoms: C_25  and  O_26
REMARK   16  A    between atoms: O_26  and  C_27
REMARK                            x       y       z     vdW  Elec       q    Type
REMARK                         _______ _______ _______ _____ _____    ______ ____
ROOT
ATOM      1  N   UNL     1       0.739  10.159  17.936  0.00  0.00    +0.000 N 
ATOM      2  C   UNL     1       0.148  10.586  19.111  0.00  0.00    +0.000 C 
ATOM      3  O   UNL     1       0.711  10.595  20.196  0.00  0.00    +0.000 OA
ATOM      4  H   UNL     1       0.203  10.141  17.078  0.00  0.00    +0.000 HD
ENDROOT
BRANCH   2   5
ATOM      5  C   UNL     1      -1.283  10.957  18.992  0.00  0.00    +0.000 A 
ATOM      6  C   UNL     1      -1.743  11.878  19.951  0.00  0.00    +0.000 A 
ATOM      7  C   UNL     1      -3.029  12.454  19.894  0.00  0.00    +0.000 A 
ATOM      8  I   UNL     1      -3.176  14.152  21.130  0.00  0.00    +0.000 I 
ATOM      9  C   UNL     1      -3.925  12.047  18.904  0.00  0.00    +0.000 A 
ATOM     10  C   UNL     1      -3.423  11.156  17.919  0.00  0.00    +0.000 A 
ATOM     11  C   UNL     1      -2.122  10.617  17.938  0.00  0.00    +0.000 A 
BRANCH   9  12
ATOM     12  N   UNL     1      -5.263  12.427  18.667  0.00  0.00    +0.000 N 
ATOM     13  C   UNL     1      -6.465  12.318  19.289  0.00  0.00    +0.000 C 
ATOM     14  C   UNL     1      -6.683  11.553  20.555  0.00  0.00    +0.000 C 
ATOM     15  O   UNL     1      -7.435  12.836  18.724  0.00  0.00    +0.000 OA
ATOM     16  H   UNL     1      -5.439  12.811  17.742  0.00  0.00    +0.000 HD
ENDBRANCH   9  12
BRANCH  11  17
ATOM     17  O   UNL     1      -1.846   9.881  16.819  0.00  0.00    +0.000 OA
ATOM     18  C   UNL     1      -2.698  10.016  15.689  0.00  0.00    +0.000 C 
ENDBRANCH  11  17
ENDBRANCH   2   5
BRANCH   1  19
ATOM     19  C   UNL     1       2.057   9.557  17.921  0.00  0.00    +0.000 C 
BRANCH  19  20
ATOM     20  C   UNL     1       2.108   8.213  18.653  0.00  0.00    +0.000 C 
BRANCH  20  21
ATOM     21  C   UNL     1       2.410   7.041  17.714  0.00  0.00    +0.000 C 
BRANCH  21  22
ATOM     22  C   UNL     1       2.367   5.677  18.427  0.00  0.00    +0.000 C 
BRANCH  22  23
ATOM     23  N   UNL     1       3.268   5.527  19.593  0.00  0.00    +0.000 NA
BRANCH  23  24
ATOM     24  C   UNL     1       2.569   4.826  20.695  0.00  0.00    +0.000 C 
BRANCH  24  26
ATOM     25  C   UNL     1       0.971   2.834  20.605  0.00  0.00    +0.000 C 
ATOM     26  C   UNL     1       1.139   4.335  20.428  0.00  0.00    +0.000 C 
ENDBRANCH  24  26
ENDBRANCH  23  24
BRANCH  23  27
ATOM     27  C   UNL     1       4.508   4.813  19.207  0.00  0.00    +0.000 C 
BRANCH  27  28
ATOM     28  C   UNL     1       4.510   3.288  19.419  0.00  0.00    +0.000 C 
ATOM     29  C   UNL     1       3.961   2.506  18.234  0.00  0.00    +0.000 C 
ENDBRANCH  27  28
ENDBRANCH  23  27
ENDBRANCH  22  23
ENDBRANCH  21  22
ENDBRANCH  20  21
ENDBRANCH  19  20
ENDBRANCH   1  19
TORSDOF 12
ENDMDL
MODEL 6
REMARK VINA RESULT:      -5.8      2.896      7.708
REMARK  Name = 
REMARK  16 active torsions:
REMARK  status: ('A' for Active; 'I' for Inactive)
REMARK    1  A    between atoms: C_1  and  C_2
REMARK    2  A    between atoms: C_2  and  C_3
REMARK    3  A    between atoms: C_3  and  N_4
REMARK    4  A    between atoms: N_4  and  C_5
REMARK    5  A    between atoms: N_4  and  C_8
REMARK    6  A    between atoms: C_5  and  C_6
REMARK    7  A    between atoms: C_6  and  C_7
REMARK    8  A    between atoms: C_8  and  C_9
REMARK    9  A    between atoms: C_9  and  C_10
REMARK   10  A    between atoms: C_10  and  C_11
REMARK   11  A    between atoms: C_11  and  N_12
REMARK   12  A    between atoms: C_13  and  C_15
REMARK   13  A    between atoms: C_19  and  N_20
REMARK   14  A    between atoms: C_21  and  C_22
REMARK   15  A    between atoms: C_25  and  O_26
REMARK   16  A    between atoms: O_26  and  C_27
REMARK                            x       y       z     vdW  Elec       q    Type
REMARK                         _______ _______ _______ _____ _____    ______ ____
ROOT
ATOM      1  N   UNL     1       1.898   7.309  20.170  0.00  0.00    +0.000 N 
ATOM      2  C   UNL     1       2.095   5.940  20.158  0.00  0.00    +0.000 C 
ATOM      3  O   UNL     1       1.767   5.193  21.069  0.00  0.00    +0.000 OA
ATOM      4  H   UNL     1       2.228   7.873  19.399  0.00  0.00    +0.000 HD
ENDROOT
BRANCH   2   5
ATOM      5  C   UNL     1       2.834   5.425  18.980  0.00  0.00    +0.000 A 
ATOM      6  C   UNL     1       4.195   5.778  18.927  0.00  0.00    +0.000 A 
ATOM      7  C   UNL     1       5.079   5.250  17.963  0.00  0.00    +0.000 A 
ATOM      8  I   UNL     1       7.091   5.554  18.503  0.00  0.00    +0.000 I 
ATOM      9  C   UNL     1       4.589   4.408  16.964  0.00  0.00    +0.000 A 
ATOM     10  C   UNL     1       3.225   4.025  17.067  0.00  0.00    +0.000 A 
ATOM     11  C   UNL     1       2.348   4.506  18.059  0.00  0.00    +0.000 A 
BRANCH   9  12
ATOM     12  N   UNL     1       5.247   3.800  15.874  0.00  0.00    +0.000 N 
ATOM     13  C   UNL     1       6.063   4.175  14.856  0.00  0.00    +0.000 C 
ATOM     14  C   UNL     1       6.441   5.593  14.568  0.00  0.00    +0.000 C 
ATOM     15  O   UNL     1       6.454   3.282  14.096  0.00  0.00    +0.000 OA
ATOM     16  H   UNL     1       4.994   2.828  15.712  0.00  0.00    +0.000 HD
ENDBRANCH   9  12
BRANCH  11  17
ATOM     17  O   UNL     1       1.124   3.897  18.012  0.00  0.00    +0.000 OA
ATOM     18  C   UNL     1       0.960   2.648  18.669  0.00  0.00    +0.000 C 
ENDBRANCH  11  17
ENDBRANCH   2   5
BRANCH   1  19
ATOM     19  C   UNL     1       1.392   7.995  21.342  0.00  0.00    +0.000 C 
BRANCH  19  20
ATOM     20  C   UNL     1       0.214   8.921  21.030  0.00  0.00    +0.000 C 
BRANCH  20  21
ATOM     21  C   UNL     1       0.250  10.217  21.845  0.00  0.00    +0.000 C 
BRANCH  21  22
ATOM     22  C   UNL     1       0.029  11.473  20.981  0.00  0.00    +0.000 C 
BRANCH  22  23
ATOM     23  N   UNL     1       0.012  11.257  19.516  0.00  0.00    +0.000 NA
BRANCH  23  24
ATOM     24  C   UNL     1      -1.086  12.033  18.895  0.00  0.00    +0.000 C 
BRANCH  24  26
ATOM     25  C   UNL     1      -2.360   9.977  18.071  0.00  0.00    +0.000 C 
ATOM     26  C   UNL     1      -1.855  11.374  17.742  0.00  0.00    +0.000 C 
ENDBRANCH  24  26
ENDBRANCH  23  24
BRANCH  23  27
ATOM     27  C   UNL     1       1.321  11.610  18.919  0.00  0.00    +0.000 C 
BRANCH  27  28
ATOM     28  C   UNL     1       2.099  10.459  18.253  0.00  0.00    +0.000 C 
ATOM     29  C   UNL     1       1.203   9.375  17.670  0.00  0.00    +0.000 C 
ENDBRANCH  27  28
ENDBRANCH  23  27
ENDBRANCH  22  23
ENDBRANCH  21  22
ENDBRANCH  20  21
ENDBRANCH  19  20
ENDBRANCH   1  19
TORSDOF 12
ENDMDL
MODEL 7
REMARK VINA RESULT:      -5.7      4.861      8.093
REMARK  Name = 
REMARK  16 active torsions:
REMARK  status: ('A' for Active; 'I' for Inactive)
REMARK    1  A    between atoms: C_1  and  C_2
REMARK    2  A    between atoms: C_2  and  C_3
REMARK    3  A    between atoms: C_3  and  N_4
REMARK    4  A    between atoms: N_4  and  C_5
REMARK    5  A    between atoms: N_4  and  C_8
REMARK    6  A    between atoms: C_5  and  C_6
REMARK    7  A    between atoms: C_6  and  C_7
REMARK    8  A    between atoms: C_8  and  C_9
REMARK    9  A    between atoms: C_9  and  C_10
REMARK   10  A    between atoms: C_10  and  C_11
REMARK   11  A    between atoms: C_11  and  N_12
REMARK   12  A    between atoms: C_13  and  C_15
REMARK   13  A    between atoms: C_19  and  N_20
REMARK   14  A    between atoms: C_21  and  C_22
REMARK   15  A    between atoms: C_25  and  O_26
REMARK   16  A    between atoms: O_26  and  C_27
REMARK                            x       y       z     vdW  Elec       q    Type
REMARK                         _______ _______ _______ _____ _____    ______ ____
ROOT
ATOM      1  N   UNL     1       7.192   7.397  17.637  0.00  0.00    +0.000 N 
ATOM      2  C   UNL     1       6.929   6.362  16.759  0.00  0.00    +0.000 C 
ATOM      3  O   UNL     1       7.590   6.130  15.756  0.00  0.00    +0.000 OA
ATOM      4  H   UNL     1       6.582   7.555  18.428  0.00  0.00    +0.000 HD
ENDROOT
BRANCH   2   5
ATOM      5  C   UNL     1       5.706   5.579  17.061  0.00  0.00    +0.000 A 
ATOM      6  C   UNL     1       4.769   6.230  17.884  0.00  0.00    +0.000 A 
ATOM      7  C   UNL     1       3.490   5.698  18.146  0.00  0.00    +0.000 A 
ATOM      8  I   UNL     1       2.189   7.152  18.937  0.00  0.00    +0.000 I 
ATOM      9  C   UNL     1       3.149   4.440  17.646  0.00  0.00    +0.000 A 
ATOM     10  C   UNL     1       4.090   3.825  16.778  0.00  0.00    +0.000 A 
ATOM     11  C   UNL     1       5.349   4.375  16.468  0.00  0.00    +0.000 A 
BRANCH   9  12
ATOM     12  N   UNL     1       1.973   3.678  17.807  0.00  0.00    +0.000 N 
ATOM     13  C   UNL     1       1.356   2.976  18.791  0.00  0.00    +0.000 C 
ATOM     14  C   UNL     1       1.944   2.744  20.146  0.00  0.00    +0.000 C 
ATOM     15  O   UNL     1       0.273   2.451  18.507  0.00  0.00    +0.000 OA
ATOM     16  H   UNL     1       1.460   3.501  16.946  0.00  0.00    +0.000 HD
ENDBRANCH   9  12
BRANCH  11  17
ATOM     17  O   UNL     1       6.016   3.650  15.520  0.00  0.00    +0.000 OA
ATOM     18  C   UNL     1       5.682   3.848  14.153  0.00  0.00    +0.000 C 
ENDBRANCH  11  17
ENDBRANCH   2   5
BRANCH   1  19
ATOM     19  C   UNL     1       8.215   8.386  17.364  0.00  0.00    +0.000 C 
BRANCH  19  20
ATOM     20  C   UNL     1       8.092   9.631  18.245  0.00  0.00    +0.000 C 
BRANCH  20  21
ATOM     21  C   UNL     1       9.396   9.970  18.975  0.00  0.00    +0.000 C 
BRANCH  21  22
ATOM     22  C   UNL     1       9.262  11.193  19.901  0.00  0.00    +0.000 C 
BRANCH  22  23
ATOM     23  N   UNL     1       9.710  12.487  19.335  0.00  0.00    +0.000 NA
BRANCH  23  24
ATOM     24  C   UNL     1       9.919  13.476  20.417  0.00  0.00    +0.000 C 
BRANCH  24  26
ATOM     25  C   UNL     1       7.919  15.035  20.733  0.00  0.00    +0.000 C 
ATOM     26  C   UNL     1       9.339  14.883  20.211  0.00  0.00    +0.000 C 
ENDBRANCH  24  26
ENDBRANCH  23  24
BRANCH  23  27
ATOM     27  C   UNL     1      10.941  12.307  18.531  0.00  0.00    +0.000 C 
BRANCH  27  28
ATOM     28  C   UNL     1      11.014  13.096  17.210  0.00  0.00    +0.000 C 
ATOM     29  C   UNL     1      12.333  13.829  17.010  0.00  0.00    +0.000 C 
ENDBRANCH  27  28
ENDBRANCH  23  27
ENDBRANCH  22  23
ENDBRANCH  21  22
ENDBRANCH  20  21
ENDBRANCH  19  20
ENDBRANCH   1  19
TORSDOF 12
ENDMDL
MODEL 8
REMARK VINA RESULT:      -5.7      3.271      5.836
REMARK  Name = 
REMARK  16 active torsions:
REMARK  status: ('A' for Active; 'I' for Inactive)
REMARK    1  A    between atoms: C_1  and  C_2
REMARK    2  A    between atoms: C_2  and  C_3
REMARK    3  A    between atoms: C_3  and  N_4
REMARK    4  A    between atoms: N_4  and  C_5
REMARK    5  A    between atoms: N_4  and  C_8
REMARK    6  A    between atoms: C_5  and  C_6
REMARK    7  A    between atoms: C_6  and  C_7
REMARK    8  A    between atoms: C_8  and  C_9
REMARK    9  A    between atoms: C_9  and  C_10
REMARK   10  A    between atoms: C_10  and  C_11
REMARK   11  A    between atoms: C_11  and  N_12
REMARK   12  A    between atoms: C_13  and  C_15
REMARK   13  A    between atoms: C_19  and  N_20
REMARK   14  A    between atoms: C_21  and  C_22
REMARK   15  A    between atoms: C_25  and  O_26
REMARK   16  A    between atoms: O_26  and  C_27
REMARK                            x       y       z     vdW  Elec       q    Type
REMARK                         _______ _______ _______ _____ _____    ______ ____
ROOT
ATOM      1  N   UNL     1       0.445   9.749  18.604  0.00  0.00    +0.000 N 
ATOM      2  C   UNL     1       0.029  11.002  19.014  0.00  0.00    +0.000 C 
ATOM      3  O   UNL     1       0.769  11.844  19.501  0.00  0.00    +0.000 OA
ATOM      4  H   UNL     1      -0.228   9.085  18.244  0.00  0.00    +0.000 HD
ENDROOT
BRANCH   2   5
ATOM      5  C   UNL     1      -1.432  11.240  18.913  0.00  0.00    +0.000 A 
ATOM      6  C   UNL     1      -1.975  12.061  19.917  0.00  0.00    +0.000 A 
ATOM      7  C   UNL     1      -3.310  12.514  19.888  0.00  0.00    +0.000 A 
ATOM      8  I   UNL     1      -3.615  14.123  21.211  0.00  0.00    +0.000 I 
ATOM      9  C   UNL     1      -4.166  12.076  18.876  0.00  0.00    +0.000 A 
ATOM     10  C   UNL     1      -3.584  11.289  17.847  0.00  0.00    +0.000 A 
ATOM     11  C   UNL     1      -2.237  10.877  17.840  0.00  0.00    +0.000 A 
BRANCH   9  12
ATOM     12  N   UNL     1      -5.535  12.338  18.657  0.00  0.00    +0.000 N 
ATOM     13  C   UNL     1      -6.717  12.105  19.284  0.00  0.00    +0.000 C 
ATOM     14  C   UNL     1      -6.854  11.292  20.531  0.00  0.00    +0.000 C 
ATOM     15  O   UNL     1      -7.734  12.546  18.737  0.00  0.00    +0.000 OA
ATOM     16  H   UNL     1      -5.752  12.727  17.743  0.00  0.00    +0.000 HD
ENDBRANCH   9  12
BRANCH  11  17
ATOM     17  O   UNL     1      -1.896  10.231  16.685  0.00  0.00    +0.000 OA
ATOM     18  C   UNL     1      -2.730  10.388  15.545  0.00  0.00    +0.000 C 
ENDBRANCH  11  17
ENDBRANCH   2   5
BRANCH   1  19
ATOM     19  C   UNL     1       1.796   9.280  18.841  0.00  0.00    +0.000 C 
BRANCH  19  20
ATOM     20  C   UNL     1       2.184   8.099  17.948  0.00  0.00    +0.000 C 
BRANCH  20  21
ATOM     21  C   UNL     1       2.709   6.902  18.746  0.00  0.00    +0.000 C 
BRANCH  21  22
ATOM     22  C   UNL     1       3.619   5.981  17.913  0.00  0.00    +0.000 C 
BRANCH  22  23
ATOM     23  N   UNL     1       3.931   4.663  18.513  0.00  0.00    +0.000 NA
BRANCH  23  24
ATOM     24  C   UNL     1       3.159   3.595  17.837  0.00  0.00    +0.000 C 
BRANCH  24  26
ATOM     25  C   UNL     1       1.046   2.843  19.063  0.00  0.00    +0.000 C 
ATOM     26  C   UNL     1       1.627   3.666  17.924  0.00  0.00    +0.000 C 
ENDBRANCH  24  26
ENDBRANCH  23  24
BRANCH  23  27
ATOM     27  C   UNL     1       5.386   4.391  18.452  0.00  0.00    +0.000 C 
BRANCH  27  28
ATOM     28  C   UNL     1       6.301   5.417  19.148  0.00  0.00    +0.000 C 
ATOM     29  C   UNL     1       7.388   5.977  18.241  0.00  0.00    +0.000 C 
ENDBRANCH  27  28
ENDBRANCH  23  27
ENDBRANCH  22  23
ENDBRANCH  21  22
ENDBRANCH  20  21
ENDBRANCH  19  20
ENDBRANCH   1  19
TORSDOF 12
ENDMDL
MODEL 9
REMARK VINA RESULT:      -5.7      3.108      5.497
REMARK  Name = 
REMARK  16 active torsions:
REMARK  status: ('A' for Active; 'I' for Inactive)
REMARK    1  A    between atoms: C_1  and  C_2
REMARK    2  A    between atoms: C_2  and  C_3
REMARK    3  A    between atoms: C_3  and  N_4
REMARK    4  A    between atoms: N_4  and  C_5
REMARK    5  A    between atoms: N_4  and  C_8
REMARK    6  A    between atoms: C_5  and  C_6
REMARK    7  A    between atoms: C_6  and  C_7
REMARK    8  A    between atoms: C_8  and  C_9
REMARK    9  A    between atoms: C_9  and  C_10
REMARK   10  A    between atoms: C_10  and  C_11
REMARK   11  A    between atoms: C_11  and  N_12
REMARK   12  A    between atoms: C_13  and  C_15
REMARK   13  A    between atoms: C_19  and  N_20
REMARK   14  A    between atoms: C_21  and  C_22
REMARK   15  A    between atoms: C_25  and  O_26
REMARK   16  A    between atoms: O_26  and  C_27
REMARK                            x       y       z     vdW  Elec       q    Type
REMARK                         _______ _______ _______ _____ _____    ______ ____
ROOT
ATOM      1  N   UNL     1       0.679   9.625  17.814  0.00  0.00    +0.000 N 
ATOM      2  C   UNL     1       0.377  10.690  18.643  0.00  0.00    +0.000 C 
ATOM      3  O   UNL     1       1.197  11.269  19.340  0.00  0.00    +0.000 OA
ATOM      4  H   UNL     1      -0.055   9.166  17.292  0.00  0.00    +0.000 HD
ENDROOT
BRANCH   2   5
ATOM      5  C   UNL     1      -1.063  11.041  18.709  0.00  0.00    +0.000 A 
ATOM      6  C   UNL     1      -1.421  11.895  19.768  0.00  0.00    +0.000 A 
ATOM      7  C   UNL     1      -2.711  12.451  19.891  0.00  0.00    +0.000 A 
ATOM      8  I   UNL     1      -2.736  14.069  21.237  0.00  0.00    +0.000 I 
ATOM      9  C   UNL     1      -3.709  12.088  18.985  0.00  0.00    +0.000 A 
ATOM     10  C   UNL     1      -3.312  11.266  17.897  0.00  0.00    +0.000 A 
ATOM     11  C   UNL     1      -2.012  10.750  17.737  0.00  0.00    +0.000 A 
BRANCH   9  12
ATOM     12  N   UNL     1      -5.070  12.458  18.924  0.00  0.00    +0.000 N 
ATOM     13  C   UNL     1      -6.278  11.841  18.865  0.00  0.00    +0.000 C 
ATOM     14  C   UNL     1      -6.455  10.362  18.741  0.00  0.00    +0.000 C 
ATOM     15  O   UNL     1      -7.276  12.570  18.849  0.00  0.00    +0.000 OA
ATOM     16  H   UNL     1      -5.235  13.453  18.792  0.00  0.00    +0.000 HD
ENDBRANCH   9  12
BRANCH  11  17
ATOM     17  O   UNL     1      -1.856  10.088  16.551  0.00  0.00    +0.000 OA
ATOM     18  C   UNL     1      -2.744  10.389  15.482  0.00  0.00    +0.000 C 
ENDBRANCH  11  17
ENDBRANCH   2   5
BRANCH   1  19
ATOM     19  C   UNL     1       1.995   9.018  17.805  0.00  0.00    +0.000 C 
BRANCH  19  20
ATOM     20  C   UNL     1       2.077   7.757  18.668  0.00  0.00    +0.000 C 
BRANCH  20  21
ATOM     21  C   UNL     1       2.371   6.497  17.847  0.00  0.00    +0.000 C 
BRANCH  21  22
ATOM     22  C   UNL     1       3.850   6.072  17.913  0.00  0.00    +0.000 C 
BRANCH  22  23
ATOM     23  N   UNL     1       4.262   5.348  19.137  0.00  0.00    +0.000 NA
BRANCH  23  24
ATOM     24  C   UNL     1       3.785   3.947  19.090  0.00  0.00    +0.000 C 
BRANCH  24  26
ATOM     25  C   UNL     1       2.209   4.687  20.961  0.00  0.00    +0.000 C 
ATOM     26  C   UNL     1       2.660   3.550  20.058  0.00  0.00    +0.000 C 
ENDBRANCH  24  26
ENDBRANCH  23  24
BRANCH  23  27
ATOM     27  C   UNL     1       5.733   5.406  19.309  0.00  0.00    +0.000 C 
BRANCH  27  28
ATOM     28  C   UNL     1       6.554   5.741  18.050  0.00  0.00    +0.000 C 
ATOM     29  C   UNL     1       7.513   4.634  17.636  0.00  0.00    +0.000 C 
ENDBRANCH  27  28
ENDBRANCH  23  27
ENDBRANCH  22  23
ENDBRANCH  21  22
ENDBRANCH  20  21
ENDBRANCH  19  20
ENDBRANCH   1  19
TORSDOF 12
ENDMDL
