MODEL 1
REMARK VINA RESULT:      -7.7      0.000      0.000
REMARK  Name = 
REMARK  8 active torsions:
REMARK  status: ('A' for Active; 'I' for Inactive)
REMARK    1  A    between atoms: C_1  and  C_2
REMARK    2  A    between atoms: C_2  and  C_3
REMARK    3  A    between atoms: C_3  and  C_4
REMARK    4  A    between atoms: C_7  and  C_9
REMARK    5  A    between atoms: C_12  and  C_13
REMARK    6  A    between atoms: C_18  and  N_19
REMARK    7  A    between atoms: N_19  and  S_20
REMARK    8  A    between atoms: S_20  and  C_21
REMARK                            x       y       z     vdW  Elec       q    Type
REMARK                         _______ _______ _______ _____ _____    ______ ____
ROOT
ATOM      1  C   UNL     1       2.324   5.680  19.520  0.00  0.00    +0.000 C 
ATOM      2  C   UNL     1       3.827   5.434  19.732  0.00  0.00    +0.000 C 
ATOM      3  N   UNL     1       4.383   5.465  18.391  0.00  0.00    +0.000 N 
ATOM      4  C   UNL     1       5.502   4.710  18.045  0.00  0.00    +0.000 C 
ATOM      5  O   UNL     1       6.073   4.016  18.883  0.00  0.00    +0.000 OA
ATOM      6  C   UNL     1       3.522   6.255  17.517  0.00  0.00    +0.000 C 
ATOM      7  C   UNL     1       2.319   6.704  18.357  0.00  0.00    +0.000 C 
ENDROOT
BRANCH   4   8
ATOM      8  C   UNL     1       5.969   4.730  16.616  0.00  0.00    +0.000 A 
ATOM      9  C   UNL     1       5.351   4.005  15.665  0.00  0.00    +0.000 A 
ATOM     10  C   UNL     1       5.869   3.863  14.331  0.00  0.00    +0.000 A 
ATOM     11  C   UNL     1       6.864   4.653  13.913  0.00  0.00    +0.000 A 
ATOM     12  C   UNL     1       7.441   4.566  12.537  0.00  0.00    +0.000 C 
ATOM     13  N   UNL     1       7.396   5.563  14.796  0.00  0.00    +0.000 N 
ATOM     14  C   UNL     1       7.051   5.660  16.135  0.00  0.00    +0.000 A 
ATOM     15  O   UNL     1       7.625   6.471  16.854  0.00  0.00    +0.000 OA
ATOM     16  H   UNL     1       8.120   6.204  14.493  0.00  0.00    +0.000 HD
ENDBRANCH   4   8
BRANCH   7  17
ATOM     17  N   UNL     1       2.497   8.104  18.900  0.00  0.00    +0.000 NA
ATOM     18  H   UNL     1       3.479   8.383  18.913  0.00  0.00    +0.000 HD
BRANCH  17  19
ATOM     19  S   UNL     1       1.564   9.322  18.155  0.00  0.00    +0.000 S 
ATOM     20  C   UNL     1       0.804  10.107  19.560  0.00  0.00    +0.000 C 
ATOM     21  O   UNL     1       2.480  10.277  17.578  0.00  0.00    +0.000 OA
ATOM     22  O   UNL     1       0.550   8.678  17.363  0.00  0.00    +0.000 OA
ENDBRANCH  17  19
ENDBRANCH   7  17
BRANCH   1  23
ATOM     23  C   UNL     1       1.589   4.378  19.120  0.00  0.00    +0.000 C 
BRANCH  23  25
ATOM     24  C   UNL     1       1.775   2.623  20.937  0.00  0.00    +0.000 C 
ATOM     25  C   UNL     1       0.901   3.696  20.308  0.00  0.00    +0.000 C 
ENDBRANCH  23  25
ENDBRANCH   1  23
TORSDOF 5
ENDMDL
MODEL 2
REMARK VINA RESULT:      -7.1      2.243      2.667
REMARK  Name = 
REMARK  8 active torsions:
REMARK  status: ('A' for Active; 'I' for Inactive)
REMARK    1  A    between atoms: C_1  and  C_2
REMARK    2  A    between atoms: C_2  and  C_3
REMARK    3  A    between atoms: C_3  and  C_4
REMARK    4  A    between atoms: C_7  and  C_9
REMARK    5  A    between atoms: C_12  and  C_13
REMARK    6  A    between atoms: C_18  and  N_19
REMARK    7  A    between atoms: N_19  and  S_20
REMARK    8  A    between atoms: S_20  and  C_21
REMARK                            x       y       z     vdW  Elec       q    Type
REMARK                         _______ _______ _______ _____ _____    ______ ____
ROOT
ATOM      1  C   UNL     1       1.528   5.167  20.789  0.00  0.00    +0.000 C 
ATOM      2  C   UNL     1       2.912   4.547  21.044  0.00  0.00    +0.000 C 
ATOM      3  N   UNL     1       3.637   4.779  19.808  0.00  0.00    +0.000 N 
ATOM      4  C   UNL     1       4.622   3.902  19.361  0.00  0.00    +0.000 C 
ATOM      5  O   UNL     1       4.929   2.914  20.025  0.00  0.00    +0.000 OA
ATOM      6  C   UNL     1       3.071   5.931  19.112  0.00  0.00    +0.000 C 
ATOM      7  C   UNL     1       1.878   6.418  19.945  0.00  0.00    +0.000 C 
ENDROOT
BRANCH   4   8
ATOM      8  C   UNL     1       5.270   4.165  18.031  0.00  0.00    +0.000 A 
ATOM      9  C   UNL     1       6.563   4.528  17.939  0.00  0.00    +0.000 A 
ATOM     10  C   UNL     1       7.169   4.954  16.706  0.00  0.00    +0.000 A 
ATOM     11  C   UNL     1       6.528   4.768  15.548  0.00  0.00    +0.000 A 
ATOM     12  C   UNL     1       7.105   5.176  14.230  0.00  0.00    +0.000 C 
ATOM     13  N   UNL     1       5.275   4.204  15.573  0.00  0.00    +0.000 N 
ATOM     14  C   UNL     1       4.566   3.902  16.726  0.00  0.00    +0.000 A 
ATOM     15  O   UNL     1       3.430   3.450  16.641  0.00  0.00    +0.000 OA
ATOM     16  H   UNL     1       4.785   4.011  14.707  0.00  0.00    +0.000 HD
ENDBRANCH   4   8
BRANCH   7  17
ATOM     17  N   UNL     1       2.253   7.566  20.854  0.00  0.00    +0.000 NA
ATOM     18  H   UNL     1       3.085   8.057  20.522  0.00  0.00    +0.000 HD
BRANCH  17  19
ATOM     19  S   UNL     1       1.017   8.694  21.189  0.00  0.00    +0.000 S 
ATOM     20  C   UNL     1       0.907   9.578  19.648  0.00  0.00    +0.000 C 
ATOM     21  O   UNL     1      -0.212   7.956  21.345  0.00  0.00    +0.000 OA
ATOM     22  O   UNL     1       1.497   9.583  22.214  0.00  0.00    +0.000 OA
ENDBRANCH  17  19
ENDBRANCH   7  17
BRANCH   1  23
ATOM     23  C   UNL     1       0.612   4.200  19.999  0.00  0.00    +0.000 C 
BRANCH  23  25
ATOM     24  C   UNL     1       1.250   2.060  18.804  0.00  0.00    +0.000 C 
ATOM     25  C   UNL     1       1.028   2.733  20.149  0.00  0.00    +0.000 C 
ENDBRANCH  23  25
ENDBRANCH   1  23
TORSDOF 5
ENDMDL
MODEL 3
REMARK VINA RESULT:      -7.1      1.766      1.957
REMARK  Name = 
REMARK  8 active torsions:
REMARK  status: ('A' for Active; 'I' for Inactive)
REMARK    1  A    between atoms: C_1  and  C_2
REMARK    2  A    between atoms: C_2  and  C_3
REMARK    3  A    between atoms: C_3  and  C_4
REMARK    4  A    between atoms: C_7  and  C_9
REMARK    5  A    between atoms: C_12  and  C_13
REMARK    6  A    between atoms: C_18  and  N_19
REMARK    7  A    between atoms: N_19  and  S_20
REMARK    8  A    between atoms: S_20  and  C_21
REMARK                            x       y       z     vdW  Elec       q    Type
REMARK                         _______ _______ _______ _____ _____    ______ ____
ROOT
ATOM      1  C   UNL     1       1.876   5.187  20.518  0.00  0.00    +0.000 C 
ATOM      2  C   UNL     1       3.312   4.673  20.710  0.00  0.00    +0.000 C 
ATOM      3  N   UNL     1       3.965   4.968  19.447  0.00  0.00    +0.000 N 
ATOM      4  C   UNL     1       4.995   4.171  18.952  0.00  0.00    +0.000 C 
ATOM      5  O   UNL     1       5.404   3.206  19.593  0.00  0.00    +0.000 OA
ATOM      6  C   UNL     1       3.286   6.078  18.787  0.00  0.00    +0.000 C 
ATOM      7  C   UNL     1       2.095   6.467  19.674  0.00  0.00    +0.000 C 
ENDROOT
BRANCH   4   8
ATOM      8  C   UNL     1       5.565   4.492  17.598  0.00  0.00    +0.000 A 
ATOM      9  C   UNL     1       4.994   4.034  16.469  0.00  0.00    +0.000 A 
ATOM     10  C   UNL     1       5.603   4.173  15.174  0.00  0.00    +0.000 A 
ATOM     11  C   UNL     1       6.652   4.987  15.013  0.00  0.00    +0.000 A 
ATOM     12  C   UNL     1       7.325   5.187  13.693  0.00  0.00    +0.000 C 
ATOM     13  N   UNL     1       7.148   5.645  16.113  0.00  0.00    +0.000 N 
ATOM     14  C   UNL     1       6.711   5.452  17.414  0.00  0.00    +0.000 A 
ATOM     15  O   UNL     1       7.257   6.049  18.335  0.00  0.00    +0.000 OA
ATOM     16  H   UNL     1       7.914   6.302  16.012  0.00  0.00    +0.000 HD
ENDBRANCH   4   8
BRANCH   7  17
ATOM     17  N   UNL     1       2.420   7.635  20.578  0.00  0.00    +0.000 NA
ATOM     18  H   UNL     1       3.169   8.213  20.195  0.00  0.00    +0.000 HD
BRANCH  17  19
ATOM     19  S   UNL     1       1.105   8.624  21.029  0.00  0.00    +0.000 S 
ATOM     20  C   UNL     1       0.844   9.578  19.549  0.00  0.00    +0.000 C 
ATOM     21  O   UNL     1      -0.045   7.768  21.192  0.00  0.00    +0.000 OA
ATOM     22  O   UNL     1       1.551   9.495  22.084  0.00  0.00    +0.000 OA
ENDBRANCH  17  19
ENDBRANCH   7  17
BRANCH   1  23
ATOM     23  C   UNL     1       1.004   4.159  19.758  0.00  0.00    +0.000 C 
BRANCH  23  25
ATOM     24  C   UNL     1       1.296   2.595  21.728  0.00  0.00    +0.000 C 
ATOM     25  C   UNL     1       1.253   2.717  20.213  0.00  0.00    +0.000 C 
ENDBRANCH  23  25
ENDBRANCH   1  23
TORSDOF 5
ENDMDL
MODEL 4
REMARK VINA RESULT:      -7.0      1.744      1.872
REMARK  Name = 
REMARK  8 active torsions:
REMARK  status: ('A' for Active; 'I' for Inactive)
REMARK    1  A    between atoms: C_1  and  C_2
REMARK    2  A    between atoms: C_2  and  C_3
REMARK    3  A    between atoms: C_3  and  C_4
REMARK    4  A    between atoms: C_7  and  C_9
REMARK    5  A    between atoms: C_12  and  C_13
REMARK    6  A    between atoms: C_18  and  N_19
REMARK    7  A    between atoms: N_19  and  S_20
REMARK    8  A    between atoms: S_20  and  C_21
REMARK                            x       y       z     vdW  Elec       q    Type
REMARK                         _______ _______ _______ _____ _____    ______ ____
ROOT
ATOM      1  C   UNL     1       1.795   5.093  20.588  0.00  0.00    +0.000 C 
ATOM      2  C   UNL     1       3.229   4.586  20.810  0.00  0.00    +0.000 C 
ATOM      3  N   UNL     1       3.895   4.844  19.546  0.00  0.00    +0.000 N 
ATOM      4  C   UNL     1       4.930   4.034  19.085  0.00  0.00    +0.000 C 
ATOM      5  O   UNL     1       5.333   3.088  19.758  0.00  0.00    +0.000 OA
ATOM      6  C   UNL     1       3.222   5.934  18.846  0.00  0.00    +0.000 C 
ATOM      7  C   UNL     1       2.022   6.348  19.708  0.00  0.00    +0.000 C 
ENDROOT
BRANCH   4   8
ATOM      8  C   UNL     1       5.515   4.315  17.728  0.00  0.00    +0.000 A 
ATOM      9  C   UNL     1       4.741   4.375  16.628  0.00  0.00    +0.000 A 
ATOM     10  C   UNL     1       5.279   4.469  15.299  0.00  0.00    +0.000 A 
ATOM     11  C   UNL     1       6.574   4.751  15.121  0.00  0.00    +0.000 A 
ATOM     12  C   UNL     1       7.196   4.874  13.767  0.00  0.00    +0.000 C 
ATOM     13  N   UNL     1       7.372   4.905  16.230  0.00  0.00    +0.000 N 
ATOM     14  C   UNL     1       6.961   4.687  17.536  0.00  0.00    +0.000 A 
ATOM     15  O   UNL     1       7.766   4.799  18.454  0.00  0.00    +0.000 OA
ATOM     16  H   UNL     1       8.347   5.162  16.125  0.00  0.00    +0.000 HD
ENDBRANCH   4   8
BRANCH   7  17
ATOM     17  N   UNL     1       2.336   7.542  20.581  0.00  0.00    +0.000 NA
ATOM     18  H   UNL     1       3.127   8.077  20.219  0.00  0.00    +0.000 HD
BRANCH  17  19
ATOM     19  S   UNL     1       1.034   8.593  20.913  0.00  0.00    +0.000 S 
ATOM     20  C   UNL     1       1.555   9.344  22.441  0.00  0.00    +0.000 C 
ATOM     21  O   UNL     1       1.044   9.627  19.906  0.00  0.00    +0.000 OA
ATOM     22  O   UNL     1      -0.133   7.787  21.152  0.00  0.00    +0.000 OA
ENDBRANCH  17  19
ENDBRANCH   7  17
BRANCH   1  23
ATOM     23  C   UNL     1       0.931   4.042  19.849  0.00  0.00    +0.000 C 
BRANCH  23  25
ATOM     24  C   UNL     1       1.289   2.407  21.749  0.00  0.00    +0.000 C 
ATOM     25  C   UNL     1       1.282   2.603  20.241  0.00  0.00    +0.000 C 
ENDBRANCH  23  25
ENDBRANCH   1  23
TORSDOF 5
ENDMDL
MODEL 5
REMARK VINA RESULT:      -6.8      3.100      4.430
REMARK  Name = 
REMARK  8 active torsions:
REMARK  status: ('A' for Active; 'I' for Inactive)
REMARK    1  A    between atoms: C_1  and  C_2
REMARK    2  A    between atoms: C_2  and  C_3
REMARK    3  A    between atoms: C_3  and  C_4
REMARK    4  A    between atoms: C_7  and  C_9
REMARK    5  A    between atoms: C_12  and  C_13
REMARK    6  A    between atoms: C_18  and  N_19
REMARK    7  A    between atoms: N_19  and  S_20
REMARK    8  A    between atoms: S_20  and  C_21
REMARK                            x       y       z     vdW  Elec       q    Type
REMARK                         _______ _______ _______ _____ _____    ______ ____
ROOT
ATOM      1  C   UNL     1       4.188   4.838  18.692  0.00  0.00    +0.000 C 
ATOM      2  C   UNL     1       4.143   5.864  17.548  0.00  0.00    +0.000 C 
ATOM      3  N   UNL     1       4.581   5.115  16.384  0.00  0.00    +0.000 N 
ATOM      4  C   UNL     1       5.268   5.725  15.337  0.00  0.00    +0.000 C 
ATOM      5  O   UNL     1       5.495   6.933  15.356  0.00  0.00    +0.000 OA
ATOM      6  C   UNL     1       4.317   3.694  16.583  0.00  0.00    +0.000 C 
ATOM      7  C   UNL     1       3.722   3.540  17.989  0.00  0.00    +0.000 C 
ENDROOT
BRANCH   4   8
ATOM      8  C   UNL     1       5.762   4.868  14.205  0.00  0.00    +0.000 A 
ATOM      9  C   UNL     1       4.915   4.140  13.453  0.00  0.00    +0.000 A 
ATOM     10  C   UNL     1       5.363   3.181  12.480  0.00  0.00    +0.000 A 
ATOM     11  C   UNL     1       6.647   3.155  12.109  0.00  0.00    +0.000 A 
ATOM     12  C   UNL     1       7.176   2.192  11.095  0.00  0.00    +0.000 C 
ATOM     13  N   UNL     1       7.522   4.031  12.707  0.00  0.00    +0.000 N 
ATOM     14  C   UNL     1       7.198   4.882  13.752  0.00  0.00    +0.000 A 
ATOM     15  O   UNL     1       8.067   5.587  14.254  0.00  0.00    +0.000 OA
ATOM     16  H   UNL     1       8.492   4.063  12.413  0.00  0.00    +0.000 HD
ENDBRANCH   4   8
BRANCH   7  17
ATOM     17  N   UNL     1       2.211   3.480  17.961  0.00  0.00    +0.000 NA
ATOM     18  H   UNL     1       1.864   3.077  17.090  0.00  0.00    +0.000 HD
BRANCH  17  19
ATOM     19  S   UNL     1       1.465   2.708  19.287  0.00  0.00    +0.000 S 
ATOM     20  C   UNL     1       0.951   4.098  20.274  0.00  0.00    +0.000 C 
ATOM     21  O   UNL     1       0.269   2.067  18.799  0.00  0.00    +0.000 OA
ATOM     22  O   UNL     1       2.479   1.971  19.995  0.00  0.00    +0.000 OA
ENDBRANCH  17  19
ENDBRANCH   7  17
BRANCH   1  23
ATOM     23  C   UNL     1       5.621   4.684  19.257  0.00  0.00    +0.000 C 
BRANCH  23  25
ATOM     24  C   UNL     1       7.921   5.723  19.475  0.00  0.00    +0.000 C 
ATOM     25  C   UNL     1       6.569   5.790  18.782  0.00  0.00    +0.000 C 
ENDBRANCH  23  25
ENDBRANCH   1  23
TORSDOF 5
ENDMDL
MODEL 6
REMARK VINA RESULT:      -6.8      1.009      1.127
REMARK  Name = 
REMARK  8 active torsions:
REMARK  status: ('A' for Active; 'I' for Inactive)
REMARK    1  A    between atoms: C_1  and  C_2
REMARK    2  A    between atoms: C_2  and  C_3
REMARK    3  A    between atoms: C_3  and  C_4
REMARK    4  A    between atoms: C_7  and  C_9
REMARK    5  A    between atoms: C_12  and  C_13
REMARK    6  A    between atoms: C_18  and  N_19
REMARK    7  A    between atoms: N_19  and  S_20
REMARK    8  A    between atoms: S_20  and  C_21
REMARK                            x       y       z     vdW  Elec       q    Type
REMARK                         _______ _______ _______ _____ _____    ______ ____
ROOT
ATOM      1  C   UNL     1       2.054   5.508  19.690  0.00  0.00    +0.000 C 
ATOM      2  C   UNL     1       3.535   5.212  19.981  0.00  0.00    +0.000 C 
ATOM      3  N   UNL     1       4.183   5.350  18.689  0.00  0.00    +0.000 N 
ATOM      4  C   UNL     1       5.312   4.606  18.353  0.00  0.00    +0.000 C 
ATOM      5  O   UNL     1       5.813   3.828  19.162  0.00  0.00    +0.000 OA
ATOM      6  C   UNL     1       3.397   6.234  17.834  0.00  0.00    +0.000 C 
ATOM      7  C   UNL     1       2.145   6.631  18.628  0.00  0.00    +0.000 C 
ENDROOT
BRANCH   4   8
ATOM      8  C   UNL     1       5.878   4.744  16.967  0.00  0.00    +0.000 A 
ATOM      9  C   UNL     1       5.352   4.074  15.924  0.00  0.00    +0.000 A 
ATOM     10  C   UNL     1       5.967   4.045  14.625  0.00  0.00    +0.000 A 
ATOM     11  C   UNL     1       6.963   4.889  14.338  0.00  0.00    +0.000 A 
ATOM     12  C   UNL     1       7.639   4.920  13.005  0.00  0.00    +0.000 C 
ATOM     13  N   UNL     1       7.402   5.746  15.320  0.00  0.00    +0.000 N 
ATOM     14  C   UNL     1       6.961   5.735  16.634  0.00  0.00    +0.000 A 
ATOM     15  O   UNL     1       7.457   6.506  17.449  0.00  0.00    +0.000 OA
ATOM     16  H   UNL     1       8.125   6.426  15.117  0.00  0.00    +0.000 HD
ENDBRANCH   4   8
BRANCH   7  17
ATOM     17  N   UNL     1       2.307   7.973  19.305  0.00  0.00    +0.000 NA
ATOM     18  H   UNL     1       3.273   8.140  19.590  0.00  0.00    +0.000 HD
BRANCH  17  19
ATOM     19  S   UNL     1       1.721   9.324  18.444  0.00  0.00    +0.000 S 
ATOM     20  C   UNL     1       0.339   8.624  17.567  0.00  0.00    +0.000 C 
ATOM     21  O   UNL     1       1.186  10.254  19.409  0.00  0.00    +0.000 OA
ATOM     22  O   UNL     1       2.734   9.718  17.500  0.00  0.00    +0.000 OA
ENDBRANCH  17  19
ENDBRANCH   7  17
BRANCH   1  23
ATOM     23  C   UNL     1       1.329   4.262  19.125  0.00  0.00    +0.000 C 
BRANCH  23  25
ATOM     24  C   UNL     1       2.337   2.021  18.511  0.00  0.00    +0.000 C 
ATOM     25  C   UNL     1       1.918   2.946  19.643  0.00  0.00    +0.000 C 
ENDBRANCH  23  25
ENDBRANCH   1  23
TORSDOF 5
ENDMDL
MODEL 7
REMARK VINA RESULT:      -6.7      3.212      4.866
REMARK  Name = 
REMARK  8 active torsions:
REMARK  status: ('A' for Active; 'I' for Inactive)
REMARK    1  A    between atoms: C_1  and  C_2
REMARK    2  A    between atoms: C_2  and  C_3
REMARK    3  A    between atoms: C_3  and  C_4
REMARK    4  A    between atoms: C_7  and  C_9
REMARK    5  A    between atoms: C_12  and  C_13
REMARK    6  A    between atoms: C_18  and  N_19
REMARK    7  A    between atoms: N_19  and  S_20
REMARK    8  A    between atoms: S_20  and  C_21
REMARK                            x       y       z     vdW  Elec       q    Type
REMARK                         _______ _______ _______ _____ _____    ______ ____
ROOT
ATOM      1  C   UNL     1       5.397   5.422  18.946  0.00  0.00    +0.000 C 
ATOM      2  C   UNL     1       4.819   6.193  17.748  0.00  0.00    +0.000 C 
ATOM      3  N   UNL     1       5.103   5.339  16.608  0.00  0.00    +0.000 N 
ATOM      4  C   UNL     1       5.334   5.865  15.339  0.00  0.00    +0.000 C 
ATOM      5  O   UNL     1       5.270   7.076  15.142  0.00  0.00    +0.000 OA
ATOM      6  C   UNL     1       5.238   3.954  17.049  0.00  0.00    +0.000 C 
ATOM      7  C   UNL     1       5.080   3.952  18.576  0.00  0.00    +0.000 C 
ENDROOT
BRANCH   4   8
ATOM      8  C   UNL     1       5.703   4.924  14.226  0.00  0.00    +0.000 A 
ATOM      9  C   UNL     1       4.770   4.207  13.573  0.00  0.00    +0.000 A 
ATOM     10  C   UNL     1       5.098   3.175  12.627  0.00  0.00    +0.000 A 
ATOM     11  C   UNL     1       6.350   3.056  12.176  0.00  0.00    +0.000 A 
ATOM     12  C   UNL     1       6.757   2.013  11.185  0.00  0.00    +0.000 C 
ATOM     13  N   UNL     1       7.310   3.910  12.666  0.00  0.00    +0.000 N 
ATOM     14  C   UNL     1       7.104   4.831  13.682  0.00  0.00    +0.000 A 
ATOM     15  O   UNL     1       8.041   5.511  14.087  0.00  0.00    +0.000 OA
ATOM     16  H   UNL     1       8.258   3.871  12.310  0.00  0.00    +0.000 HD
ENDBRANCH   4   8
BRANCH   7  17
ATOM     17  N   UNL     1       3.670   3.604  18.999  0.00  0.00    +0.000 NA
ATOM     18  H   UNL     1       3.076   4.432  19.054  0.00  0.00    +0.000 HD
BRANCH  17  19
ATOM     19  S   UNL     1       2.887   2.397  18.082  0.00  0.00    +0.000 S 
ATOM     20  C   UNL     1       1.461   2.045  19.088  0.00  0.00    +0.000 C 
ATOM     21  O   UNL     1       2.411   3.015  16.869  0.00  0.00    +0.000 OA
ATOM     22  O   UNL     1       3.745   1.241  18.052  0.00  0.00    +0.000 OA
ENDBRANCH  17  19
ENDBRANCH   7  17
BRANCH   1  23
ATOM     23  C   UNL     1       6.923   5.647  19.081  0.00  0.00    +0.000 C 
BRANCH  23  25
ATOM     24  C   UNL     1       8.294   7.712  18.561  0.00  0.00    +0.000 C 
ATOM     25  C   UNL     1       7.488   6.558  17.986  0.00  0.00    +0.000 C 
ENDBRANCH  23  25
ENDBRANCH   1  23
TORSDOF 5
ENDMDL
MODEL 8
REMARK VINA RESULT:      -6.7      3.445      5.197
REMARK  Name = 
REMARK  8 active torsions:
REMARK  status: ('A' for Active; 'I' for Inactive)
REMARK    1  A    between atoms: C_1  and  C_2
REMARK    2  A    between atoms: C_2  and  C_3
REMARK    3  A    between atoms: C_3  and  C_4
REMARK    4  A    between atoms: C_7  and  C_9
REMARK    5  A    between atoms: C_12  and  C_13
REMARK    6  A    between atoms: C_18  and  N_19
REMARK    7  A    between atoms: N_19  and  S_20
REMARK    8  A    between atoms: S_20  and  C_21
REMARK                            x       y       z     vdW  Elec       q    Type
REMARK                         _______ _______ _______ _____ _____    ______ ____
ROOT
ATOM      1  C   UNL     1       5.565   5.708  18.737  0.00  0.00    +0.000 C 
ATOM      2  C   UNL     1       4.901   6.359  17.513  0.00  0.00    +0.000 C 
ATOM      3  N   UNL     1       5.205   5.451  16.421  0.00  0.00    +0.000 N 
ATOM      4  C   UNL     1       5.360   5.905  15.113  0.00  0.00    +0.000 C 
ATOM      5  O   UNL     1       5.211   7.094  14.841  0.00  0.00    +0.000 OA
ATOM      6  C   UNL     1       5.444   4.110  16.945  0.00  0.00    +0.000 C 
ATOM      7  C   UNL     1       5.334   4.199  18.473  0.00  0.00    +0.000 C 
ENDROOT
BRANCH   4   8
ATOM      8  C   UNL     1       5.756   4.917  14.051  0.00  0.00    +0.000 A 
ATOM      9  C   UNL     1       4.845   4.129  13.450  0.00  0.00    +0.000 A 
ATOM     10  C   UNL     1       5.204   3.059  12.560  0.00  0.00    +0.000 A 
ATOM     11  C   UNL     1       6.456   2.963  12.101  0.00  0.00    +0.000 A 
ATOM     12  C   UNL     1       6.894   1.882  11.165  0.00  0.00    +0.000 C 
ATOM     13  N   UNL     1       7.386   3.880  12.531  0.00  0.00    +0.000 N 
ATOM     14  C   UNL     1       7.154   4.849  13.496  0.00  0.00    +0.000 A 
ATOM     15  O   UNL     1       8.067   5.586  13.850  0.00  0.00    +0.000 OA
ATOM     16  H   UNL     1       8.331   3.858  12.166  0.00  0.00    +0.000 HD
ENDBRANCH   4   8
BRANCH   7  17
ATOM     17  N   UNL     1       3.965   3.791  18.967  0.00  0.00    +0.000 NA
ATOM     18  H   UNL     1       3.276   3.787  18.214  0.00  0.00    +0.000 HD
BRANCH  17  19
ATOM     19  S   UNL     1       3.884   2.320  19.827  0.00  0.00    +0.000 S 
ATOM     20  C   UNL     1       3.604   1.148  18.517  0.00  0.00    +0.000 C 
ATOM     21  O   UNL     1       5.199   2.056  20.359  0.00  0.00    +0.000 OA
ATOM     22  O   UNL     1       2.724   2.369  20.678  0.00  0.00    +0.000 OA
ENDBRANCH  17  19
ENDBRANCH   7  17
BRANCH   1  23
ATOM     23  C   UNL     1       7.077   6.037  18.803  0.00  0.00    +0.000 C 
BRANCH  23  25
ATOM     24  C   UNL     1       8.375   8.176  18.407  0.00  0.00    +0.000 C 
ATOM     25  C   UNL     1       7.497   7.102  17.784  0.00  0.00    +0.000 C 
ENDBRANCH  23  25
ENDBRANCH   1  23
TORSDOF 5
ENDMDL
MODEL 9
REMARK VINA RESULT:      -6.5      3.124      4.378
REMARK  Name = 
REMARK  8 active torsions:
REMARK  status: ('A' for Active; 'I' for Inactive)
REMARK    1  A    between atoms: C_1  and  C_2
REMARK    2  A    between atoms: C_2  and  C_3
REMARK    3  A    between atoms: C_3  and  C_4
REMARK    4  A    between atoms: C_7  and  C_9
REMARK    5  A    between atoms: C_12  and  C_13
REMARK    6  A    between atoms: C_18  and  N_19
REMARK    7  A    between atoms: N_19  and  S_20
REMARK    8  A    between atoms: S_20  and  C_21
REMARK                            x       y       z     vdW  Elec       q    Type
REMARK                         _______ _______ _______ _____ _____    ______ ____
ROOT
ATOM      1  C   UNL     1       4.092   5.160  18.797  0.00  0.00    +0.000 C 
ATOM      2  C   UNL     1       4.129   6.153  17.624  0.00  0.00    +0.000 C 
ATOM      3  N   UNL     1       4.506   5.339  16.483  0.00  0.00    +0.000 N 
ATOM      4  C   UNL     1       5.239   5.863  15.420  0.00  0.00    +0.000 C 
ATOM      5  O   UNL     1       5.561   7.049  15.406  0.00  0.00    +0.000 OA
ATOM      6  C   UNL     1       4.129   3.950  16.721  0.00  0.00    +0.000 C 
ATOM      7  C   UNL     1       3.524   3.883  18.129  0.00  0.00    +0.000 C 
ENDROOT
BRANCH   4   8
ATOM      8  C   UNL     1       5.663   4.939  14.313  0.00  0.00    +0.000 A 
ATOM      9  C   UNL     1       4.760   4.266  13.574  0.00  0.00    +0.000 A 
ATOM     10  C   UNL     1       5.128   3.248  12.629  0.00  0.00    +0.000 A 
ATOM     11  C   UNL     1       6.407   3.102  12.268  0.00  0.00    +0.000 A 
ATOM     12  C   UNL     1       6.856   2.072  11.281  0.00  0.00    +0.000 C 
ATOM     13  N   UNL     1       7.351   3.915  12.849  0.00  0.00    +0.000 N 
ATOM     14  C   UNL     1       7.097   4.817  13.871  0.00  0.00    +0.000 A 
ATOM     15  O   UNL     1       8.020   5.459  14.360  0.00  0.00    +0.000 OA
ATOM     16  H   UNL     1       8.321   3.857  12.561  0.00  0.00    +0.000 HD
ENDBRANCH   4   8
BRANCH   7  17
ATOM     17  N   UNL     1       2.013   3.943  18.100  0.00  0.00    +0.000 NA
ATOM     18  H   UNL     1       1.648   3.819  17.155  0.00  0.00    +0.000 HD
BRANCH  17  19
ATOM     19  S   UNL     1       1.199   2.896  19.173  0.00  0.00    +0.000 S 
ATOM     20  C   UNL     1       2.465   1.701  19.543  0.00  0.00    +0.000 C 
ATOM     21  O   UNL     1       0.942   3.633  20.386  0.00  0.00    +0.000 OA
ATOM     22  O   UNL     1       0.138   2.254  18.442  0.00  0.00    +0.000 OA
ENDBRANCH  17  19
ENDBRANCH   7  17
BRANCH   1  23
ATOM     23  C   UNL     1       5.509   4.907  19.368  0.00  0.00    +0.000 C 
BRANCH  23  25
ATOM     24  C   UNL     1       7.719   5.177  18.162  0.00  0.00    +0.000 C 
ATOM     25  C   UNL     1       6.552   5.890  18.825  0.00  0.00    +0.000 C 
ENDBRANCH  23  25
ENDBRANCH   1  23
TORSDOF 5
ENDMDL
