MODEL 1
REMARK VINA RESULT:      -6.9      0.000      0.000
REMARK  Name = 
REMARK  7 active torsions:
REMARK  status: ('A' for Active; 'I' for Inactive)
REMARK    1  A    between atoms: C_1  and  C_2
REMARK    2  A    between atoms: C_2  and  C_5
REMARK    3  A    between atoms: C_5  and  N_6
REMARK    4  A    between atoms: C_5  and  N_16
REMARK    5  A    between atoms: C_7  and  C_9
REMARK    6  A    between atoms: N_18  and  C_19
REMARK    7  A    between atoms: N_21  and  C_22
REMARK                            x       y       z     vdW  Elec       q    Type
REMARK                         _______ _______ _______ _____ _____    ______ ____
ROOT
ATOM      1  C   UNL     1       3.974   4.337  18.112  0.00  0.00    +0.000 C 
ENDROOT
BRANCH   1   2
ATOM      2  N   UNL     1       5.414   4.466  17.891  0.00  0.00    +0.000 N 
ATOM      3  C   UNL     1       5.963   4.488  16.628  0.00  0.00    +0.000 C 
ATOM      4  N   UNL     1       5.357   3.812  15.710  0.00  0.00    +0.000 NA
ATOM      5  N   UNL     1       7.144   5.218  16.577  0.00  0.00    +0.000 N 
ATOM      6  H   UNL     1       5.999   4.025  18.599  0.00  0.00    +0.000 HD
ATOM      7  H   UNL     1       7.715   5.162  15.737  0.00  0.00    +0.000 HD
BRANCH   5   8
ATOM      8  C   UNL     1       7.446   6.339  17.392  0.00  0.00    +0.000 A 
ATOM      9  C   UNL     1       7.272   7.639  16.918  0.00  0.00    +0.000 A 
ATOM     10  C   UNL     1       7.834   8.716  17.617  0.00  0.00    +0.000 A 
ATOM     11  C   UNL     1       8.516   8.466  18.796  0.00  0.00    +0.000 A 
ATOM     12  F   UNL     1       9.132   9.482  19.414  0.00  0.00    +0.000 F 
ATOM     13  N   UNL     1       8.633   7.244  19.341  0.00  0.00    +0.000 NA
ATOM     14  C   UNL     1       8.082   6.230  18.633  0.00  0.00    +0.000 A 
ENDBRANCH   5   8
BRANCH   4  15
ATOM     15  C   UNL     1       5.795   3.735  14.447  0.00  0.00    +0.000 C 
ATOM     16  N   UNL     1       6.229   3.638  13.385  0.00  0.00    +0.000 NA
ENDBRANCH   4  15
ENDBRANCH   1   2
BRANCH   1  18
ATOM     17  C   UNL     1       4.816   2.524  19.751  0.00  0.00    +0.000 C 
ATOM     18  C   UNL     1       3.601   3.265  19.196  0.00  0.00    +0.000 C 
ATOM     19 CL   UNL     1       2.458   2.031  18.547  0.00  0.00    +0.000 Cl
ATOM     20 CL   UNL     1       2.759   4.080  20.585  0.00  0.00    +0.000 Cl
ENDBRANCH   1  18
BRANCH   1  21
ATOM     21  N   UNL     1       3.585   5.689  18.474  0.00  0.00    +0.000 N 
ATOM     22  C   UNL     1       2.322   6.168  18.206  0.00  0.00    +0.000 C 
ATOM     23  O   UNL     1       1.478   5.535  17.587  0.00  0.00    +0.000 OA
ATOM     24  H   UNL     1       4.271   6.269  18.933  0.00  0.00    +0.000 HD
BRANCH  22  25
ATOM     25  C   UNL     1       2.004   7.520  18.724  0.00  0.00    +0.000 A 
ATOM     26  C   UNL     1       1.900   8.593  17.829  0.00  0.00    +0.000 A 
ATOM     27  C   UNL     1       1.491   9.846  18.295  0.00  0.00    +0.000 A 
ATOM     28  C   UNL     1       1.188  10.014  19.647  0.00  0.00    +0.000 A 
ATOM     29 CL   UNL     1       0.631  11.541  20.215  0.00  0.00    +0.000 Cl
ATOM     30  C   UNL     1       1.303   8.953  20.542  0.00  0.00    +0.000 A 
ATOM     31  C   UNL     1       1.711   7.701  20.079  0.00  0.00    +0.000 A 
ENDBRANCH  22  25
ENDBRANCH   1  21
TORSDOF 6
ENDMDL
MODEL 2
REMARK VINA RESULT:      -6.8      6.439      9.834
REMARK  Name = 
REMARK  7 active torsions:
REMARK  status: ('A' for Active; 'I' for Inactive)
REMARK    1  A    between atoms: C_1  and  C_2
REMARK    2  A    between atoms: C_2  and  C_5
REMARK    3  A    between atoms: C_5  and  N_6
REMARK    4  A    between atoms: C_5  and  N_16
REMARK    5  A    between atoms: C_7  and  C_9
REMARK    6  A    between atoms: N_18  and  C_19
REMARK    7  A    between atoms: N_21  and  C_22
REMARK                            x       y       z     vdW  Elec       q    Type
REMARK                         _______ _______ _______ _____ _____    ______ ____
ROOT
ATOM      1  C   UNL     1       0.361  12.458  19.593  0.00  0.00    +0.000 C 
ENDROOT
BRANCH   1   2
ATOM      2  N   UNL     1       0.025  11.744  18.361  0.00  0.00    +0.000 N 
ATOM      3  C   UNL     1       0.326  10.413  18.180  0.00  0.00    +0.000 C 
ATOM      4  N   UNL     1       1.385   9.962  18.767  0.00  0.00    +0.000 NA
ATOM      5  N   UNL     1      -0.566   9.780  17.323  0.00  0.00    +0.000 N 
ATOM      6  H   UNL     1       0.068  12.308  17.513  0.00  0.00    +0.000 HD
ATOM      7  H   UNL     1      -0.343   8.845  16.991  0.00  0.00    +0.000 HD
BRANCH   5   8
ATOM      8  C   UNL     1      -1.935  10.121  17.175  0.00  0.00    +0.000 A 
ATOM      9  C   UNL     1      -2.491  10.330  15.913  0.00  0.00    +0.000 A 
ATOM     10  C   UNL     1      -3.750  10.935  15.799  0.00  0.00    +0.000 A 
ATOM     11  C   UNL     1      -4.438  11.272  16.953  0.00  0.00    +0.000 A 
ATOM     12  F   UNL     1      -5.598  11.933  16.844  0.00  0.00    +0.000 F 
ATOM     13  N   UNL     1      -3.987  11.008  18.190  0.00  0.00    +0.000 NA
ATOM     14  C   UNL     1      -2.765  10.429  18.259  0.00  0.00    +0.000 A 
ENDBRANCH   5   8
BRANCH   4  15
ATOM     15  C   UNL     1       1.799   8.694  18.658  0.00  0.00    +0.000 C 
ATOM     16  N   UNL     1       2.096   7.589  18.529  0.00  0.00    +0.000 NA
ENDBRANCH   4  15
ENDBRANCH   1   2
BRANCH   1  18
ATOM     17  C   UNL     1       1.809  14.359  20.578  0.00  0.00    +0.000 C 
ATOM     18  C   UNL     1       1.075  13.834  19.345  0.00  0.00    +0.000 C 
ATOM     19 CL   UNL     1      -0.091  15.105  18.822  0.00  0.00    +0.000 Cl
ATOM     20 CL   UNL     1       2.288  13.652  18.006  0.00  0.00    +0.000 Cl
ENDBRANCH   1  18
BRANCH   1  21
ATOM     21  N   UNL     1      -0.928  12.583  20.251  0.00  0.00    +0.000 N 
ATOM     22  C   UNL     1      -1.096  12.240  21.574  0.00  0.00    +0.000 C 
ATOM     23  O   UNL     1      -0.213  11.741  22.258  0.00  0.00    +0.000 OA
ATOM     24  H   UNL     1      -1.702  12.934  19.706  0.00  0.00    +0.000 HD
BRANCH  22  25
ATOM     25  C   UNL     1      -2.425  12.519  22.166  0.00  0.00    +0.000 A 
ATOM     26  C   UNL     1      -3.495  12.857  21.325  0.00  0.00    +0.000 A 
ATOM     27  C   UNL     1      -4.776  13.012  21.864  0.00  0.00    +0.000 A 
ATOM     28  C   UNL     1      -4.976  12.825  23.232  0.00  0.00    +0.000 A 
ATOM     29 CL   UNL     1      -6.561  12.959  23.891  0.00  0.00    +0.000 Cl
ATOM     30  C   UNL     1      -3.913  12.501  24.072  0.00  0.00    +0.000 A 
ATOM     31  C   UNL     1      -2.633  12.347  23.537  0.00  0.00    +0.000 A 
ENDBRANCH  22  25
ENDBRANCH   1  21
TORSDOF 6
ENDMDL
MODEL 3
REMARK VINA RESULT:      -6.7      6.626     10.049
REMARK  Name = 
REMARK  7 active torsions:
REMARK  status: ('A' for Active; 'I' for Inactive)
REMARK    1  A    between atoms: C_1  and  C_2
REMARK    2  A    between atoms: C_2  and  C_5
REMARK    3  A    between atoms: C_5  and  N_6
REMARK    4  A    between atoms: C_5  and  N_16
REMARK    5  A    between atoms: C_7  and  C_9
REMARK    6  A    between atoms: N_18  and  C_19
REMARK    7  A    between atoms: N_21  and  C_22
REMARK                            x       y       z     vdW  Elec       q    Type
REMARK                         _______ _______ _______ _____ _____    ______ ____
ROOT
ATOM      1  C   UNL     1       0.135  12.490  19.915  0.00  0.00    +0.000 C 
ENDROOT
BRANCH   1   2
ATOM      2  N   UNL     1      -0.110  11.838  18.629  0.00  0.00    +0.000 N 
ATOM      3  C   UNL     1       0.232  10.524  18.397  0.00  0.00    +0.000 C 
ATOM      4  N   UNL     1       1.264  10.064  19.022  0.00  0.00    +0.000 NA
ATOM      5  N   UNL     1      -0.592   9.921  17.455  0.00  0.00    +0.000 N 
ATOM      6  H   UNL     1      -0.030  12.447  17.816  0.00  0.00    +0.000 HD
ATOM      7  H   UNL     1      -0.329   9.010  17.089  0.00  0.00    +0.000 HD
BRANCH   5   8
ATOM      8  C   UNL     1      -1.958  10.242  17.242  0.00  0.00    +0.000 A 
ATOM      9  C   UNL     1      -2.462  10.422  15.954  0.00  0.00    +0.000 A 
ATOM     10  C   UNL     1      -3.722  11.009  15.776  0.00  0.00    +0.000 A 
ATOM     11  C   UNL     1      -4.463  11.356  16.893  0.00  0.00    +0.000 A 
ATOM     12  F   UNL     1      -5.625  12.001  16.723  0.00  0.00    +0.000 F 
ATOM     13  N   UNL     1      -4.062  11.120  18.153  0.00  0.00    +0.000 NA
ATOM     14  C   UNL     1      -2.837  10.558  18.284  0.00  0.00    +0.000 A 
ENDBRANCH   5   8
BRANCH   4  15
ATOM     15  C   UNL     1       1.714   8.812  18.872  0.00  0.00    +0.000 C 
ATOM     16  N   UNL     1       2.161   7.762  18.719  0.00  0.00    +0.000 NA
ENDBRANCH   4  15
ENDBRANCH   1   2
BRANCH   1  18
ATOM     17  C   UNL     1       1.737  14.035  18.601  0.00  0.00    +0.000 C 
ATOM     18  C   UNL     1       0.775  13.917  19.782  0.00  0.00    +0.000 C 
ATOM     19 CL   UNL     1       1.678  14.384  21.270  0.00  0.00    +0.000 Cl
ATOM     20 CL   UNL     1      -0.540  15.150  19.558  0.00  0.00    +0.000 Cl
ENDBRANCH   1  18
BRANCH   1  21
ATOM     21  N   UNL     1      -1.184  12.500  20.524  0.00  0.00    +0.000 N 
ATOM     22  C   UNL     1      -1.352  12.302  21.877  0.00  0.00    +0.000 C 
ATOM     23  O   UNL     1      -0.433  12.030  22.637  0.00  0.00    +0.000 OA
ATOM     24  H   UNL     1      -1.978  12.661  19.924  0.00  0.00    +0.000 HD
BRANCH  22  25
ATOM     25  C   UNL     1      -2.730  12.449  22.400  0.00  0.00    +0.000 A 
ATOM     26  C   UNL     1      -2.962  12.311  23.776  0.00  0.00    +0.000 A 
ATOM     27  C   UNL     1      -4.238  12.558  24.291  0.00  0.00    +0.000 A 
ATOM     28  C   UNL     1      -5.267  12.944  23.430  0.00  0.00    +0.000 A 
ATOM     29 CL   UNL     1      -6.825  13.305  24.067  0.00  0.00    +0.000 Cl
ATOM     30  C   UNL     1      -5.042  13.070  22.061  0.00  0.00    +0.000 A 
ATOM     31  C   UNL     1      -3.769  12.823  21.544  0.00  0.00    +0.000 A 
ENDBRANCH  22  25
ENDBRANCH   1  21
TORSDOF 6
ENDMDL
MODEL 4
REMARK VINA RESULT:      -6.6      6.034      9.916
REMARK  Name = 
REMARK  7 active torsions:
REMARK  status: ('A' for Active; 'I' for Inactive)
REMARK    1  A    between atoms: C_1  and  C_2
REMARK    2  A    between atoms: C_2  and  C_5
REMARK    3  A    between atoms: C_5  and  N_6
REMARK    4  A    between atoms: C_5  and  N_16
REMARK    5  A    between atoms: C_7  and  C_9
REMARK    6  A    between atoms: N_18  and  C_19
REMARK    7  A    between atoms: N_21  and  C_22
REMARK                            x       y       z     vdW  Elec       q    Type
REMARK                         _______ _______ _______ _____ _____    ______ ____
ROOT
ATOM      1  C   UNL     1       0.438  12.753  18.488  0.00  0.00    +0.000 C 
ENDROOT
BRANCH   1   2
ATOM      2  N   UNL     1      -0.980  13.040  18.707  0.00  0.00    +0.000 N 
ATOM      3  C   UNL     1      -1.976  12.215  18.236  0.00  0.00    +0.000 C 
ATOM      4  N   UNL     1      -1.742  11.573  17.140  0.00  0.00    +0.000 NA
ATOM      5  N   UNL     1      -3.119  12.262  19.025  0.00  0.00    +0.000 N 
ATOM      6  H   UNL     1      -1.220  14.030  18.721  0.00  0.00    +0.000 HD
ATOM      7  H   UNL     1      -3.968  11.821  18.679  0.00  0.00    +0.000 HD
BRANCH   5   8
ATOM      8  C   UNL     1      -3.136  12.500  20.423  0.00  0.00    +0.000 A 
ATOM      9  C   UNL     1      -2.057  12.133  21.228  0.00  0.00    +0.000 A 
ATOM     10  C   UNL     1      -2.203  12.113  22.621  0.00  0.00    +0.000 A 
ATOM     11  C   UNL     1      -3.411  12.506  23.174  0.00  0.00    +0.000 A 
ATOM     12  F   UNL     1      -3.582  12.399  24.498  0.00  0.00    +0.000 F 
ATOM     13  N   UNL     1      -4.448  12.955  22.448  0.00  0.00    +0.000 NA
ATOM     14  C   UNL     1      -4.271  12.953  21.106  0.00  0.00    +0.000 A 
ENDBRANCH   5   8
BRANCH   4  15
ATOM     15  C   UNL     1      -2.632  10.754  16.566  0.00  0.00    +0.000 C 
ATOM     16  N   UNL     1      -3.438  10.059  16.129  0.00  0.00    +0.000 NA
ENDBRANCH   4  15
ENDBRANCH   1   2
BRANCH   1  18
ATOM     17  C   UNL     1       0.758  15.074  19.580  0.00  0.00    +0.000 C 
ATOM     18  C   UNL     1       1.400  13.726  19.256  0.00  0.00    +0.000 C 
ATOM     19 CL   UNL     1       2.907  14.049  18.321  0.00  0.00    +0.000 Cl
ATOM     20 CL   UNL     1       1.909  12.958  20.822  0.00  0.00    +0.000 Cl
ENDBRANCH   1  18
BRANCH   1  21
ATOM     21  N   UNL     1       0.552  11.368  18.911  0.00  0.00    +0.000 N 
ATOM     22  C   UNL     1       1.509  10.531  18.380  0.00  0.00    +0.000 C 
ATOM     23  O   UNL     1       2.265  10.860  17.477  0.00  0.00    +0.000 OA
ATOM     24  H   UNL     1      -0.093  11.036  19.613  0.00  0.00    +0.000 HD
BRANCH  22  25
ATOM     25  C   UNL     1       1.603   9.177  18.972  0.00  0.00    +0.000 A 
ATOM     26  C   UNL     1       2.240   8.154  18.254  0.00  0.00    +0.000 A 
ATOM     27  C   UNL     1       2.432   6.905  18.851  0.00  0.00    +0.000 A 
ATOM     28  C   UNL     1       1.991   6.690  20.158  0.00  0.00    +0.000 A 
ATOM     29 CL   UNL     1       2.276   5.171  20.917  0.00  0.00    +0.000 Cl
ATOM     30  C   UNL     1       1.347   7.699  20.870  0.00  0.00    +0.000 A 
ATOM     31  C   UNL     1       1.153   8.947  20.276  0.00  0.00    +0.000 A 
ENDBRANCH  22  25
ENDBRANCH   1  21
TORSDOF 6
ENDMDL
MODEL 5
REMARK VINA RESULT:      -6.6      0.461      1.026
REMARK  Name = 
REMARK  7 active torsions:
REMARK  status: ('A' for Active; 'I' for Inactive)
REMARK    1  A    between atoms: C_1  and  C_2
REMARK    2  A    between atoms: C_2  and  C_5
REMARK    3  A    between atoms: C_5  and  N_6
REMARK    4  A    between atoms: C_5  and  N_16
REMARK    5  A    between atoms: C_7  and  C_9
REMARK    6  A    between atoms: N_18  and  C_19
REMARK    7  A    between atoms: N_21  and  C_22
REMARK                            x       y       z     vdW  Elec       q    Type
REMARK                         _______ _______ _______ _____ _____    ______ ____
ROOT
ATOM      1  C   UNL     1       4.164   3.976  18.094  0.00  0.00    +0.000 C 
ENDROOT
BRANCH   1   2
ATOM      2  N   UNL     1       5.578   4.221  17.812  0.00  0.00    +0.000 N 
ATOM      3  C   UNL     1       6.059   4.337  16.527  0.00  0.00    +0.000 C 
ATOM      4  N   UNL     1       5.459   3.656  15.609  0.00  0.00    +0.000 NA
ATOM      5  N   UNL     1       7.181   5.153  16.454  0.00  0.00    +0.000 N 
ATOM      6  H   UNL     1       6.227   3.795  18.472  0.00  0.00    +0.000 HD
ATOM      7  H   UNL     1       7.712   5.175  15.586  0.00  0.00    +0.000 HD
BRANCH   5   8
ATOM      8  C   UNL     1       7.442   6.259  17.303  0.00  0.00    +0.000 A 
ATOM      9  C   UNL     1       7.272   7.568  16.853  0.00  0.00    +0.000 A 
ATOM     10  C   UNL     1       7.797   8.634  17.595  0.00  0.00    +0.000 A 
ATOM     11  C   UNL     1       8.438   8.364  18.793  0.00  0.00    +0.000 A 
ATOM     12  F   UNL     1       9.021   9.372  19.455  0.00  0.00    +0.000 F 
ATOM     13  N   UNL     1       8.547   7.131  19.315  0.00  0.00    +0.000 NA
ATOM     14  C   UNL     1       8.034   6.128  18.565  0.00  0.00    +0.000 A 
ENDBRANCH   5   8
BRANCH   4  15
ATOM     15  C   UNL     1       5.837   3.665  14.324  0.00  0.00    +0.000 C 
ATOM     16  N   UNL     1       6.215   3.629  13.238  0.00  0.00    +0.000 NA
ENDBRANCH   4  15
ENDBRANCH   1   2
BRANCH   1  18
ATOM     17  C   UNL     1       5.149   2.624  20.064  0.00  0.00    +0.000 C 
ATOM     18  C   UNL     1       3.924   2.875  19.187  0.00  0.00    +0.000 C 
ATOM     19 CL   UNL     1       3.448   1.300  18.452  0.00  0.00    +0.000 Cl
ATOM     20 CL   UNL     1       2.556   3.385  20.267  0.00  0.00    +0.000 Cl
ENDBRANCH   1  18
BRANCH   1  21
ATOM     21  N   UNL     1       3.684   5.292  18.481  0.00  0.00    +0.000 N 
ATOM     22  C   UNL     1       2.408   5.711  18.171  0.00  0.00    +0.000 C 
ATOM     23  O   UNL     1       1.629   5.054  17.494  0.00  0.00    +0.000 OA
ATOM     24  H   UNL     1       4.315   5.893  18.989  0.00  0.00    +0.000 HD
BRANCH  22  25
ATOM     25  C   UNL     1       1.993   7.024  18.718  0.00  0.00    +0.000 A 
ATOM     26  C   UNL     1       1.780   7.159  20.097  0.00  0.00    +0.000 A 
ATOM     27  C   UNL     1       1.498   8.419  20.633  0.00  0.00    +0.000 A 
ATOM     28  C   UNL     1       1.435   9.529  19.790  0.00  0.00    +0.000 A 
ATOM     29 CL   UNL     1       1.144  11.091  20.454  0.00  0.00    +0.000 Cl
ATOM     30  C   UNL     1       1.634   9.397  18.418  0.00  0.00    +0.000 A 
ATOM     31  C   UNL     1       1.915   8.140  17.880  0.00  0.00    +0.000 A 
ENDBRANCH  22  25
ENDBRANCH   1  21
TORSDOF 6
ENDMDL
MODEL 6
REMARK VINA RESULT:      -6.4      6.068      9.947
REMARK  Name = 
REMARK  7 active torsions:
REMARK  status: ('A' for Active; 'I' for Inactive)
REMARK    1  A    between atoms: C_1  and  C_2
REMARK    2  A    between atoms: C_2  and  C_5
REMARK    3  A    between atoms: C_5  and  N_6
REMARK    4  A    between atoms: C_5  and  N_16
REMARK    5  A    between atoms: C_7  and  C_9
REMARK    6  A    between atoms: N_18  and  C_19
REMARK    7  A    between atoms: N_21  and  C_22
REMARK                            x       y       z     vdW  Elec       q    Type
REMARK                         _______ _______ _______ _____ _____    ______ ____
ROOT
ATOM      1  C   UNL     1       0.676  12.806  18.603  0.00  0.00    +0.000 C 
ENDROOT
BRANCH   1   2
ATOM      2  N   UNL     1      -0.712  13.169  18.887  0.00  0.00    +0.000 N 
ATOM      3  C   UNL     1      -1.767  12.350  18.552  0.00  0.00    +0.000 C 
ATOM      4  N   UNL     1      -1.630  11.610  17.503  0.00  0.00    +0.000 NA
ATOM      5  N   UNL     1      -2.853  12.511  19.404  0.00  0.00    +0.000 N 
ATOM      6  H   UNL     1      -0.915  14.166  18.830  0.00  0.00    +0.000 HD
ATOM      7  H   UNL     1      -3.738  12.078  19.152  0.00  0.00    +0.000 HD
BRANCH   5   8
ATOM      8  C   UNL     1      -2.768  12.866  20.775  0.00  0.00    +0.000 A 
ATOM      9  C   UNL     1      -2.164  12.016  21.702  0.00  0.00    +0.000 A 
ATOM     10  C   UNL     1      -2.338  12.245  23.073  0.00  0.00    +0.000 A 
ATOM     11  C   UNL     1      -3.075  13.345  23.480  0.00  0.00    +0.000 A 
ATOM     12  F   UNL     1      -3.320  13.511  24.786  0.00  0.00    +0.000 F 
ATOM     13  N   UNL     1      -3.599  14.243  22.630  0.00  0.00    +0.000 NA
ATOM     14  C   UNL     1      -3.415  13.984  21.314  0.00  0.00    +0.000 A 
ENDBRANCH   5   8
BRANCH   4  15
ATOM     15  C   UNL     1      -2.585  10.783  17.060  0.00  0.00    +0.000 C 
ATOM     16  N   UNL     1      -3.357  10.039  16.640  0.00  0.00    +0.000 NA
ENDBRANCH   4  15
ENDBRANCH   1   2
BRANCH   1  18
ATOM     17  C   UNL     1       2.075  13.256  20.730  0.00  0.00    +0.000 C 
ATOM     18  C   UNL     1       1.724  13.729  19.320  0.00  0.00    +0.000 C 
ATOM     19 CL   UNL     1       1.140  15.429  19.445  0.00  0.00    +0.000 Cl
ATOM     20 CL   UNL     1       3.257  13.771  18.346  0.00  0.00    +0.000 Cl
ENDBRANCH   1  18
BRANCH   1  21
ATOM     21  N   UNL     1       0.736  11.419  19.030  0.00  0.00    +0.000 N 
ATOM     22  C   UNL     1       1.559  10.509  18.404  0.00  0.00    +0.000 C 
ATOM     23  O   UNL     1       2.227  10.775  17.415  0.00  0.00    +0.000 OA
ATOM     24  H   UNL     1       0.155  11.140  19.807  0.00  0.00    +0.000 HD
BRANCH  22  25
ATOM     25  C   UNL     1       1.622   9.154  19.001  0.00  0.00    +0.000 A 
ATOM     26  C   UNL     1       2.231   8.114  18.284  0.00  0.00    +0.000 A 
ATOM     27  C   UNL     1       2.393   6.863  18.885  0.00  0.00    +0.000 A 
ATOM     28  C   UNL     1       1.950   6.662  20.193  0.00  0.00    +0.000 A 
ATOM     29 CL   UNL     1       2.199   5.140  20.957  0.00  0.00    +0.000 Cl
ATOM     30  C   UNL     1       1.333   7.690  20.904  0.00  0.00    +0.000 A 
ATOM     31  C   UNL     1       1.169   8.940  20.306  0.00  0.00    +0.000 A 
ENDBRANCH  22  25
ENDBRANCH   1  21
TORSDOF 6
ENDMDL
MODEL 7
REMARK VINA RESULT:      -6.3      7.385     10.350
REMARK  Name = 
REMARK  7 active torsions:
REMARK  status: ('A' for Active; 'I' for Inactive)
REMARK    1  A    between atoms: C_1  and  C_2
REMARK    2  A    between atoms: C_2  and  C_5
REMARK    3  A    between atoms: C_5  and  N_6
REMARK    4  A    between atoms: C_5  and  N_16
REMARK    5  A    between atoms: C_7  and  C_9
REMARK    6  A    between atoms: N_18  and  C_19
REMARK    7  A    between atoms: N_21  and  C_22
REMARK                            x       y       z     vdW  Elec       q    Type
REMARK                         _______ _______ _______ _____ _____    ______ ____
ROOT
ATOM      1  C   UNL     1       0.124  12.932  20.804  0.00  0.00    +0.000 C 
ENDROOT
BRANCH   1   2
ATOM      2  N   UNL     1       0.106  12.060  19.630  0.00  0.00    +0.000 N 
ATOM      3  C   UNL     1       0.196  10.690  19.734  0.00  0.00    +0.000 C 
ATOM      4  N   UNL     1       0.884  10.217  20.719  0.00  0.00    +0.000 NA
ATOM      5  N   UNL     1      -0.448  10.036  18.690  0.00  0.00    +0.000 N 
ATOM      6  H   UNL     1       0.542  12.452  18.797  0.00  0.00    +0.000 HD
ATOM      7  H   UNL     1      -0.304   9.036  18.579  0.00  0.00    +0.000 HD
BRANCH   5   8
ATOM      8  C   UNL     1      -1.593  10.521  18.008  0.00  0.00    +0.000 A 
ATOM      9  C   UNL     1      -2.526  11.332  18.654  0.00  0.00    +0.000 A 
ATOM     10  C   UNL     1      -3.775  11.564  18.064  0.00  0.00    +0.000 A 
ATOM     11  C   UNL     1      -4.040  11.016  16.819  0.00  0.00    +0.000 A 
ATOM     12  F   UNL     1      -5.265  11.159  16.297  0.00  0.00    +0.000 F 
ATOM     13  N   UNL     1      -3.143  10.306  16.115  0.00  0.00    +0.000 NA
ATOM     14  C   UNL     1      -1.951  10.098  16.722  0.00  0.00    +0.000 A 
ENDBRANCH   5   8
BRANCH   4  15
ATOM     15  C   UNL     1       1.065   8.906  20.924  0.00  0.00    +0.000 C 
ATOM     16  N   UNL     1       1.264   7.779  21.044  0.00  0.00    +0.000 NA
ENDBRANCH   4  15
ENDBRANCH   1   2
BRANCH   1  18
ATOM     17  C   UNL     1      -0.420  15.288  19.891  0.00  0.00    +0.000 C 
ATOM     18  C   UNL     1       0.647  14.381  20.500  0.00  0.00    +0.000 C 
ATOM     19 CL   UNL     1       2.053  14.358  19.372  0.00  0.00    +0.000 Cl
ATOM     20 CL   UNL     1       1.224  15.150  22.041  0.00  0.00    +0.000 Cl
ENDBRANCH   1  18
BRANCH   1  21
ATOM     21  N   UNL     1      -1.258  12.896  21.250  0.00  0.00    +0.000 N 
ATOM     22  C   UNL     1      -1.605  12.357  22.469  0.00  0.00    +0.000 C 
ATOM     23  O   UNL     1      -0.805  11.810  23.216  0.00  0.00    +0.000 OA
ATOM     24  H   UNL     1      -1.960  13.282  20.637  0.00  0.00    +0.000 HD
BRANCH  22  25
ATOM     25  C   UNL     1      -3.027  12.481  22.865  0.00  0.00    +0.000 A 
ATOM     26  C   UNL     1      -3.386  12.296  24.208  0.00  0.00    +0.000 A 
ATOM     27  C   UNL     1      -4.706  12.521  24.609  0.00  0.00    +0.000 A 
ATOM     28  C   UNL     1      -5.653  12.930  23.668  0.00  0.00    +0.000 A 
ATOM     29 CL   UNL     1      -7.266  13.262  24.167  0.00  0.00    +0.000 Cl
ATOM     30  C   UNL     1      -5.302  13.102  22.330  0.00  0.00    +0.000 A 
ATOM     31  C   UNL     1      -3.985  12.878  21.928  0.00  0.00    +0.000 A 
ENDBRANCH  22  25
ENDBRANCH   1  21
TORSDOF 6
ENDMDL
MODEL 8
REMARK VINA RESULT:      -6.3      6.388      9.673
REMARK  Name = 
REMARK  7 active torsions:
REMARK  status: ('A' for Active; 'I' for Inactive)
REMARK    1  A    between atoms: C_1  and  C_2
REMARK    2  A    between atoms: C_2  and  C_5
REMARK    3  A    between atoms: C_5  and  N_6
REMARK    4  A    between atoms: C_5  and  N_16
REMARK    5  A    between atoms: C_7  and  C_9
REMARK    6  A    between atoms: N_18  and  C_19
REMARK    7  A    between atoms: N_21  and  C_22
REMARK                            x       y       z     vdW  Elec       q    Type
REMARK                         _______ _______ _______ _____ _____    ______ ____
ROOT
ATOM      1  C   UNL     1       0.950  12.452  19.716  0.00  0.00    +0.000 C 
ENDROOT
BRANCH   1   2
ATOM      2  N   UNL     1       0.481  11.832  18.477  0.00  0.00    +0.000 N 
ATOM      3  C   UNL     1       0.587  10.478  18.249  0.00  0.00    +0.000 C 
ATOM      4  N   UNL     1       1.589   9.866  18.786  0.00  0.00    +0.000 NA
ATOM      5  N   UNL     1      -0.410  10.003  17.405  0.00  0.00    +0.000 N 
ATOM      6  H   UNL     1       0.576  12.411  17.644  0.00  0.00    +0.000 HD
ATOM      7  H   UNL     1      -0.330   9.057  17.041  0.00  0.00    +0.000 HD
BRANCH   5   8
ATOM      8  C   UNL     1      -1.721  10.535  17.313  0.00  0.00    +0.000 A 
ATOM      9  C   UNL     1      -2.470  10.803  18.459  0.00  0.00    +0.000 A 
ATOM     10  C   UNL     1      -3.844  11.054  18.350  0.00  0.00    +0.000 A 
ATOM     11  C   UNL     1      -4.424  11.075  17.092  0.00  0.00    +0.000 A 
ATOM     12  F   UNL     1      -5.751  11.222  16.994  0.00  0.00    +0.000 F 
ATOM     13  N   UNL     1      -3.730  10.914  15.953  0.00  0.00    +0.000 NA
ATOM     14  C   UNL     1      -2.407  10.668  16.100  0.00  0.00    +0.000 A 
ENDBRANCH   5   8
BRANCH   4  15
ATOM     15  C   UNL     1       1.818   8.556  18.629  0.00  0.00    +0.000 C 
ATOM     16  N   UNL     1       2.015   7.424  18.563  0.00  0.00    +0.000 NA
ENDBRANCH   4  15
ENDBRANCH   1   2
BRANCH   1  18
ATOM     17  C   UNL     1       2.770  13.519  18.224  0.00  0.00    +0.000 C 
ATOM     18  C   UNL     1       1.917  13.665  19.483  0.00  0.00    +0.000 C 
ATOM     19 CL   UNL     1       3.035  13.904  20.876  0.00  0.00    +0.000 Cl
ATOM     20 CL   UNL     1       0.943  15.191  19.325  0.00  0.00    +0.000 Cl
ENDBRANCH   1  18
BRANCH   1  21
ATOM     21  N   UNL     1      -0.291  12.816  20.379  0.00  0.00    +0.000 N 
ATOM     22  C   UNL     1      -0.889  11.979  21.295  0.00  0.00    +0.000 C 
ATOM     23  O   UNL     1      -0.474  10.858  21.554  0.00  0.00    +0.000 OA
ATOM     24  H   UNL     1      -0.702  13.709  20.150  0.00  0.00    +0.000 HD
BRANCH  22  25
ATOM     25  C   UNL     1      -2.086  12.508  21.990  0.00  0.00    +0.000 A 
ATOM     26  C   UNL     1      -2.906  13.439  21.337  0.00  0.00    +0.000 A 
ATOM     27  C   UNL     1      -4.095  13.857  21.941  0.00  0.00    +0.000 A 
ATOM     28  C   UNL     1      -4.456  13.340  23.187  0.00  0.00    +0.000 A 
ATOM     29 CL   UNL     1      -5.946  13.809  23.908  0.00  0.00    +0.000 Cl
ATOM     30  C   UNL     1      -3.637  12.425  23.844  0.00  0.00    +0.000 A 
ATOM     31  C   UNL     1      -2.448  12.006  23.243  0.00  0.00    +0.000 A 
ENDBRANCH  22  25
ENDBRANCH   1  21
TORSDOF 6
ENDMDL
MODEL 9
REMARK VINA RESULT:      -6.3      7.734     10.519
REMARK  Name = 
REMARK  7 active torsions:
REMARK  status: ('A' for Active; 'I' for Inactive)
REMARK    1  A    between atoms: C_1  and  C_2
REMARK    2  A    between atoms: C_2  and  C_5
REMARK    3  A    between atoms: C_5  and  N_6
REMARK    4  A    between atoms: C_5  and  N_16
REMARK    5  A    between atoms: C_7  and  C_9
REMARK    6  A    between atoms: N_18  and  C_19
REMARK    7  A    between atoms: N_21  and  C_22
REMARK                            x       y       z     vdW  Elec       q    Type
REMARK                         _______ _______ _______ _____ _____    ______ ____
ROOT
ATOM      1  C   UNL     1       0.079  10.566  20.751  0.00  0.00    +0.000 C 
ENDROOT
BRANCH   1   2
ATOM      2  N   UNL     1      -0.711  11.335  21.712  0.00  0.00    +0.000 N 
ATOM      3  C   UNL     1      -0.535  12.690  21.888  0.00  0.00    +0.000 C 
ATOM      4  N   UNL     1       0.653  13.160  21.699  0.00  0.00    +0.000 NA
ATOM      5  N   UNL     1      -1.699  13.324  22.304  0.00  0.00    +0.000 N 
ATOM      6  H   UNL     1      -0.970  10.828  22.557  0.00  0.00    +0.000 HD
ATOM      7  H   UNL     1      -1.641  14.290  22.620  0.00  0.00    +0.000 HD
BRANCH   5   8
ATOM      8  C   UNL     1      -3.015  12.920  21.963  0.00  0.00    +0.000 A 
ATOM      9  C   UNL     1      -3.459  12.958  20.641  0.00  0.00    +0.000 A 
ATOM     10  C   UNL     1      -4.826  12.830  20.362  0.00  0.00    +0.000 A 
ATOM     11  C   UNL     1      -5.707  12.622  21.410  0.00  0.00    +0.000 A 
ATOM     12  F   UNL     1      -7.022  12.593  21.154  0.00  0.00    +0.000 F 
ATOM     13  N   UNL     1      -5.320  12.486  22.689  0.00  0.00    +0.000 NA
ATOM     14  C   UNL     1      -3.993  12.622  22.919  0.00  0.00    +0.000 A 
ENDBRANCH   5   8
BRANCH   4  15
ATOM     15  C   UNL     1       0.962  14.453  21.854  0.00  0.00    +0.000 C 
ATOM     16  N   UNL     1       1.162  15.581  21.967  0.00  0.00    +0.000 NA
ENDBRANCH   4  15
ENDBRANCH   1   2
BRANCH   1  18
ATOM     17  C   UNL     1       1.571   9.489  22.566  0.00  0.00    +0.000 C 
ATOM     18  C   UNL     1       0.681   9.245  21.348  0.00  0.00    +0.000 C 
ATOM     19 CL   UNL     1       1.659   8.348  20.128  0.00  0.00    +0.000 Cl
ATOM     20 CL   UNL     1      -0.669   8.141  21.854  0.00  0.00    +0.000 Cl
ENDBRANCH   1  18
BRANCH   1  21
ATOM     21  N   UNL     1      -0.868  10.336  19.673  0.00  0.00    +0.000 N 
ATOM     22  C   UNL     1      -1.008  11.233  18.637  0.00  0.00    +0.000 C 
ATOM     23  O   UNL     1      -0.419  12.304  18.588  0.00  0.00    +0.000 OA
ATOM     24  H   UNL     1      -1.421   9.493  19.704  0.00  0.00    +0.000 HD
BRANCH  22  25
ATOM     25  C   UNL     1      -1.920  10.836  17.538  0.00  0.00    +0.000 A 
ATOM     26  C   UNL     1      -3.056  11.614  17.271  0.00  0.00    +0.000 A 
ATOM     27  C   UNL     1      -3.858  11.311  16.167  0.00  0.00    +0.000 A 
ATOM     28  C   UNL     1      -3.518  10.239  15.340  0.00  0.00    +0.000 A 
ATOM     29 CL   UNL     1      -4.471   9.897  13.948  0.00  0.00    +0.000 Cl
ATOM     30  C   UNL     1      -2.397   9.457  15.610  0.00  0.00    +0.000 A 
ATOM     31  C   UNL     1      -1.594   9.757  16.712  0.00  0.00    +0.000 A 
ENDBRANCH  22  25
ENDBRANCH   1  21
TORSDOF 6
ENDMDL
