MODEL 1
REMARK VINA RESULT:      -6.8      0.000      0.000
REMARK  Name = 
REMARK  8 active torsions:
REMARK  status: ('A' for Active; 'I' for Inactive)
REMARK    1  A    between atoms: C_1  and  C_2
REMARK    2  A    between atoms: C_2  and  C_3
REMARK    3  A    between atoms: C_3  and  C_4
REMARK    4  A    between atoms: C_4  and  C_5
REMARK    5  A    between atoms: C_5  and  C_6
REMARK    6  A    between atoms: C_6  and  C_7
REMARK    7  A    between atoms: C_6  and  C_8
REMARK    8  A    between atoms: C_8  and  C_9
REMARK                            x       y       z     vdW  Elec       q    Type
REMARK                         _______ _______ _______ _____ _____    ______ ____
ROOT
ATOM      1  C   UNL     1       3.636   4.211  18.122  0.00  0.00    +0.000 C 
ATOM      2  C   UNL     1       4.778   4.390  19.104  0.00  0.00    +0.000 C 
ATOM      3  O   UNL     1       5.231   5.493  19.405  0.00  0.00    +0.000 OA
ATOM      4  N   UNL     1       5.307   3.263  19.658  0.00  0.00    +0.000 N 
ATOM      5  C   UNL     1       4.773   2.014  19.592  0.00  0.00    +0.000 C 
ATOM      6  O   UNL     1       5.157   1.113  20.329  0.00  0.00    +0.000 OA
ATOM      7  N   UNL     1       3.768   1.824  18.700  0.00  0.00    +0.000 N 
ATOM      8  C   UNL     1       3.146   2.784  17.957  0.00  0.00    +0.000 C 
ATOM      9  O   UNL     1       2.230   2.475  17.201  0.00  0.00    +0.000 OA
ATOM     10  H   UNL     1       6.022   3.404  20.355  0.00  0.00    +0.000 HD
ATOM     11  H   UNL     1       3.396   0.888  18.629  0.00  0.00    +0.000 HD
ENDROOT
BRANCH   1  12
ATOM     12  C   UNL     1       4.169   4.702  16.739  0.00  0.00    +0.000 C 
BRANCH  12  14
ATOM     13  C   UNL     1       5.698   4.235  14.765  0.00  0.00    +0.000 C 
ATOM     14  C   UNL     1       5.369   3.894  16.209  0.00  0.00    +0.000 C 
ENDBRANCH  12  14
ENDBRANCH   1  12
BRANCH   1  15
ATOM     15  C   UNL     1       2.418   5.087  18.559  0.00  0.00    +0.000 C 
BRANCH  15  16
ATOM     16  C   UNL     1       2.053   5.125  20.079  0.00  0.00    +0.000 C 
ATOM     17  C   UNL     1       1.628   6.513  20.569  0.00  0.00    +0.000 C 
BRANCH  16  18
ATOM     18  C   UNL     1       0.933   4.090  20.351  0.00  0.00    +0.000 C 
ATOM     19  C   UNL     1       1.356   2.916  21.229  0.00  0.00    +0.000 C 
ENDBRANCH  16  18
ENDBRANCH  15  16
ENDBRANCH   1  15
TORSDOF 5
ENDMDL
MODEL 2
REMARK VINA RESULT:      -6.7      2.859      5.716
REMARK  Name = 
REMARK  8 active torsions:
REMARK  status: ('A' for Active; 'I' for Inactive)
REMARK    1  A    between atoms: C_1  and  C_2
REMARK    2  A    between atoms: C_2  and  C_3
REMARK    3  A    between atoms: C_3  and  C_4
REMARK    4  A    between atoms: C_4  and  C_5
REMARK    5  A    between atoms: C_5  and  C_6
REMARK    6  A    between atoms: C_6  and  C_7
REMARK    7  A    between atoms: C_6  and  C_8
REMARK    8  A    between atoms: C_8  and  C_9
REMARK                            x       y       z     vdW  Elec       q    Type
REMARK                         _______ _______ _______ _____ _____    ______ ____
ROOT
ATOM      1  C   UNL     1       6.161   5.273  16.921  0.00  0.00    +0.000 C 
ATOM      2  C   UNL     1       5.661   4.402  18.058  0.00  0.00    +0.000 C 
ATOM      3  O   UNL     1       4.823   3.516  17.900  0.00  0.00    +0.000 OA
ATOM      4  N   UNL     1       6.178   4.638  19.297  0.00  0.00    +0.000 N 
ATOM      5  C   UNL     1       7.254   5.419  19.578  0.00  0.00    +0.000 C 
ATOM      6  O   UNL     1       7.816   5.370  20.667  0.00  0.00    +0.000 OA
ATOM      7  N   UNL     1       7.702   6.227  18.583  0.00  0.00    +0.000 N 
ATOM      8  C   UNL     1       7.269   6.240  17.290  0.00  0.00    +0.000 C 
ATOM      9  O   UNL     1       7.780   7.012  16.483  0.00  0.00    +0.000 OA
ATOM     10  H   UNL     1       5.882   4.009  20.028  0.00  0.00    +0.000 HD
ATOM     11  H   UNL     1       8.480   6.831  18.805  0.00  0.00    +0.000 HD
ENDROOT
BRANCH   1  12
ATOM     12  C   UNL     1       4.932   6.106  16.438  0.00  0.00    +0.000 C 
BRANCH  12  14
ATOM     13  C   UNL     1       2.982   6.758  17.930  0.00  0.00    +0.000 C 
ATOM     14  C   UNL     1       4.397   7.097  17.489  0.00  0.00    +0.000 C 
ENDBRANCH  12  14
ENDBRANCH   1  12
BRANCH   1  15
ATOM     15  C   UNL     1       6.680   4.373  15.753  0.00  0.00    +0.000 C 
BRANCH  15  16
ATOM     16  C   UNL     1       6.366   4.823  14.289  0.00  0.00    +0.000 C 
ATOM     17  C   UNL     1       7.619   5.128  13.463  0.00  0.00    +0.000 C 
BRANCH  16  18
ATOM     18  C   UNL     1       5.519   3.725  13.598  0.00  0.00    +0.000 C 
ATOM     19  C   UNL     1       6.019   3.317  12.216  0.00  0.00    +0.000 C 
ENDBRANCH  16  18
ENDBRANCH  15  16
ENDBRANCH   1  15
TORSDOF 5
ENDMDL
MODEL 3
REMARK VINA RESULT:      -6.6      2.495      3.678
REMARK  Name = 
REMARK  8 active torsions:
REMARK  status: ('A' for Active; 'I' for Inactive)
REMARK    1  A    between atoms: C_1  and  C_2
REMARK    2  A    between atoms: C_2  and  C_3
REMARK    3  A    between atoms: C_3  and  C_4
REMARK    4  A    between atoms: C_4  and  C_5
REMARK    5  A    between atoms: C_5  and  C_6
REMARK    6  A    between atoms: C_6  and  C_7
REMARK    7  A    between atoms: C_6  and  C_8
REMARK    8  A    between atoms: C_8  and  C_9
REMARK                            x       y       z     vdW  Elec       q    Type
REMARK                         _______ _______ _______ _____ _____    ______ ____
ROOT
ATOM      1  C   UNL     1       5.056   5.209  17.109  0.00  0.00    +0.000 C 
ATOM      2  C   UNL     1       5.574   6.427  16.369  0.00  0.00    +0.000 C 
ATOM      3  O   UNL     1       4.998   6.911  15.396  0.00  0.00    +0.000 OA
ATOM      4  N   UNL     1       6.733   6.985  16.821  0.00  0.00    +0.000 N 
ATOM      5  C   UNL     1       7.351   6.700  17.998  0.00  0.00    +0.000 C 
ATOM      6  O   UNL     1       8.229   7.423  18.453  0.00  0.00    +0.000 OA
ATOM      7  N   UNL     1       6.922   5.597  18.664  0.00  0.00    +0.000 N 
ATOM      8  C   UNL     1       5.846   4.822  18.345  0.00  0.00    +0.000 C 
ATOM      9  O   UNL     1       5.554   3.861  19.051  0.00  0.00    +0.000 OA
ATOM     10  H   UNL     1       7.029   7.830  16.357  0.00  0.00    +0.000 HD
ATOM     11  H   UNL     1       7.405   5.368  19.521  0.00  0.00    +0.000 HD
ENDROOT
BRANCH   1  12
ATOM     12  C   UNL     1       5.128   4.021  16.097  0.00  0.00    +0.000 C 
BRANCH  12  14
ATOM     13  C   UNL     1       6.201   3.879  13.799  0.00  0.00    +0.000 C 
ATOM     14  C   UNL     1       6.443   3.960  15.298  0.00  0.00    +0.000 C 
ENDBRANCH  12  14
ENDBRANCH   1  12
BRANCH   1  15
ATOM     15  C   UNL     1       3.573   5.444  17.542  0.00  0.00    +0.000 C 
BRANCH  15  16
ATOM     16  C   UNL     1       3.289   6.557  18.603  0.00  0.00    +0.000 C 
ATOM     17  C   UNL     1       2.855   7.890  17.985  0.00  0.00    +0.000 C 
BRANCH  16  18
ATOM     18  C   UNL     1       2.212   6.044  19.591  0.00  0.00    +0.000 C 
ATOM     19  C   UNL     1       2.653   4.861  20.448  0.00  0.00    +0.000 C 
ENDBRANCH  16  18
ENDBRANCH  15  16
ENDBRANCH   1  15
TORSDOF 5
ENDMDL
MODEL 4
REMARK VINA RESULT:      -6.6      1.482      2.166
REMARK  Name = 
REMARK  8 active torsions:
REMARK  status: ('A' for Active; 'I' for Inactive)
REMARK    1  A    between atoms: C_1  and  C_2
REMARK    2  A    between atoms: C_2  and  C_3
REMARK    3  A    between atoms: C_3  and  C_4
REMARK    4  A    between atoms: C_4  and  C_5
REMARK    5  A    between atoms: C_5  and  C_6
REMARK    6  A    between atoms: C_6  and  C_7
REMARK    7  A    between atoms: C_6  and  C_8
REMARK    8  A    between atoms: C_8  and  C_9
REMARK                            x       y       z     vdW  Elec       q    Type
REMARK                         _______ _______ _______ _____ _____    ______ ____
ROOT
ATOM      1  C   UNL     1       3.993   4.635  17.826  0.00  0.00    +0.000 C 
ATOM      2  C   UNL     1       4.708   5.971  17.765  0.00  0.00    +0.000 C 
ATOM      3  O   UNL     1       4.263   6.937  17.147  0.00  0.00    +0.000 OA
ATOM      4  N   UNL     1       5.894   6.074  18.429  0.00  0.00    +0.000 N 
ATOM      5  C   UNL     1       6.391   5.177  19.321  0.00  0.00    +0.000 C 
ATOM      6  O   UNL     1       7.320   5.462  20.068  0.00  0.00    +0.000 OA
ATOM      7  N   UNL     1       5.783   3.964  19.373  0.00  0.00    +0.000 N 
ATOM      8  C   UNL     1       4.643   3.596  18.720  0.00  0.00    +0.000 C 
ATOM      9  O   UNL     1       4.187   2.467  18.876  0.00  0.00    +0.000 OA
ATOM     10  H   UNL     1       6.323   6.987  18.430  0.00  0.00    +0.000 HD
ATOM     11  H   UNL     1       6.175   3.288  20.012  0.00  0.00    +0.000 HD
ENDROOT
BRANCH   1  12
ATOM     12  C   UNL     1       3.984   4.078  16.366  0.00  0.00    +0.000 C 
BRANCH  12  14
ATOM     13  C   UNL     1       5.615   4.502  14.465  0.00  0.00    +0.000 C 
ATOM     14  C   UNL     1       5.388   3.801  15.795  0.00  0.00    +0.000 C 
ENDBRANCH  12  14
ENDBRANCH   1  12
BRANCH   1  15
ATOM     15  C   UNL     1       2.525   4.841  18.320  0.00  0.00    +0.000 C 
BRANCH  15  16
ATOM     16  C   UNL     1       2.271   4.866  19.863  0.00  0.00    +0.000 C 
ATOM     17  C   UNL     1       1.888   6.251  20.395  0.00  0.00    +0.000 C 
BRANCH  16  18
ATOM     18  C   UNL     1       1.168   3.833  20.205  0.00  0.00    +0.000 C 
ATOM     19  C   UNL     1       1.450   2.997  21.450  0.00  0.00    +0.000 C 
ENDBRANCH  16  18
ENDBRANCH  15  16
ENDBRANCH   1  15
TORSDOF 5
ENDMDL
MODEL 5
REMARK VINA RESULT:      -6.5      1.877      4.944
REMARK  Name = 
REMARK  8 active torsions:
REMARK  status: ('A' for Active; 'I' for Inactive)
REMARK    1  A    between atoms: C_1  and  C_2
REMARK    2  A    between atoms: C_2  and  C_3
REMARK    3  A    between atoms: C_3  and  C_4
REMARK    4  A    between atoms: C_4  and  C_5
REMARK    5  A    between atoms: C_5  and  C_6
REMARK    6  A    between atoms: C_6  and  C_7
REMARK    7  A    between atoms: C_6  and  C_8
REMARK    8  A    between atoms: C_8  and  C_9
REMARK                            x       y       z     vdW  Elec       q    Type
REMARK                         _______ _______ _______ _____ _____    ______ ____
ROOT
ATOM      1  C   UNL     1       4.702   4.189  17.209  0.00  0.00    +0.000 C 
ATOM      2  C   UNL     1       3.394   3.494  17.531  0.00  0.00    +0.000 C 
ATOM      3  O   UNL     1       2.478   3.387  16.717  0.00  0.00    +0.000 OA
ATOM      4  N   UNL     1       3.254   2.977  18.785  0.00  0.00    +0.000 N 
ATOM      5  C   UNL     1       4.247   2.826  19.701  0.00  0.00    +0.000 C 
ATOM      6  O   UNL     1       4.102   2.118  20.692  0.00  0.00    +0.000 OA
ATOM      7  N   UNL     1       5.418   3.463  19.447  0.00  0.00    +0.000 N 
ATOM      8  C   UNL     1       5.750   4.129  18.304  0.00  0.00    +0.000 C 
ATOM      9  O   UNL     1       6.860   4.643  18.198  0.00  0.00    +0.000 OA
ATOM     10  H   UNL     1       2.404   2.464  18.961  0.00  0.00    +0.000 HD
ATOM     11  H   UNL     1       6.142   3.376  20.146  0.00  0.00    +0.000 HD
ENDROOT
BRANCH   1  12
ATOM     12  C   UNL     1       4.349   5.690  16.960  0.00  0.00    +0.000 C 
BRANCH  12  14
ATOM     13  C   UNL     1       3.074   7.732  17.770  0.00  0.00    +0.000 C 
ATOM     14  C   UNL     1       3.629   6.367  18.142  0.00  0.00    +0.000 C 
ENDBRANCH  12  14
ENDBRANCH   1  12
BRANCH   1  15
ATOM     15  C   UNL     1       5.326   3.573  15.916  0.00  0.00    +0.000 C 
BRANCH  15  16
ATOM     16  C   UNL     1       5.673   4.542  14.738  0.00  0.00    +0.000 C 
ATOM     17  C   UNL     1       7.154   4.928  14.684  0.00  0.00    +0.000 C 
BRANCH  16  18
ATOM     18  C   UNL     1       5.237   3.885  13.404  0.00  0.00    +0.000 C 
ATOM     19  C   UNL     1       6.387   3.558  12.456  0.00  0.00    +0.000 C 
ENDBRANCH  16  18
ENDBRANCH  15  16
ENDBRANCH   1  15
TORSDOF 5
ENDMDL
MODEL 6
REMARK VINA RESULT:      -6.4      2.453      3.627
REMARK  Name = 
REMARK  8 active torsions:
REMARK  status: ('A' for Active; 'I' for Inactive)
REMARK    1  A    between atoms: C_1  and  C_2
REMARK    2  A    between atoms: C_2  and  C_3
REMARK    3  A    between atoms: C_3  and  C_4
REMARK    4  A    between atoms: C_4  and  C_5
REMARK    5  A    between atoms: C_5  and  C_6
REMARK    6  A    between atoms: C_6  and  C_7
REMARK    7  A    between atoms: C_6  and  C_8
REMARK    8  A    between atoms: C_8  and  C_9
REMARK                            x       y       z     vdW  Elec       q    Type
REMARK                         _______ _______ _______ _____ _____    ______ ____
ROOT
ATOM      1  C   UNL     1       5.006   5.372  17.255  0.00  0.00    +0.000 C 
ATOM      2  C   UNL     1       5.554   6.546  16.467  0.00  0.00    +0.000 C 
ATOM      3  O   UNL     1       4.968   7.031  15.500  0.00  0.00    +0.000 OA
ATOM      4  N   UNL     1       6.750   7.062  16.868  0.00  0.00    +0.000 N 
ATOM      5  C   UNL     1       7.393   6.779  18.032  0.00  0.00    +0.000 C 
ATOM      6  O   UNL     1       8.317   7.474  18.439  0.00  0.00    +0.000 OA
ATOM      7  N   UNL     1       6.937   5.715  18.740  0.00  0.00    +0.000 N 
ATOM      8  C   UNL     1       5.818   4.981  18.476  0.00  0.00    +0.000 C 
ATOM      9  O   UNL     1       5.507   4.053  19.217  0.00  0.00    +0.000 OA
ATOM     10  H   UNL     1       7.068   7.881  16.372  0.00  0.00    +0.000 HD
ATOM     11  H   UNL     1       7.437   5.487  19.587  0.00  0.00    +0.000 HD
ENDROOT
BRANCH   1  12
ATOM     12  C   UNL     1       4.992   4.157  16.275  0.00  0.00    +0.000 C 
BRANCH  12  14
ATOM     13  C   UNL     1       6.167   3.861  14.042  0.00  0.00    +0.000 C 
ATOM     14  C   UNL     1       6.332   3.922  15.552  0.00  0.00    +0.000 C 
ENDBRANCH  12  14
ENDBRANCH   1  12
BRANCH   1  15
ATOM     15  C   UNL     1       3.551   5.685  17.729  0.00  0.00    +0.000 C 
BRANCH  15  16
ATOM     16  C   UNL     1       2.846   4.646  18.661  0.00  0.00    +0.000 C 
ATOM     17  C   UNL     1       2.286   5.262  19.947  0.00  0.00    +0.000 C 
BRANCH  16  18
ATOM     18  C   UNL     1       1.719   3.942  17.864  0.00  0.00    +0.000 C 
ATOM     19  C   UNL     1       1.007   2.828  18.626  0.00  0.00    +0.000 C 
ENDBRANCH  16  18
ENDBRANCH  15  16
ENDBRANCH   1  15
TORSDOF 5
ENDMDL
MODEL 7
REMARK VINA RESULT:      -6.4      2.398      3.374
REMARK  Name = 
REMARK  8 active torsions:
REMARK  status: ('A' for Active; 'I' for Inactive)
REMARK    1  A    between atoms: C_1  and  C_2
REMARK    2  A    between atoms: C_2  and  C_3
REMARK    3  A    between atoms: C_3  and  C_4
REMARK    4  A    between atoms: C_4  and  C_5
REMARK    5  A    between atoms: C_5  and  C_6
REMARK    6  A    between atoms: C_6  and  C_7
REMARK    7  A    between atoms: C_6  and  C_8
REMARK    8  A    between atoms: C_8  and  C_9
REMARK                            x       y       z     vdW  Elec       q    Type
REMARK                         _______ _______ _______ _____ _____    ______ ____
ROOT
ATOM      1  C   UNL     1       5.975   5.563  16.834  0.00  0.00    +0.000 C 
ATOM      2  C   UNL     1       6.915   6.640  17.342  0.00  0.00    +0.000 C 
ATOM      3  O   UNL     1       7.092   7.703  16.752  0.00  0.00    +0.000 OA
ATOM      4  N   UNL     1       7.581   6.387  18.505  0.00  0.00    +0.000 N 
ATOM      5  C   UNL     1       7.323   5.369  19.368  0.00  0.00    +0.000 C 
ATOM      6  O   UNL     1       7.779   5.362  20.506  0.00  0.00    +0.000 OA
ATOM      7  N   UNL     1       6.506   4.380  18.924  0.00  0.00    +0.000 N 
ATOM      8  C   UNL     1       5.809   4.366  17.751  0.00  0.00    +0.000 C 
ATOM      9  O   UNL     1       5.085   3.413  17.482  0.00  0.00    +0.000 OA
ATOM     10  H   UNL     1       8.153   7.138  18.860  0.00  0.00    +0.000 HD
ATOM     11  H   UNL     1       6.344   3.608  19.554  0.00  0.00    +0.000 HD
ENDROOT
BRANCH   1  12
ATOM     12  C   UNL     1       6.579   5.059  15.485  0.00  0.00    +0.000 C 
BRANCH  12  14
ATOM     13  C   UNL     1       6.125   3.785  13.334  0.00  0.00    +0.000 C 
ATOM     14  C   UNL     1       5.523   4.622  14.452  0.00  0.00    +0.000 C 
ENDBRANCH  12  14
ENDBRANCH   1  12
BRANCH   1  15
ATOM     15  C   UNL     1       4.558   6.173  16.582  0.00  0.00    +0.000 C 
BRANCH  15  16
ATOM     16  C   UNL     1       3.699   6.564  17.828  0.00  0.00    +0.000 C 
ATOM     17  C   UNL     1       3.149   7.993  17.765  0.00  0.00    +0.000 C 
BRANCH  16  18
ATOM     18  C   UNL     1       2.540   5.546  17.977  0.00  0.00    +0.000 C 
ATOM     19  C   UNL     1       2.330   5.032  19.398  0.00  0.00    +0.000 C 
ENDBRANCH  16  18
ENDBRANCH  15  16
ENDBRANCH   1  15
TORSDOF 5
ENDMDL
MODEL 8
REMARK VINA RESULT:      -6.4      3.403      4.677
REMARK  Name = 
REMARK  8 active torsions:
REMARK  status: ('A' for Active; 'I' for Inactive)
REMARK    1  A    between atoms: C_1  and  C_2
REMARK    2  A    between atoms: C_2  and  C_3
REMARK    3  A    between atoms: C_3  and  C_4
REMARK    4  A    between atoms: C_4  and  C_5
REMARK    5  A    between atoms: C_5  and  C_6
REMARK    6  A    between atoms: C_6  and  C_7
REMARK    7  A    between atoms: C_6  and  C_8
REMARK    8  A    between atoms: C_8  and  C_9
REMARK                            x       y       z     vdW  Elec       q    Type
REMARK                         _______ _______ _______ _____ _____    ______ ____
ROOT
ATOM      1  C   UNL     1       6.479   5.801  17.842  0.00  0.00    +0.000 C 
ATOM      2  C   UNL     1       7.414   4.729  17.316  0.00  0.00    +0.000 C 
ATOM      3  O   UNL     1       8.145   4.065  18.048  0.00  0.00    +0.000 OA
ATOM      4  N   UNL     1       7.425   4.518  15.969  0.00  0.00    +0.000 N 
ATOM      5  C   UNL     1       6.527   5.012  15.075  0.00  0.00    +0.000 C 
ATOM      6  O   UNL     1       6.446   4.567  13.936  0.00  0.00    +0.000 OA
ATOM      7  N   UNL     1       5.699   5.992  15.517  0.00  0.00    +0.000 N 
ATOM      8  C   UNL     1       5.581   6.441  16.800  0.00  0.00    +0.000 C 
ATOM      9  O   UNL     1       4.770   7.323  17.067  0.00  0.00    +0.000 OA
ATOM     10  H   UNL     1       8.005   3.760  15.644  0.00  0.00    +0.000 HD
ATOM     11  H   UNL     1       5.056   6.381  14.843  0.00  0.00    +0.000 HD
ENDROOT
BRANCH   1  12
ATOM     12  C   UNL     1       7.391   6.917  18.445  0.00  0.00    +0.000 C 
BRANCH  12  14
ATOM     13  C   UNL     1       8.319   9.253  18.080  0.00  0.00    +0.000 C 
ATOM     14  C   UNL     1       7.859   7.964  17.417  0.00  0.00    +0.000 C 
ENDBRANCH  12  14
ENDBRANCH   1  12
BRANCH   1  15
ATOM     15  C   UNL     1       5.565   5.205  18.960  0.00  0.00    +0.000 C 
BRANCH  15  16
ATOM     16  C   UNL     1       4.478   4.163  18.538  0.00  0.00    +0.000 C 
ATOM     17  C   UNL     1       4.518   2.873  19.362  0.00  0.00    +0.000 C 
BRANCH  16  18
ATOM     18  C   UNL     1       3.082   4.827  18.642  0.00  0.00    +0.000 C 
ATOM     19  C   UNL     1       2.017   4.202  17.745  0.00  0.00    +0.000 C 
ENDBRANCH  16  18
ENDBRANCH  15  16
ENDBRANCH   1  15
TORSDOF 5
ENDMDL
MODEL 9
REMARK VINA RESULT:      -6.4      3.089      4.639
REMARK  Name = 
REMARK  8 active torsions:
REMARK  status: ('A' for Active; 'I' for Inactive)
REMARK    1  A    between atoms: C_1  and  C_2
REMARK    2  A    between atoms: C_2  and  C_3
REMARK    3  A    between atoms: C_3  and  C_4
REMARK    4  A    between atoms: C_4  and  C_5
REMARK    5  A    between atoms: C_5  and  C_6
REMARK    6  A    between atoms: C_6  and  C_7
REMARK    7  A    between atoms: C_6  and  C_8
REMARK    8  A    between atoms: C_8  and  C_9
REMARK                            x       y       z     vdW  Elec       q    Type
REMARK                         _______ _______ _______ _____ _____    ______ ____
ROOT
ATOM      1  C   UNL     1       6.117   5.608  17.931  0.00  0.00    +0.000 C 
ATOM      2  C   UNL     1       5.634   6.809  17.142  0.00  0.00    +0.000 C 
ATOM      3  O   UNL     1       4.521   6.861  16.622  0.00  0.00    +0.000 OA
ATOM      4  N   UNL     1       6.493   7.860  17.017  0.00  0.00    +0.000 N 
ATOM      5  C   UNL     1       7.650   8.033  17.711  0.00  0.00    +0.000 C 
ATOM      6  O   UNL     1       8.224   9.116  17.740  0.00  0.00    +0.000 OA
ATOM      7  N   UNL     1       8.116   6.962  18.403  0.00  0.00    +0.000 N 
ATOM      8  C   UNL     1       7.477   5.770  18.584  0.00  0.00    +0.000 C 
ATOM      9  O   UNL     1       8.006   4.890  19.256  0.00  0.00    +0.000 OA
ATOM     10  H   UNL     1       6.133   8.674  16.543  0.00  0.00    +0.000 HD
ATOM     11  H   UNL     1       8.992   7.083  18.890  0.00  0.00    +0.000 HD
ENDROOT
BRANCH   1  12
ATOM     12  C   UNL     1       6.207   4.426  16.915  0.00  0.00    +0.000 C 
BRANCH  12  14
ATOM     13  C   UNL     1       6.420   4.172  14.396  0.00  0.00    +0.000 C 
ATOM     14  C   UNL     1       7.043   4.743  15.660  0.00  0.00    +0.000 C 
ENDBRANCH  12  14
ENDBRANCH   1  12
BRANCH   1  15
ATOM     15  C   UNL     1       5.086   5.261  19.053  0.00  0.00    +0.000 C 
BRANCH  15  16
ATOM     16  C   UNL     1       4.034   4.143  18.758  0.00  0.00    +0.000 C 
ATOM     17  C   UNL     1       4.141   2.941  19.701  0.00  0.00    +0.000 C 
BRANCH  16  18
ATOM     18  C   UNL     1       2.614   4.760  18.830  0.00  0.00    +0.000 C 
ATOM     19  C   UNL     1       1.669   4.303  17.723  0.00  0.00    +0.000 C 
ENDBRANCH  16  18
ENDBRANCH  15  16
ENDBRANCH   1  15
TORSDOF 5
ENDMDL
