MODEL 1
REMARK VINA RESULT:      -8.6      0.000      0.000
REMARK  Name = 
REMARK  6 active torsions:
REMARK  status: ('A' for Active; 'I' for Inactive)
REMARK    1  A    between atoms: C_1  and  C_2
REMARK    2  A    between atoms: C_8  and  C_9
REMARK    3  A    between atoms: C_13  and  C_14
REMARK    4  A    between atoms: C_18  and  N_19
REMARK    5  A    between atoms: N_22  and  C_23
REMARK    6  A    between atoms: C_23  and  C_24
REMARK                            x       y       z     vdW  Elec       q    Type
REMARK                         _______ _______ _______ _____ _____    ______ ____
ROOT
ATOM      1  C   UNL     1       2.348   6.234  19.215  0.00  0.00    +0.000 A 
ATOM      2  C   UNL     1       2.400   7.274  18.194  0.00  0.00    +0.000 A 
ATOM      3  C   UNL     1       1.919   8.491  18.461  0.00  0.00    +0.000 A 
ATOM      4  N   UNL     1       1.426   8.782  19.735  0.00  0.00    +0.000 N 
ATOM      5  C   UNL     1       0.892   9.964  20.241  0.00  0.00    +0.000 A 
ATOM      6  C   UNL     1       0.535   9.635  21.538  0.00  0.00    +0.000 A 
ATOM      7  N   UNL     1       0.842   8.331  21.846  0.00  0.00    +0.000 NA
ATOM      8  C   UNL     1       1.380   7.830  20.753  0.00  0.00    +0.000 A 
ATOM      9  C   UNL     1       1.861   6.514  20.449  0.00  0.00    +0.000 A 
ENDROOT
BRANCH   1  17
ATOM     10  C   UNL     1       5.249   5.498  19.227  0.00  0.00    +0.000 C 
ATOM     11  C   UNL     1       4.150   4.532  18.922  0.00  0.00    +0.000 A 
ATOM     12  C   UNL     1       4.401   3.189  18.747  0.00  0.00    +0.000 A 
ATOM     13  N   UNL     1       3.441   2.263  18.580  0.00  0.00    +0.000 NA
ATOM     14  C   UNL     1       2.180   2.700  18.593  0.00  0.00    +0.000 A 
ATOM     15  N   UNL     1       1.179   1.757  18.520  0.00  0.00    +0.000 N 
ATOM     16  N   UNL     1       1.817   3.977  18.695  0.00  0.00    +0.000 NA
ATOM     17  C   UNL     1       2.807   4.877  18.866  0.00  0.00    +0.000 A 
ATOM     18  H   UNL     1       1.520   0.915  18.081  0.00  0.00    +0.000 HD
ATOM     19  H   UNL     1       0.328   2.170  18.168  0.00  0.00    +0.000 HD
ENDBRANCH   1  17
BRANCH   5  20
ATOM     20  C   UNL     1       0.693  11.183  19.448  0.00  0.00    +0.000 A 
ATOM     21  C   UNL     1      -0.572  11.785  19.392  0.00  0.00    +0.000 A 
ATOM     22  C   UNL     1      -0.717  13.085  18.927  0.00  0.00    +0.000 A 
ATOM     23  C   UNL     1       0.386  13.758  18.412  0.00  0.00    +0.000 A 
ATOM     24  C   UNL     1       1.627  13.127  18.306  0.00  0.00    +0.000 A 
ATOM     25  C   UNL     1       1.779  11.837  18.840  0.00  0.00    +0.000 A 
BRANCH  24  26
ATOM     26  N   UNL     1       2.748  13.751  17.705  0.00  0.00    +0.000 N 
ATOM     27  C   UNL     1       3.800  14.336  18.377  0.00  0.00    +0.000 C 
ATOM     28  O   UNL     1       3.950  14.430  19.586  0.00  0.00    +0.000 OA
ATOM     29  N   UNL     1       4.722  14.895  17.520  0.00  0.00    +0.000 N 
ATOM     30  H   UNL     1       2.704  13.907  16.709  0.00  0.00    +0.000 HD
ATOM     31  H   UNL     1       4.829  14.452  16.620  0.00  0.00    +0.000 HD
BRANCH  29  32
ATOM     32  C   UNL     1       5.911  15.523  18.110  0.00  0.00    +0.000 C 
BRANCH  32  33
ATOM     33  C   UNL     1       7.210  14.704  18.059  0.00  0.00    +0.000 C 
ATOM     34  F   UNL     1       8.280  15.460  17.721  0.00  0.00    +0.000 F 
ATOM     35  F   UNL     1       7.472  14.186  19.286  0.00  0.00    +0.000 F 
ATOM     36  F   UNL     1       7.136  13.669  17.197  0.00  0.00    +0.000 F 
ENDBRANCH  32  33
ENDBRANCH  29  32
ENDBRANCH  24  26
ENDBRANCH   5  20
TORSDOF 5
ENDMDL
MODEL 2
REMARK VINA RESULT:      -8.6      5.495      6.829
REMARK  Name = 
REMARK  6 active torsions:
REMARK  status: ('A' for Active; 'I' for Inactive)
REMARK    1  A    between atoms: C_1  and  C_2
REMARK    2  A    between atoms: C_8  and  C_9
REMARK    3  A    between atoms: C_13  and  C_14
REMARK    4  A    between atoms: C_18  and  N_19
REMARK    5  A    between atoms: N_22  and  C_23
REMARK    6  A    between atoms: C_23  and  C_24
REMARK                            x       y       z     vdW  Elec       q    Type
REMARK                         _______ _______ _______ _____ _____    ______ ____
ROOT
ATOM      1  C   UNL     1       3.029   6.648  18.565  0.00  0.00    +0.000 A 
ATOM      2  C   UNL     1       2.860   7.865  17.780  0.00  0.00    +0.000 A 
ATOM      3  C   UNL     1       2.167   8.889  18.285  0.00  0.00    +0.000 A 
ATOM      4  N   UNL     1       1.661   8.816  19.584  0.00  0.00    +0.000 N 
ATOM      5  C   UNL     1       0.929   9.748  20.315  0.00  0.00    +0.000 A 
ATOM      6  C   UNL     1       0.673   9.100  21.512  0.00  0.00    +0.000 A 
ATOM      7  N   UNL     1       1.226   7.842  21.550  0.00  0.00    +0.000 NA
ATOM      8  C   UNL     1       1.820   7.685  20.384  0.00  0.00    +0.000 A 
ATOM      9  C   UNL     1       2.530   6.573  19.823  0.00  0.00    +0.000 A 
ENDROOT
BRANCH   1  17
ATOM     10  C   UNL     1       1.567   4.163  17.763  0.00  0.00    +0.000 C 
ATOM     11  C   UNL     1       3.028   4.373  17.537  0.00  0.00    +0.000 A 
ATOM     12  C   UNL     1       3.783   3.471  16.820  0.00  0.00    +0.000 A 
ATOM     13  N   UNL     1       5.073   3.664  16.495  0.00  0.00    +0.000 NA
ATOM     14  C   UNL     1       5.628   4.808  16.901  0.00  0.00    +0.000 A 
ATOM     15  N   UNL     1       6.918   5.067  16.497  0.00  0.00    +0.000 N 
ATOM     16  N   UNL     1       5.019   5.727  17.648  0.00  0.00    +0.000 NA
ATOM     17  C   UNL     1       3.724   5.501  17.951  0.00  0.00    +0.000 A 
ATOM     18  H   UNL     1       7.400   4.208  16.282  0.00  0.00    +0.000 HD
ATOM     19  H   UNL     1       7.361   5.721  17.125  0.00  0.00    +0.000 HD
ENDBRANCH   1  17
BRANCH   5  20
ATOM     20  C   UNL     1       0.486  11.044  19.786  0.00  0.00    +0.000 A 
ATOM     21  C   UNL     1       1.431  11.986  19.355  0.00  0.00    +0.000 A 
ATOM     22  C   UNL     1       1.047  13.063  18.569  0.00  0.00    +0.000 A 
ATOM     23  C   UNL     1      -0.300  13.270  18.295  0.00  0.00    +0.000 A 
ATOM     24  C   UNL     1      -1.280  12.441  18.845  0.00  0.00    +0.000 A 
ATOM     25  C   UNL     1      -0.878  11.315  19.583  0.00  0.00    +0.000 A 
BRANCH  24  26
ATOM     26  N   UNL     1      -2.665  12.675  18.662  0.00  0.00    +0.000 N 
ATOM     27  C   UNL     1      -3.601  11.728  18.301  0.00  0.00    +0.000 C 
ATOM     28  O   UNL     1      -3.409  10.544  18.070  0.00  0.00    +0.000 OA
ATOM     29  N   UNL     1      -4.861  12.265  18.161  0.00  0.00    +0.000 N 
ATOM     30  H   UNL     1      -2.968  13.637  18.653  0.00  0.00    +0.000 HD
ATOM     31  H   UNL     1      -5.083  13.055  18.749  0.00  0.00    +0.000 HD
BRANCH  29  32
ATOM     32  C   UNL     1      -5.958  11.353  17.811  0.00  0.00    +0.000 C 
BRANCH  32  33
ATOM     33  C   UNL     1      -6.861  10.898  18.969  0.00  0.00    +0.000 C 
ATOM     34  F   UNL     1      -7.327   9.640  18.791  0.00  0.00    +0.000 F 
ATOM     35  F   UNL     1      -6.151  10.890  20.126  0.00  0.00    +0.000 F 
ATOM     36  F   UNL     1      -7.917  11.717  19.154  0.00  0.00    +0.000 F 
ENDBRANCH  32  33
ENDBRANCH  29  32
ENDBRANCH  24  26
ENDBRANCH   5  20
TORSDOF 5
ENDMDL
MODEL 3
REMARK VINA RESULT:      -8.6      5.350      6.580
REMARK  Name = 
REMARK  6 active torsions:
REMARK  status: ('A' for Active; 'I' for Inactive)
REMARK    1  A    between atoms: C_1  and  C_2
REMARK    2  A    between atoms: C_8  and  C_9
REMARK    3  A    between atoms: C_13  and  C_14
REMARK    4  A    between atoms: C_18  and  N_19
REMARK    5  A    between atoms: N_22  and  C_23
REMARK    6  A    between atoms: C_23  and  C_24
REMARK                            x       y       z     vdW  Elec       q    Type
REMARK                         _______ _______ _______ _____ _____    ______ ____
ROOT
ATOM      1  C   UNL     1       2.572   6.555  18.570  0.00  0.00    +0.000 A 
ATOM      2  C   UNL     1       2.321   7.709  17.714  0.00  0.00    +0.000 A 
ATOM      3  C   UNL     1       1.780   8.814  18.232  0.00  0.00    +0.000 A 
ATOM      4  N   UNL     1       1.513   8.885  19.601  0.00  0.00    +0.000 N 
ATOM      5  C   UNL     1       0.969   9.920  20.356  0.00  0.00    +0.000 A 
ATOM      6  C   UNL     1       0.902   9.395  21.636  0.00  0.00    +0.000 A 
ATOM      7  N   UNL     1       1.393   8.113  21.697  0.00  0.00    +0.000 NA
ATOM      8  C   UNL     1       1.760   7.819  20.465  0.00  0.00    +0.000 A 
ATOM      9  C   UNL     1       2.304   6.620  19.898  0.00  0.00    +0.000 A 
ENDROOT
BRANCH   1  17
ATOM     10  C   UNL     1       5.284   6.436  17.310  0.00  0.00    +0.000 C 
ATOM     11  C   UNL     1       4.369   5.261  17.419  0.00  0.00    +0.000 A 
ATOM     12  C   UNL     1       4.774   3.997  17.050  0.00  0.00    +0.000 A 
ATOM     13  N   UNL     1       4.033   2.890  17.229  0.00  0.00    +0.000 NA
ATOM     14  C   UNL     1       2.839   3.056  17.802  0.00  0.00    +0.000 A 
ATOM     15  N   UNL     1       2.105   1.925  18.081  0.00  0.00    +0.000 N 
ATOM     16  N   UNL     1       2.315   4.231  18.146  0.00  0.00    +0.000 NA
ATOM     17  C   UNL     1       3.090   5.318  17.957  0.00  0.00    +0.000 A 
ATOM     18  H   UNL     1       2.381   1.166  17.475  0.00  0.00    +0.000 HD
ATOM     19  H   UNL     1       1.123   2.148  18.150  0.00  0.00    +0.000 HD
ENDBRANCH   1  17
BRANCH   5  20
ATOM     20  C   UNL     1       0.499  11.192  19.791  0.00  0.00    +0.000 A 
ATOM     21  C   UNL     1       1.425  12.152  19.360  0.00  0.00    +0.000 A 
ATOM     22  C   UNL     1       1.027  13.202  18.543  0.00  0.00    +0.000 A 
ATOM     23  C   UNL     1      -0.320  13.363  18.238  0.00  0.00    +0.000 A 
ATOM     24  C   UNL     1      -1.287  12.516  18.785  0.00  0.00    +0.000 A 
ATOM     25  C   UNL     1      -0.867  11.418  19.555  0.00  0.00    +0.000 A 
BRANCH  24  26
ATOM     26  N   UNL     1      -2.674  12.705  18.570  0.00  0.00    +0.000 N 
ATOM     27  C   UNL     1      -3.586  11.713  18.278  0.00  0.00    +0.000 C 
ATOM     28  O   UNL     1      -3.368  10.518  18.147  0.00  0.00    +0.000 OA
ATOM     29  N   UNL     1      -4.855  12.210  18.082  0.00  0.00    +0.000 N 
ATOM     30  H   UNL     1      -2.996  13.657  18.479  0.00  0.00    +0.000 HD
ATOM     31  H   UNL     1      -5.100  13.040  18.600  0.00  0.00    +0.000 HD
BRANCH  29  32
ATOM     32  C   UNL     1      -5.929  11.250  17.797  0.00  0.00    +0.000 C 
BRANCH  32  33
ATOM     33  C   UNL     1      -6.831  10.865  18.980  0.00  0.00    +0.000 C 
ATOM     34  F   UNL     1      -6.202  11.005  20.170  0.00  0.00    +0.000 F 
ATOM     35  F   UNL     1      -7.914  11.682  19.014  0.00  0.00    +0.000 F 
ATOM     36  F   UNL     1      -7.289   9.599  18.891  0.00  0.00    +0.000 F 
ENDBRANCH  32  33
ENDBRANCH  29  32
ENDBRANCH  24  26
ENDBRANCH   5  20
TORSDOF 5
ENDMDL
MODEL 4
REMARK VINA RESULT:      -8.5      5.576      7.128
REMARK  Name = 
REMARK  6 active torsions:
REMARK  status: ('A' for Active; 'I' for Inactive)
REMARK    1  A    between atoms: C_1  and  C_2
REMARK    2  A    between atoms: C_8  and  C_9
REMARK    3  A    between atoms: C_13  and  C_14
REMARK    4  A    between atoms: C_18  and  N_19
REMARK    5  A    between atoms: N_22  and  C_23
REMARK    6  A    between atoms: C_23  and  C_24
REMARK                            x       y       z     vdW  Elec       q    Type
REMARK                         _______ _______ _______ _____ _____    ______ ____
ROOT
ATOM      1  C   UNL     1       2.468   6.621  19.677  0.00  0.00    +0.000 A 
ATOM      2  C   UNL     1       1.955   7.224  20.902  0.00  0.00    +0.000 A 
ATOM      3  C   UNL     1       1.478   8.471  20.878  0.00  0.00    +0.000 A 
ATOM      4  N   UNL     1       1.414   9.170  19.672  0.00  0.00    +0.000 N 
ATOM      5  C   UNL     1       0.953  10.457  19.405  0.00  0.00    +0.000 A 
ATOM      6  C   UNL     1       1.183  10.615  18.048  0.00  0.00    +0.000 A 
ATOM      7  N   UNL     1       1.735   9.490  17.481  0.00  0.00    +0.000 NA
ATOM      8  C   UNL     1       1.867   8.628  18.469  0.00  0.00    +0.000 A 
ATOM      9  C   UNL     1       2.415   7.304  18.507  0.00  0.00    +0.000 A 
ENDROOT
BRANCH   1  17
ATOM     10  C   UNL     1       0.824   4.190  20.262  0.00  0.00    +0.000 C 
ATOM     11  C   UNL     1       2.288   4.149  19.971  0.00  0.00    +0.000 A 
ATOM     12  C   UNL     1       2.960   2.955  19.829  0.00  0.00    +0.000 A 
ATOM     13  N   UNL     1       4.249   2.859  19.460  0.00  0.00    +0.000 NA
ATOM     14  C   UNL     1       4.889   4.006  19.221  0.00  0.00    +0.000 A 
ATOM     15  N   UNL     1       6.181   3.927  18.751  0.00  0.00    +0.000 N 
ATOM     16  N   UNL     1       4.365   5.219  19.382  0.00  0.00    +0.000 NA
ATOM     17  C   UNL     1       3.068   5.275  19.748  0.00  0.00    +0.000 A 
ATOM     18  H   UNL     1       6.600   3.048  19.015  0.00  0.00    +0.000 HD
ATOM     19  H   UNL     1       6.685   4.778  18.955  0.00  0.00    +0.000 HD
ENDBRANCH   1  17
BRANCH   5  20
ATOM     20  C   UNL     1       0.467  11.386  20.432  0.00  0.00    +0.000 A 
ATOM     21  C   UNL     1       1.248  12.489  20.807  0.00  0.00    +0.000 A 
ATOM     22  C   UNL     1       0.691  13.540  21.521  0.00  0.00    +0.000 A 
ATOM     23  C   UNL     1      -0.624  13.451  21.963  0.00  0.00    +0.000 A 
ATOM     24  C   UNL     1      -1.379  12.296  21.744  0.00  0.00    +0.000 A 
ATOM     25  C   UNL     1      -0.829  11.267  20.962  0.00  0.00    +0.000 A 
BRANCH  24  26
ATOM     26  N   UNL     1      -2.690  12.135  22.256  0.00  0.00    +0.000 N 
ATOM     27  C   UNL     1      -3.834  12.698  21.731  0.00  0.00    +0.000 C 
ATOM     28  O   UNL     1      -3.923  13.428  20.756  0.00  0.00    +0.000 OA
ATOM     29  N   UNL     1      -4.954  12.393  22.472  0.00  0.00    +0.000 N 
ATOM     30  H   UNL     1      -2.776  11.694  23.159  0.00  0.00    +0.000 HD
ATOM     31  H   UNL     1      -4.953  11.503  22.947  0.00  0.00    +0.000 HD
BRANCH  29  32
ATOM     32  C   UNL     1      -6.246  12.904  21.999  0.00  0.00    +0.000 C 
BRANCH  32  33
ATOM     33  C   UNL     1      -7.037  11.987  21.051  0.00  0.00    +0.000 C 
ATOM     34  F   UNL     1      -7.728  12.685  20.121  0.00  0.00    +0.000 F 
ATOM     35  F   UNL     1      -6.179  11.181  20.375  0.00  0.00    +0.000 F 
ATOM     36  F   UNL     1      -7.902  11.187  21.708  0.00  0.00    +0.000 F 
ENDBRANCH  32  33
ENDBRANCH  29  32
ENDBRANCH  24  26
ENDBRANCH   5  20
TORSDOF 5
ENDMDL
MODEL 5
REMARK VINA RESULT:      -8.5      5.121      6.565
REMARK  Name = 
REMARK  6 active torsions:
REMARK  status: ('A' for Active; 'I' for Inactive)
REMARK    1  A    between atoms: C_1  and  C_2
REMARK    2  A    between atoms: C_8  and  C_9
REMARK    3  A    between atoms: C_13  and  C_14
REMARK    4  A    between atoms: C_18  and  N_19
REMARK    5  A    between atoms: N_22  and  C_23
REMARK    6  A    between atoms: C_23  and  C_24
REMARK                            x       y       z     vdW  Elec       q    Type
REMARK                         _______ _______ _______ _____ _____    ______ ____
ROOT
ATOM      1  C   UNL     1       3.325   6.729  18.140  0.00  0.00    +0.000 A 
ATOM      2  C   UNL     1       2.662   6.498  19.418  0.00  0.00    +0.000 A 
ATOM      3  C   UNL     1       1.878   7.445  19.940  0.00  0.00    +0.000 A 
ATOM      4  N   UNL     1       1.645   8.626  19.232  0.00  0.00    +0.000 N 
ATOM      5  C   UNL     1       0.869   9.733  19.565  0.00  0.00    +0.000 A 
ATOM      6  C   UNL     1       1.062  10.602  18.504  0.00  0.00    +0.000 A 
ATOM      7  N   UNL     1       1.892  10.073  17.545  0.00  0.00    +0.000 NA
ATOM      8  C   UNL     1       2.234   8.883  17.994  0.00  0.00    +0.000 A 
ATOM      9  C   UNL     1       3.107   7.880  17.457  0.00  0.00    +0.000 A 
ENDROOT
BRANCH   1  17
ATOM     10  C   UNL     1       2.418   3.940  17.544  0.00  0.00    +0.000 C 
ATOM     11  C   UNL     1       3.811   4.426  17.309  0.00  0.00    +0.000 A 
ATOM     12  C   UNL     1       4.749   3.642  16.676  0.00  0.00    +0.000 A 
ATOM     13  N   UNL     1       5.980   4.068  16.341  0.00  0.00    +0.000 NA
ATOM     14  C   UNL     1       6.280   5.331  16.652  0.00  0.00    +0.000 A 
ATOM     15  N   UNL     1       7.499   5.815  16.233  0.00  0.00    +0.000 N 
ATOM     16  N   UNL     1       5.480   6.164  17.315  0.00  0.00    +0.000 NA
ATOM     17  C   UNL     1       4.252   5.703  17.629  0.00  0.00    +0.000 A 
ATOM     18  H   UNL     1       8.152   5.058  16.096  0.00  0.00    +0.000 HD
ATOM     19  H   UNL     1       7.786   6.596  16.806  0.00  0.00    +0.000 HD
ENDBRANCH   1  17
BRANCH   5  20
ATOM     20  C   UNL     1       0.149   9.881  20.836  0.00  0.00    +0.000 A 
ATOM     21  C   UNL     1       0.411   9.003  21.897  0.00  0.00    +0.000 A 
ATOM     22  C   UNL     1      -0.003   9.307  23.186  0.00  0.00    +0.000 A 
ATOM     23  C   UNL     1      -0.780  10.438  23.410  0.00  0.00    +0.000 A 
ATOM     24  C   UNL     1      -1.194  11.247  22.349  0.00  0.00    +0.000 A 
ATOM     25  C   UNL     1      -0.712  10.968  21.059  0.00  0.00    +0.000 A 
BRANCH  24  26
ATOM     26  N   UNL     1      -2.058  12.355  22.528  0.00  0.00    +0.000 N 
ATOM     27  C   UNL     1      -1.724  13.545  23.140  0.00  0.00    +0.000 C 
ATOM     28  O   UNL     1      -0.651  13.850  23.636  0.00  0.00    +0.000 OA
ATOM     29  N   UNL     1      -2.788  14.417  23.201  0.00  0.00    +0.000 N 
ATOM     30  H   UNL     1      -3.034  12.210  22.323  0.00  0.00    +0.000 HD
ATOM     31  H   UNL     1      -3.463  14.359  22.454  0.00  0.00    +0.000 HD
BRANCH  29  32
ATOM     32  C   UNL     1      -2.556  15.737  23.801  0.00  0.00    +0.000 C 
BRANCH  32  33
ATOM     33  C   UNL     1      -3.051  15.927  25.244  0.00  0.00    +0.000 C 
ATOM     34  F   UNL     1      -4.323  16.385  25.293  0.00  0.00    +0.000 F 
ATOM     35  F   UNL     1      -3.042  14.733  25.891  0.00  0.00    +0.000 F 
ATOM     36  F   UNL     1      -2.271  16.770  25.952  0.00  0.00    +0.000 F 
ENDBRANCH  32  33
ENDBRANCH  29  32
ENDBRANCH  24  26
ENDBRANCH   5  20
TORSDOF 5
ENDMDL
MODEL 6
REMARK VINA RESULT:      -8.5      5.829      7.416
REMARK  Name = 
REMARK  6 active torsions:
REMARK  status: ('A' for Active; 'I' for Inactive)
REMARK    1  A    between atoms: C_1  and  C_2
REMARK    2  A    between atoms: C_8  and  C_9
REMARK    3  A    between atoms: C_13  and  C_14
REMARK    4  A    between atoms: C_18  and  N_19
REMARK    5  A    between atoms: N_22  and  C_23
REMARK    6  A    between atoms: C_23  and  C_24
REMARK                            x       y       z     vdW  Elec       q    Type
REMARK                         _______ _______ _______ _____ _____    ______ ____
ROOT
ATOM      1  C   UNL     1       3.280   6.791  18.202  0.00  0.00    +0.000 A 
ATOM      2  C   UNL     1       2.606   6.590  19.479  0.00  0.00    +0.000 A 
ATOM      3  C   UNL     1       1.817   7.548  19.972  0.00  0.00    +0.000 A 
ATOM      4  N   UNL     1       1.591   8.712  19.236  0.00  0.00    +0.000 N 
ATOM      5  C   UNL     1       0.812   9.826  19.537  0.00  0.00    +0.000 A 
ATOM      6  C   UNL     1       1.014  10.672  18.459  0.00  0.00    +0.000 A 
ATOM      7  N   UNL     1       1.853  10.121  17.519  0.00  0.00    +0.000 NA
ATOM      8  C   UNL     1       2.191   8.941  17.998  0.00  0.00    +0.000 A 
ATOM      9  C   UNL     1       3.068   7.927  17.491  0.00  0.00    +0.000 A 
ENDROOT
BRANCH   1  17
ATOM     10  C   UNL     1       2.374   3.994  17.643  0.00  0.00    +0.000 C 
ATOM     11  C   UNL     1       3.772   4.473  17.419  0.00  0.00    +0.000 A 
ATOM     12  C   UNL     1       4.717   3.676  16.813  0.00  0.00    +0.000 A 
ATOM     13  N   UNL     1       5.953   4.092  16.489  0.00  0.00    +0.000 NA
ATOM     14  C   UNL     1       6.252   5.360  16.780  0.00  0.00    +0.000 A 
ATOM     15  N   UNL     1       7.479   5.834  16.371  0.00  0.00    +0.000 N 
ATOM     16  N   UNL     1       5.445   6.206  17.417  0.00  0.00    +0.000 NA
ATOM     17  C   UNL     1       4.212   5.754  17.722  0.00  0.00    +0.000 A 
ATOM     18  H   UNL     1       8.131   5.073  16.256  0.00  0.00    +0.000 HD
ATOM     19  H   UNL     1       7.759   6.624  16.934  0.00  0.00    +0.000 HD
ENDBRANCH   1  17
BRANCH   5  20
ATOM     20  C   UNL     1       0.081  10.002  20.798  0.00  0.00    +0.000 A 
ATOM     21  C   UNL     1       0.361   9.173  21.894  0.00  0.00    +0.000 A 
ATOM     22  C   UNL     1      -0.069   9.515  23.168  0.00  0.00    +0.000 A 
ATOM     23  C   UNL     1      -0.877  10.633  23.345  0.00  0.00    +0.000 A 
ATOM     24  C   UNL     1      -1.307  11.388  22.251  0.00  0.00    +0.000 A 
ATOM     25  C   UNL     1      -0.811  11.074  20.975  0.00  0.00    +0.000 A 
BRANCH  24  26
ATOM     26  N   UNL     1      -2.202  12.478  22.384  0.00  0.00    +0.000 N 
ATOM     27  C   UNL     1      -3.292  12.526  23.228  0.00  0.00    +0.000 C 
ATOM     28  O   UNL     1      -3.681  11.655  23.990  0.00  0.00    +0.000 OA
ATOM     29  N   UNL     1      -3.996  13.703  23.104  0.00  0.00    +0.000 N 
ATOM     30  H   UNL     1      -2.122  13.219  21.705  0.00  0.00    +0.000 HD
ATOM     31  H   UNL     1      -3.465  14.523  22.852  0.00  0.00    +0.000 HD
BRANCH  29  32
ATOM     32  C   UNL     1      -5.163  13.895  23.974  0.00  0.00    +0.000 C 
BRANCH  32  33
ATOM     33  C   UNL     1      -6.512  13.404  23.424  0.00  0.00    +0.000 C 
ATOM     34  F   UNL     1      -6.416  12.966  22.147  0.00  0.00    +0.000 F 
ATOM     35  F   UNL     1      -6.953  12.354  24.163  0.00  0.00    +0.000 F 
ATOM     36  F   UNL     1      -7.468  14.355  23.473  0.00  0.00    +0.000 F 
ENDBRANCH  32  33
ENDBRANCH  29  32
ENDBRANCH  24  26
ENDBRANCH   5  20
TORSDOF 5
ENDMDL
MODEL 7
REMARK VINA RESULT:      -8.4      0.870      1.475
REMARK  Name = 
REMARK  6 active torsions:
REMARK  status: ('A' for Active; 'I' for Inactive)
REMARK    1  A    between atoms: C_1  and  C_2
REMARK    2  A    between atoms: C_8  and  C_9
REMARK    3  A    between atoms: C_13  and  C_14
REMARK    4  A    between atoms: C_18  and  N_19
REMARK    5  A    between atoms: N_22  and  C_23
REMARK    6  A    between atoms: C_23  and  C_24
REMARK                            x       y       z     vdW  Elec       q    Type
REMARK                         _______ _______ _______ _____ _____    ______ ____
ROOT
ATOM      1  C   UNL     1       2.470   6.167  19.215  0.00  0.00    +0.000 A 
ATOM      2  C   UNL     1       2.504   7.207  18.193  0.00  0.00    +0.000 A 
ATOM      3  C   UNL     1       1.998   8.414  18.458  0.00  0.00    +0.000 A 
ATOM      4  N   UNL     1       1.496   8.696  19.729  0.00  0.00    +0.000 N 
ATOM      5  C   UNL     1       0.937   9.868  20.232  0.00  0.00    +0.000 A 
ATOM      6  C   UNL     1       0.581   9.534  21.528  0.00  0.00    +0.000 A 
ATOM      7  N   UNL     1       0.914   8.237  21.839  0.00  0.00    +0.000 NA
ATOM      8  C   UNL     1       1.465   7.745  20.748  0.00  0.00    +0.000 A 
ATOM      9  C   UNL     1       1.973   6.438  20.447  0.00  0.00    +0.000 A 
ENDROOT
BRANCH   1  17
ATOM     10  C   UNL     1       0.915   3.704  19.904  0.00  0.00    +0.000 C 
ATOM     11  C   UNL     1       2.204   3.686  19.150  0.00  0.00    +0.000 A 
ATOM     12  C   UNL     1       2.703   2.523  18.605  0.00  0.00    +0.000 A 
ATOM     13  N   UNL     1       3.797   2.469  17.826  0.00  0.00    +0.000 NA
ATOM     14  C   UNL     1       4.414   3.627  17.580  0.00  0.00    +0.000 A 
ATOM     15  N   UNL     1       5.479   3.607  16.708  0.00  0.00    +0.000 N 
ATOM     16  N   UNL     1       4.062   4.802  18.097  0.00  0.00    +0.000 NA
ATOM     17  C   UNL     1       2.956   4.819  18.869  0.00  0.00    +0.000 A 
ATOM     18  H   UNL     1       5.892   2.686  16.676  0.00  0.00    +0.000 HD
ATOM     19  H   UNL     1       6.085   4.397  16.871  0.00  0.00    +0.000 HD
ENDBRANCH   1  17
BRANCH   5  20
ATOM     20  C   UNL     1       0.716  11.082  19.436  0.00  0.00    +0.000 A 
ATOM     21  C   UNL     1      -0.561  11.658  19.374  0.00  0.00    +0.000 A 
ATOM     22  C   UNL     1      -0.730  12.954  18.907  0.00  0.00    +0.000 A 
ATOM     23  C   UNL     1       0.360  13.650  18.397  0.00  0.00    +0.000 A 
ATOM     24  C   UNL     1       1.615  13.045  18.297  0.00  0.00    +0.000 A 
ATOM     25  C   UNL     1       1.791  11.758  18.834  0.00  0.00    +0.000 A 
BRANCH  24  26
ATOM     26  N   UNL     1       2.726  13.691  17.701  0.00  0.00    +0.000 N 
ATOM     27  C   UNL     1       3.761  14.300  18.378  0.00  0.00    +0.000 C 
ATOM     28  O   UNL     1       3.902  14.401  19.587  0.00  0.00    +0.000 OA
ATOM     29  N   UNL     1       4.675  14.877  17.525  0.00  0.00    +0.000 N 
ATOM     30  H   UNL     1       2.684  13.844  16.705  0.00  0.00    +0.000 HD
ATOM     31  H   UNL     1       4.798  14.434  16.627  0.00  0.00    +0.000 HD
BRANCH  29  32
ATOM     32  C   UNL     1       5.847  15.532  18.120  0.00  0.00    +0.000 C 
BRANCH  32  33
ATOM     33  C   UNL     1       7.183  14.783  17.995  0.00  0.00    +0.000 C 
ATOM     34  F   UNL     1       8.181  15.584  17.554  0.00  0.00    +0.000 F 
ATOM     35  F   UNL     1       7.564  14.322  19.214  0.00  0.00    +0.000 F 
ATOM     36  F   UNL     1       7.103  13.717  17.173  0.00  0.00    +0.000 F 
ENDBRANCH  32  33
ENDBRANCH  29  32
ENDBRANCH  24  26
ENDBRANCH   5  20
TORSDOF 5
ENDMDL
MODEL 8
REMARK VINA RESULT:      -8.4      5.508      6.796
REMARK  Name = 
REMARK  6 active torsions:
REMARK  status: ('A' for Active; 'I' for Inactive)
REMARK    1  A    between atoms: C_1  and  C_2
REMARK    2  A    between atoms: C_8  and  C_9
REMARK    3  A    between atoms: C_13  and  C_14
REMARK    4  A    between atoms: C_18  and  N_19
REMARK    5  A    between atoms: N_22  and  C_23
REMARK    6  A    between atoms: C_23  and  C_24
REMARK                            x       y       z     vdW  Elec       q    Type
REMARK                         _______ _______ _______ _____ _____    ______ ____
ROOT
ATOM      1  C   UNL     1       3.439   6.597  18.243  0.00  0.00    +0.000 A 
ATOM      2  C   UNL     1       3.230   7.869  17.561  0.00  0.00    +0.000 A 
ATOM      3  C   UNL     1       2.420   8.785  18.098  0.00  0.00    +0.000 A 
ATOM      4  N   UNL     1       1.825   8.548  19.338  0.00  0.00    +0.000 N 
ATOM      5  C   UNL     1       0.966   9.348  20.088  0.00  0.00    +0.000 A 
ATOM      6  C   UNL     1       0.673   8.570  21.196  0.00  0.00    +0.000 A 
ATOM      7  N   UNL     1       1.323   7.358  21.165  0.00  0.00    +0.000 NA
ATOM      8  C   UNL     1       2.014   7.360  20.043  0.00  0.00    +0.000 A 
ATOM      9  C   UNL     1       2.853   6.363  19.444  0.00  0.00    +0.000 A 
ENDROOT
BRANCH   1  17
ATOM     10  C   UNL     1       2.406   3.840  17.707  0.00  0.00    +0.000 C 
ATOM     11  C   UNL     1       3.763   4.310  17.299  0.00  0.00    +0.000 A 
ATOM     12  C   UNL     1       4.593   3.528  16.525  0.00  0.00    +0.000 A 
ATOM     13  N   UNL     1       5.776   3.943  16.039  0.00  0.00    +0.000 NA
ATOM     14  C   UNL     1       6.140   5.192  16.337  0.00  0.00    +0.000 A 
ATOM     15  N   UNL     1       7.301   5.668  15.770  0.00  0.00    +0.000 N 
ATOM     16  N   UNL     1       5.452   6.019  17.122  0.00  0.00    +0.000 NA
ATOM     17  C   UNL     1       4.269   5.570  17.587  0.00  0.00    +0.000 A 
ATOM     18  H   UNL     1       7.914   4.905  15.527  0.00  0.00    +0.000 HD
ATOM     19  H   UNL     1       7.676   6.428  16.318  0.00  0.00    +0.000 HD
ENDBRANCH   1  17
BRANCH   5  20
ATOM     20  C   UNL     1       0.460  10.653  19.645  0.00  0.00    +0.000 A 
ATOM     21  C   UNL     1       1.357  11.658  19.256  0.00  0.00    +0.000 A 
ATOM     22  C   UNL     1       0.916  12.763  18.541  0.00  0.00    +0.000 A 
ATOM     23  C   UNL     1      -0.444  12.929  18.302  0.00  0.00    +0.000 A 
ATOM     24  C   UNL     1      -1.379  12.027  18.816  0.00  0.00    +0.000 A 
ATOM     25  C   UNL     1      -0.917  10.878  19.479  0.00  0.00    +0.000 A 
BRANCH  24  26
ATOM     26  N   UNL     1      -2.775  12.213  18.669  0.00  0.00    +0.000 N 
ATOM     27  C   UNL     1      -3.621  12.747  19.619  0.00  0.00    +0.000 C 
ATOM     28  O   UNL     1      -3.328  13.140  20.738  0.00  0.00    +0.000 OA
ATOM     29  N   UNL     1      -4.933  12.762  19.201  0.00  0.00    +0.000 N 
ATOM     30  H   UNL     1      -3.210  11.788  17.864  0.00  0.00    +0.000 HD
ATOM     31  H   UNL     1      -5.090  12.868  18.210  0.00  0.00    +0.000 HD
BRANCH  29  32
ATOM     32  C   UNL     1      -5.932  13.339  20.109  0.00  0.00    +0.000 C 
BRANCH  32  33
ATOM     33  C   UNL     1      -6.634  12.358  21.062  0.00  0.00    +0.000 C 
ATOM     34  F   UNL     1      -6.045  12.315  22.279  0.00  0.00    +0.000 F 
ATOM     35  F   UNL     1      -7.917  12.756  21.264  0.00  0.00    +0.000 F 
ATOM     36  F   UNL     1      -6.680  11.103  20.570  0.00  0.00    +0.000 F 
ENDBRANCH  32  33
ENDBRANCH  29  32
ENDBRANCH  24  26
ENDBRANCH   5  20
TORSDOF 5
ENDMDL
MODEL 9
REMARK VINA RESULT:      -8.4      5.347      6.564
REMARK  Name = 
REMARK  6 active torsions:
REMARK  status: ('A' for Active; 'I' for Inactive)
REMARK    1  A    between atoms: C_1  and  C_2
REMARK    2  A    between atoms: C_8  and  C_9
REMARK    3  A    between atoms: C_13  and  C_14
REMARK    4  A    between atoms: C_18  and  N_19
REMARK    5  A    between atoms: N_22  and  C_23
REMARK    6  A    between atoms: C_23  and  C_24
REMARK                            x       y       z     vdW  Elec       q    Type
REMARK                         _______ _______ _______ _____ _____    ______ ____
ROOT
ATOM      1  C   UNL     1       2.831   6.687  18.405  0.00  0.00    +0.000 A 
ATOM      2  C   UNL     1       2.531   7.862  17.595  0.00  0.00    +0.000 A 
ATOM      3  C   UNL     1       1.842   8.876  18.126  0.00  0.00    +0.000 A 
ATOM      4  N   UNL     1       1.465   8.834  19.469  0.00  0.00    +0.000 N 
ATOM      5  C   UNL     1       0.762   9.763  20.232  0.00  0.00    +0.000 A 
ATOM      6  C   UNL     1       0.649   9.156  21.471  0.00  0.00    +0.000 A 
ATOM      7  N   UNL     1       1.262   7.925  21.503  0.00  0.00    +0.000 NA
ATOM      8  C   UNL     1       1.750   7.746  20.292  0.00  0.00    +0.000 A 
ATOM      9  C   UNL     1       2.456   6.643  19.708  0.00  0.00    +0.000 A 
ENDROOT
BRANCH   1  17
ATOM     10  C   UNL     1       5.576   6.949  17.243  0.00  0.00    +0.000 C 
ATOM     11  C   UNL     1       4.810   5.667  17.278  0.00  0.00    +0.000 A 
ATOM     12  C   UNL     1       5.381   4.477  16.883  0.00  0.00    +0.000 A 
ATOM     13  N   UNL     1       4.776   3.281  16.998  0.00  0.00    +0.000 NA
ATOM     14  C   UNL     1       3.554   3.278  17.532  0.00  0.00    +0.000 A 
ATOM     15  N   UNL     1       2.956   2.056  17.746  0.00  0.00    +0.000 N 
ATOM     16  N   UNL     1       2.878   4.366  17.895  0.00  0.00    +0.000 NA
ATOM     17  C   UNL     1       3.518   5.547  17.770  0.00  0.00    +0.000 A 
ATOM     18  H   UNL     1       3.344   1.360  17.126  0.00  0.00    +0.000 HD
ATOM     19  H   UNL     1       1.953   2.155  17.786  0.00  0.00    +0.000 HD
ENDBRANCH   1  17
BRANCH   5  20
ATOM     20  C   UNL     1       0.211  11.016  19.700  0.00  0.00    +0.000 A 
ATOM     21  C   UNL     1       0.984  12.185  19.714  0.00  0.00    +0.000 A 
ATOM     22  C   UNL     1       0.624  13.282  18.944  0.00  0.00    +0.000 A 
ATOM     23  C   UNL     1      -0.572  13.261  18.235  0.00  0.00    +0.000 A 
ATOM     24  C   UNL     1      -1.443  12.174  18.328  0.00  0.00    +0.000 A 
ATOM     25  C   UNL     1      -1.038  11.043  19.056  0.00  0.00    +0.000 A 
BRANCH  24  26
ATOM     26  N   UNL     1      -2.709  12.156  17.693  0.00  0.00    +0.000 N 
ATOM     27  C   UNL     1      -3.931  12.129  18.332  0.00  0.00    +0.000 C 
ATOM     28  O   UNL     1      -4.140  12.105  19.535  0.00  0.00    +0.000 OA
ATOM     29  N   UNL     1      -4.983  12.076  17.446  0.00  0.00    +0.000 N 
ATOM     30  H   UNL     1      -2.717  12.006  16.695  0.00  0.00    +0.000 HD
ATOM     31  H   UNL     1      -4.845  12.526  16.553  0.00  0.00    +0.000 HD
BRANCH  29  32
ATOM     32  C   UNL     1      -6.343  12.076  17.999  0.00  0.00    +0.000 C 
BRANCH  32  33
ATOM     33  C   UNL     1      -7.056  13.436  18.056  0.00  0.00    +0.000 C 
ATOM     34  F   UNL     1      -6.185  14.469  18.132  0.00  0.00    +0.000 F 
ATOM     35  F   UNL     1      -7.781  13.620  16.923  0.00  0.00    +0.000 F 
ATOM     36  F   UNL     1      -7.912  13.529  19.095  0.00  0.00    +0.000 F 
ENDBRANCH  32  33
ENDBRANCH  29  32
ENDBRANCH  24  26
ENDBRANCH   5  20
TORSDOF 5
ENDMDL
