MODEL 1
REMARK VINA RESULT:      -4.1      0.000      0.000
REMARK  Name = 
REMARK  7 active torsions:
REMARK  status: ('A' for Active; 'I' for Inactive)
REMARK    1  A    between atoms: C_1  and  C_2
REMARK    2  A    between atoms: C_2  and  C_3
REMARK    3  A    between atoms: C_2  and  C_4
REMARK    4  A    between atoms: C_2  and  N_5
REMARK    5  A    between atoms: N_5  and  C_6
REMARK    6  A    between atoms: C_6  and  C_7
REMARK    7  A    between atoms: C_7  and  O_8
REMARK                            x       y       z     vdW  Elec       q    Type
REMARK                         _______ _______ _______ _____ _____    ______ ____
ROOT
ATOM      1  N   UNL     1       5.982   4.078  18.473  0.00  0.00    +0.000 NA
ATOM      2  H   UNL     1       6.890   3.800  18.098  0.00  0.00    +0.000 HD
ENDROOT
BRANCH   1   4
ATOM      3  C   UNL     1       3.879   3.138  17.511  0.00  0.00    +0.000 C 
ATOM      4  C   UNL     1       5.025   4.151  17.345  0.00  0.00    +0.000 C 
ATOM      5  C   UNL     1       5.711   3.954  15.983  0.00  0.00    +0.000 C 
ATOM      6  C   UNL     1       4.423   5.571  17.375  0.00  0.00    +0.000 C 
ENDBRANCH   1   4
BRANCH   1   7
ATOM      7  C   UNL     1       6.168   5.333  19.219  0.00  0.00    +0.000 C 
BRANCH   7   8
ATOM      8  C   UNL     1       7.655   5.694  19.343  0.00  0.00    +0.000 C 
BRANCH   8   9
ATOM      9  O   UNL     1       8.156   5.354  20.632  0.00  0.00    +0.000 OA
ATOM     10  H   UNL     1       8.904   5.954  20.791  0.00  0.00    +0.000 HD
ENDBRANCH   8   9
ENDBRANCH   7   8
ENDBRANCH   1   7
TORSDOF 4
ENDMDL
MODEL 2
REMARK VINA RESULT:      -4.1      1.507      1.740
REMARK  Name = 
REMARK  7 active torsions:
REMARK  status: ('A' for Active; 'I' for Inactive)
REMARK    1  A    between atoms: C_1  and  C_2
REMARK    2  A    between atoms: C_2  and  C_3
REMARK    3  A    between atoms: C_2  and  C_4
REMARK    4  A    between atoms: C_2  and  N_5
REMARK    5  A    between atoms: N_5  and  C_6
REMARK    6  A    between atoms: C_6  and  C_7
REMARK    7  A    between atoms: C_7  and  O_8
REMARK                            x       y       z     vdW  Elec       q    Type
REMARK                         _______ _______ _______ _____ _____    ______ ____
ROOT
ATOM      1  N   UNL     1       7.377   5.206  16.552  0.00  0.00    +0.000 NA
ATOM      2  H   UNL     1       7.546   6.213  16.535  0.00  0.00    +0.000 HD
ENDROOT
BRANCH   1   4
ATOM      3  C   UNL     1       5.214   3.979  16.767  0.00  0.00    +0.000 C 
ATOM      4  C   UNL     1       6.058   4.955  15.928  0.00  0.00    +0.000 C 
ATOM      5  C   UNL     1       6.182   4.440  14.485  0.00  0.00    +0.000 C 
ATOM      6  C   UNL     1       5.327   6.312  15.889  0.00  0.00    +0.000 C 
ENDBRANCH   1   4
BRANCH   1   7
ATOM      7  C   UNL     1       7.508   4.751  17.946  0.00  0.00    +0.000 C 
BRANCH   7   8
ATOM      8  C   UNL     1       7.732   5.932  18.900  0.00  0.00    +0.000 C 
BRANCH   8   9
ATOM      9  O   UNL     1       7.851   5.483  20.247  0.00  0.00    +0.000 OA
ATOM     10  H   UNL     1       8.755   5.710  20.521  0.00  0.00    +0.000 HD
ENDBRANCH   8   9
ENDBRANCH   7   8
ENDBRANCH   1   7
TORSDOF 4
ENDMDL
MODEL 3
REMARK VINA RESULT:      -4.0      1.544      2.346
REMARK  Name = 
REMARK  7 active torsions:
REMARK  status: ('A' for Active; 'I' for Inactive)
REMARK    1  A    between atoms: C_1  and  C_2
REMARK    2  A    between atoms: C_2  and  C_3
REMARK    3  A    between atoms: C_2  and  C_4
REMARK    4  A    between atoms: C_2  and  N_5
REMARK    5  A    between atoms: N_5  and  C_6
REMARK    6  A    between atoms: C_6  and  C_7
REMARK    7  A    between atoms: C_7  and  O_8
REMARK                            x       y       z     vdW  Elec       q    Type
REMARK                         _______ _______ _______ _____ _____    ______ ____
ROOT
ATOM      1  N   UNL     1       7.442   5.196  16.572  0.00  0.00    +0.000 NA
ATOM      2  H   UNL     1       7.698   6.184  16.540  0.00  0.00    +0.000 HD
ENDROOT
BRANCH   1   4
ATOM      3  C   UNL     1       5.321   6.345  15.930  0.00  0.00    +0.000 C 
ATOM      4  C   UNL     1       6.137   5.041  15.889  0.00  0.00    +0.000 C 
ATOM      5  C   UNL     1       5.309   3.882  16.466  0.00  0.00    +0.000 C 
ATOM      6  C   UNL     1       6.451   4.716  14.415  0.00  0.00    +0.000 C 
ENDBRANCH   1   4
BRANCH   1   7
ATOM      7  C   UNL     1       7.466   4.769  17.980  0.00  0.00    +0.000 C 
BRANCH   7   8
ATOM      8  C   UNL     1       7.750   5.951  18.917  0.00  0.00    +0.000 C 
BRANCH   8   9
ATOM      9  O   UNL     1       7.927   5.507  20.259  0.00  0.00    +0.000 OA
ATOM     10  H   UNL     1       7.038   5.492  20.651  0.00  0.00    +0.000 HD
ENDBRANCH   8   9
ENDBRANCH   7   8
ENDBRANCH   1   7
TORSDOF 4
ENDMDL
MODEL 4
REMARK VINA RESULT:      -4.0      3.477      4.664
REMARK  Name = 
REMARK  7 active torsions:
REMARK  status: ('A' for Active; 'I' for Inactive)
REMARK    1  A    between atoms: C_1  and  C_2
REMARK    2  A    between atoms: C_2  and  C_3
REMARK    3  A    between atoms: C_2  and  C_4
REMARK    4  A    between atoms: C_2  and  N_5
REMARK    5  A    between atoms: N_5  and  C_6
REMARK    6  A    between atoms: C_6  and  C_7
REMARK    7  A    between atoms: C_7  and  O_8
REMARK                            x       y       z     vdW  Elec       q    Type
REMARK                         _______ _______ _______ _____ _____    ______ ____
ROOT
ATOM      1  N   UNL     1       7.554   6.090  16.038  0.00  0.00    +0.000 NA
ATOM      2  H   UNL     1       8.566   5.950  16.030  0.00  0.00    +0.000 HD
ENDROOT
BRANCH   1   4
ATOM      3  C   UNL     1       7.747   8.058  17.562  0.00  0.00    +0.000 C 
ATOM      4  C   UNL     1       7.180   6.641  17.360  0.00  0.00    +0.000 C 
ATOM      5  C   UNL     1       7.616   5.728  18.518  0.00  0.00    +0.000 C 
ATOM      6  C   UNL     1       5.641   6.730  17.377  0.00  0.00    +0.000 C 
ENDBRANCH   1   4
BRANCH   1   7
ATOM      7  C   UNL     1       6.919   4.809  15.690  0.00  0.00    +0.000 C 
BRANCH   7   8
ATOM      8  C   UNL     1       6.762   4.658  14.171  0.00  0.00    +0.000 C 
BRANCH   8   9
ATOM      9  O   UNL     1       6.332   3.342  13.831  0.00  0.00    +0.000 OA
ATOM     10  H   UNL     1       7.084   2.760  14.033  0.00  0.00    +0.000 HD
ENDBRANCH   8   9
ENDBRANCH   7   8
ENDBRANCH   1   7
TORSDOF 4
ENDMDL
MODEL 5
REMARK VINA RESULT:      -4.0      1.667      2.371
REMARK  Name = 
REMARK  7 active torsions:
REMARK  status: ('A' for Active; 'I' for Inactive)
REMARK    1  A    between atoms: C_1  and  C_2
REMARK    2  A    between atoms: C_2  and  C_3
REMARK    3  A    between atoms: C_2  and  C_4
REMARK    4  A    between atoms: C_2  and  N_5
REMARK    5  A    between atoms: N_5  and  C_6
REMARK    6  A    between atoms: C_6  and  C_7
REMARK    7  A    between atoms: C_7  and  O_8
REMARK                            x       y       z     vdW  Elec       q    Type
REMARK                         _______ _______ _______ _____ _____    ______ ____
ROOT
ATOM      1  N   UNL     1       7.398   5.107  16.303  0.00  0.00    +0.000 NA
ATOM      2  H   UNL     1       7.624   6.103  16.295  0.00  0.00    +0.000 HD
ENDROOT
BRANCH   1   4
ATOM      3  C   UNL     1       6.128   4.346  14.293  0.00  0.00    +0.000 C 
ATOM      4  C   UNL     1       6.051   4.939  15.711  0.00  0.00    +0.000 C 
ATOM      5  C   UNL     1       5.254   6.254  15.691  0.00  0.00    +0.000 C 
ATOM      6  C   UNL     1       5.299   3.939  16.612  0.00  0.00    +0.000 C 
ENDBRANCH   1   4
BRANCH   1   7
ATOM      7  C   UNL     1       7.539   4.625  17.686  0.00  0.00    +0.000 C 
BRANCH   7   8
ATOM      8  C   UNL     1       7.683   5.792  18.673  0.00  0.00    +0.000 C 
BRANCH   8   9
ATOM      9  O   UNL     1       7.277   5.405  19.982  0.00  0.00    +0.000 OA
ATOM     10  H   UNL     1       6.657   6.091  20.279  0.00  0.00    +0.000 HD
ENDBRANCH   8   9
ENDBRANCH   7   8
ENDBRANCH   1   7
TORSDOF 4
ENDMDL
MODEL 6
REMARK VINA RESULT:      -4.0      3.517      4.605
REMARK  Name = 
REMARK  7 active torsions:
REMARK  status: ('A' for Active; 'I' for Inactive)
REMARK    1  A    between atoms: C_1  and  C_2
REMARK    2  A    between atoms: C_2  and  C_3
REMARK    3  A    between atoms: C_2  and  C_4
REMARK    4  A    between atoms: C_2  and  N_5
REMARK    5  A    between atoms: N_5  and  C_6
REMARK    6  A    between atoms: C_6  and  C_7
REMARK    7  A    between atoms: C_7  and  O_8
REMARK                            x       y       z     vdW  Elec       q    Type
REMARK                         _______ _______ _______ _____ _____    ______ ____
ROOT
ATOM      1  N   UNL     1       7.471   6.114  15.943  0.00  0.00    +0.000 NA
ATOM      2  H   UNL     1       8.492   6.115  15.900  0.00  0.00    +0.000 HD
ENDROOT
BRANCH   1   4
ATOM      3  C   UNL     1       5.541   6.770  17.383  0.00  0.00    +0.000 C 
ATOM      4  C   UNL     1       7.070   6.627  17.272  0.00  0.00    +0.000 C 
ATOM      5  C   UNL     1       7.750   7.963  17.614  0.00  0.00    +0.000 C 
ATOM      6  C   UNL     1       7.532   5.578  18.304  0.00  0.00    +0.000 C 
ENDBRANCH   1   4
BRANCH   1   7
ATOM      7  C   UNL     1       7.010   4.751  15.631  0.00  0.00    +0.000 C 
BRANCH   7   8
ATOM      8  C   UNL     1       6.602   4.623  14.157  0.00  0.00    +0.000 C 
BRANCH   8   9
ATOM      9  O   UNL     1       6.321   3.267  13.823  0.00  0.00    +0.000 OA
ATOM     10  H   UNL     1       6.975   2.735  14.306  0.00  0.00    +0.000 HD
ENDBRANCH   8   9
ENDBRANCH   7   8
ENDBRANCH   1   7
TORSDOF 4
ENDMDL
MODEL 7
REMARK VINA RESULT:      -3.9      2.874      4.076
REMARK  Name = 
REMARK  7 active torsions:
REMARK  status: ('A' for Active; 'I' for Inactive)
REMARK    1  A    between atoms: C_1  and  C_2
REMARK    2  A    between atoms: C_2  and  C_3
REMARK    3  A    between atoms: C_2  and  C_4
REMARK    4  A    between atoms: C_2  and  N_5
REMARK    5  A    between atoms: N_5  and  C_6
REMARK    6  A    between atoms: C_6  and  C_7
REMARK    7  A    between atoms: C_7  and  O_8
REMARK                            x       y       z     vdW  Elec       q    Type
REMARK                         _______ _______ _______ _____ _____    ______ ____
ROOT
ATOM      1  N   UNL     1       7.506   5.180  16.796  0.00  0.00    +0.000 NA
ATOM      2  H   UNL     1       8.099   4.535  17.320  0.00  0.00    +0.000 HD
ENDROOT
BRANCH   1   4
ATOM      3  C   UNL     1       7.046   5.625  19.209  0.00  0.00    +0.000 C 
ATOM      4  C   UNL     1       6.892   6.121  17.761  0.00  0.00    +0.000 C 
ATOM      5  C   UNL     1       5.411   6.393  17.451  0.00  0.00    +0.000 C 
ATOM      6  C   UNL     1       7.661   7.451  17.623  0.00  0.00    +0.000 C 
ENDBRANCH   1   4
BRANCH   1   7
ATOM      7  C   UNL     1       6.553   4.378  16.011  0.00  0.00    +0.000 C 
BRANCH   7   8
ATOM      8  C   UNL     1       6.749   4.595  14.505  0.00  0.00    +0.000 C 
BRANCH   8   9
ATOM      9  O   UNL     1       7.781   5.545  14.256  0.00  0.00    +0.000 OA
ATOM     10  H   UNL     1       8.422   5.094  13.682  0.00  0.00    +0.000 HD
ENDBRANCH   8   9
ENDBRANCH   7   8
ENDBRANCH   1   7
TORSDOF 4
ENDMDL
MODEL 8
REMARK VINA RESULT:      -3.9      2.190      2.954
REMARK  Name = 
REMARK  7 active torsions:
REMARK  status: ('A' for Active; 'I' for Inactive)
REMARK    1  A    between atoms: C_1  and  C_2
REMARK    2  A    between atoms: C_2  and  C_3
REMARK    3  A    between atoms: C_2  and  C_4
REMARK    4  A    between atoms: C_2  and  N_5
REMARK    5  A    between atoms: N_5  and  C_6
REMARK    6  A    between atoms: C_6  and  C_7
REMARK    7  A    between atoms: C_7  and  O_8
REMARK                            x       y       z     vdW  Elec       q    Type
REMARK                         _______ _______ _______ _____ _____    ______ ____
ROOT
ATOM      1  N   UNL     1       5.135   3.421  16.927  0.00  0.00    +0.000 NA
ATOM      2  H   UNL     1       5.773   2.956  17.575  0.00  0.00    +0.000 HD
ENDROOT
BRANCH   1   4
ATOM      3  C   UNL     1       5.205   5.772  16.092  0.00  0.00    +0.000 C 
ATOM      4  C   UNL     1       5.916   4.409  16.148  0.00  0.00    +0.000 C 
ATOM      5  C   UNL     1       6.227   3.917  14.725  0.00  0.00    +0.000 C 
ATOM      6  C   UNL     1       7.254   4.593  16.892  0.00  0.00    +0.000 C 
ENDBRANCH   1   4
BRANCH   1   7
ATOM      7  C   UNL     1       4.024   3.981  17.714  0.00  0.00    +0.000 C 
BRANCH   7   8
ATOM      8  C   UNL     1       4.071   3.496  19.169  0.00  0.00    +0.000 C 
BRANCH   8   9
ATOM      9  O   UNL     1       5.307   2.847  19.451  0.00  0.00    +0.000 OA
ATOM     10  H   UNL     1       5.600   3.197  20.308  0.00  0.00    +0.000 HD
ENDBRANCH   8   9
ENDBRANCH   7   8
ENDBRANCH   1   7
TORSDOF 4
ENDMDL
MODEL 9
REMARK VINA RESULT:      -3.9      2.005      2.389
REMARK  Name = 
REMARK  7 active torsions:
REMARK  status: ('A' for Active; 'I' for Inactive)
REMARK    1  A    between atoms: C_1  and  C_2
REMARK    2  A    between atoms: C_2  and  C_3
REMARK    3  A    between atoms: C_2  and  C_4
REMARK    4  A    between atoms: C_2  and  N_5
REMARK    5  A    between atoms: N_5  and  C_6
REMARK    6  A    between atoms: C_6  and  C_7
REMARK    7  A    between atoms: C_7  and  O_8
REMARK                            x       y       z     vdW  Elec       q    Type
REMARK                         _______ _______ _______ _____ _____    ______ ____
ROOT
ATOM      1  N   UNL     1       5.692   3.731  18.664  0.00  0.00    +0.000 NA
ATOM      2  H   UNL     1       5.974   2.935  18.090  0.00  0.00    +0.000 HD
ENDROOT
BRANCH   1   4
ATOM      3  C   UNL     1       4.002   2.500  20.028  0.00  0.00    +0.000 C 
ATOM      4  C   UNL     1       4.249   3.586  18.966  0.00  0.00    +0.000 C 
ATOM      5  C   UNL     1       3.415   3.293  17.708  0.00  0.00    +0.000 C 
ATOM      6  C   UNL     1       3.785   4.939  19.542  0.00  0.00    +0.000 C 
ENDBRANCH   1   4
BRANCH   1   7
ATOM      7  C   UNL     1       6.060   4.959  17.943  0.00  0.00    +0.000 C 
BRANCH   7   8
ATOM      8  C   UNL     1       7.134   4.683  16.881  0.00  0.00    +0.000 C 
BRANCH   8   9
ATOM      9  O   UNL     1       8.272   4.051  17.460  0.00  0.00    +0.000 OA
ATOM     10  H   UNL     1       8.819   3.758  16.712  0.00  0.00    +0.000 HD
ENDBRANCH   8   9
ENDBRANCH   7   8
ENDBRANCH   1   7
TORSDOF 4
ENDMDL
