MODEL 1
REMARK VINA RESULT:      -8.1      0.000      0.000
REMARK  Name = 
REMARK  8 active torsions:
REMARK  status: ('A' for Active; 'I' for Inactive)
REMARK    1  A    between atoms: C_1  and  N_2
REMARK    2  A    between atoms: N_2  and  C_3
REMARK    3  A    between atoms: N_2  and  C_4
REMARK    4  A    between atoms: C_4  and  C_5
REMARK    5  A    between atoms: C_5  and  N_6
REMARK    6  A    between atoms: C_7  and  C_9
REMARK    7  A    between atoms: C_13  and  C_14
REMARK    8  A    between atoms: C_21  and  C_22
REMARK                            x       y       z     vdW  Elec       q    Type
REMARK                         _______ _______ _______ _____ _____    ______ ____
ROOT
ATOM      1  C   UNL     1       2.097   6.560  19.969  0.00  0.00    +0.000 A 
ATOM      2  C   UNL     1       1.248   5.775  20.724  0.00  0.00    +0.000 A 
ATOM      3  C   UNL     1       1.593   4.442  20.948  0.00  0.00    +0.000 A 
ATOM      4  C   UNL     1       2.751   3.898  20.420  0.00  0.00    +0.000 A 
ATOM      5  N   UNL     1       3.021   2.605  20.674  0.00  0.00    +0.000 NA
ATOM      6  C   UNL     1       4.138   2.092  20.134  0.00  0.00    +0.000 A 
ATOM      7  C   UNL     1       4.994   2.816  19.329  0.00  0.00    +0.000 A 
ATOM      8  C   UNL     1       4.720   4.173  19.058  0.00  0.00    +0.000 A 
ATOM      9  C   UNL     1       3.568   4.746  19.642  0.00  0.00    +0.000 A 
ATOM     10  N   UNL     1       3.242   6.049  19.458  0.00  0.00    +0.000 NA
ENDROOT
BRANCH   1  15
ATOM     11  C   UNL     1       0.991  10.199  20.161  0.00  0.00    +0.000 A 
ATOM     12  C   UNL     1       1.242  10.636  18.857  0.00  0.00    +0.000 A 
ATOM     13  C   UNL     1       1.777   9.749  17.928  0.00  0.00    +0.000 A 
ATOM     14  C   UNL     1       2.056   8.433  18.298  0.00  0.00    +0.000 A 
ATOM     15  C   UNL     1       1.833   7.968  19.613  0.00  0.00    +0.000 A 
ATOM     16  C   UNL     1       1.305   8.885  20.541  0.00  0.00    +0.000 A 
BRANCH  11  18
ATOM     17  N   UNL     1      -0.668  10.623  21.883  0.00  0.00    +0.000 N 
ATOM     18  C   UNL     1       0.405  11.115  21.176  0.00  0.00    +0.000 C 
ATOM     19  O   UNL     1       0.906  12.216  21.368  0.00  0.00    +0.000 OA
ATOM     20  H   UNL     1      -0.836   9.623  21.907  0.00  0.00    +0.000 HD
BRANCH  17  21
ATOM     21  C   UNL     1      -1.257  11.408  22.949  0.00  0.00    +0.000 C 
BRANCH  21  22
ATOM     22  C   UNL     1      -2.488  12.214  22.493  0.00  0.00    +0.000 C 
BRANCH  22  24
ATOM     23  C   UNL     1      -1.230  14.019  23.537  0.00  0.00    +0.000 C 
ATOM     24  N   UNL     1      -2.365  13.680  22.672  0.00  0.00    +0.000 NA
ATOM     25  C   UNL     1      -2.175  14.320  21.363  0.00  0.00    +0.000 C 
ENDBRANCH  22  24
ENDBRANCH  21  22
ENDBRANCH  17  21
ENDBRANCH  11  18
ENDBRANCH   1  15
BRANCH   8  26
ATOM     26  C   UNL     1       5.634   4.942  18.153  0.00  0.00    +0.000 A 
ATOM     27  C   UNL     1       6.690   5.725  18.645  0.00  0.00    +0.000 A 
ATOM     28  C   UNL     1       7.515   6.416  17.768  0.00  0.00    +0.000 A 
ATOM     29  N   UNL     1       7.352   6.420  16.433  0.00  0.00    +0.000 NA
ATOM     30  C   UNL     1       6.328   5.684  15.958  0.00  0.00    +0.000 A 
ATOM     31  C   UNL     1       5.470   4.938  16.759  0.00  0.00    +0.000 A 
ENDBRANCH   8  26
TORSDOF 6
ENDMDL
MODEL 2
REMARK VINA RESULT:      -8.1      1.235      1.587
REMARK  Name = 
REMARK  8 active torsions:
REMARK  status: ('A' for Active; 'I' for Inactive)
REMARK    1  A    between atoms: C_1  and  N_2
REMARK    2  A    between atoms: N_2  and  C_3
REMARK    3  A    between atoms: N_2  and  C_4
REMARK    4  A    between atoms: C_4  and  C_5
REMARK    5  A    between atoms: C_5  and  N_6
REMARK    6  A    between atoms: C_7  and  C_9
REMARK    7  A    between atoms: C_13  and  C_14
REMARK    8  A    between atoms: C_21  and  C_22
REMARK                            x       y       z     vdW  Elec       q    Type
REMARK                         _______ _______ _______ _____ _____    ______ ____
ROOT
ATOM      1  C   UNL     1       1.923   6.463  20.232  0.00  0.00    +0.000 A 
ATOM      2  C   UNL     1       1.092   5.492  20.756  0.00  0.00    +0.000 A 
ATOM      3  C   UNL     1       1.529   4.168  20.757  0.00  0.00    +0.000 A 
ATOM      4  C   UNL     1       2.761   3.814  20.234  0.00  0.00    +0.000 A 
ATOM      5  N   UNL     1       3.119   2.518  20.265  0.00  0.00    +0.000 NA
ATOM      6  C   UNL     1       4.308   2.195  19.734  0.00  0.00    +0.000 A 
ATOM      7  C   UNL     1       5.155   3.116  19.149  0.00  0.00    +0.000 A 
ATOM      8  C   UNL     1       4.790   4.477  19.113  0.00  0.00    +0.000 A 
ATOM      9  C   UNL     1       3.556   4.849  19.696  0.00  0.00    +0.000 A 
ATOM     10  N   UNL     1       3.138   6.138  19.731  0.00  0.00    +0.000 NA
ENDROOT
BRANCH   1  15
ATOM     11  C   UNL     1       0.546   9.925  21.021  0.00  0.00    +0.000 A 
ATOM     12  C   UNL     1       0.811  10.608  19.830  0.00  0.00    +0.000 A 
ATOM     13  C   UNL     1       1.443   9.944  18.785  0.00  0.00    +0.000 A 
ATOM     14  C   UNL     1       1.804   8.603  18.925  0.00  0.00    +0.000 A 
ATOM     15  C   UNL     1       1.570   7.893  20.122  0.00  0.00    +0.000 A 
ATOM     16  C   UNL     1       0.943   8.587  21.174  0.00  0.00    +0.000 A 
BRANCH  11  18
ATOM     17  N   UNL     1      -0.982  11.635  21.819  0.00  0.00    +0.000 N 
ATOM     18  C   UNL     1      -0.142  10.599  22.154  0.00  0.00    +0.000 C 
ATOM     19  O   UNL     1       0.027  10.196  23.299  0.00  0.00    +0.000 OA
ATOM     20  H   UNL     1      -1.319  11.717  20.865  0.00  0.00    +0.000 HD
BRANCH  17  21
ATOM     21  C   UNL     1      -1.759  12.301  22.844  0.00  0.00    +0.000 C 
BRANCH  21  22
ATOM     22  C   UNL     1      -3.115  12.821  22.329  0.00  0.00    +0.000 C 
BRANCH  22  24
ATOM     23  C   UNL     1      -4.133  12.559  24.526  0.00  0.00    +0.000 C 
ATOM     24  N   UNL     1      -4.291  12.329  23.085  0.00  0.00    +0.000 NA
ATOM     25  C   UNL     1      -5.500  13.022  22.621  0.00  0.00    +0.000 C 
ENDBRANCH  22  24
ENDBRANCH  21  22
ENDBRANCH  17  21
ENDBRANCH  11  18
ENDBRANCH   1  15
BRANCH   8  26
ATOM     26  C   UNL     1       5.697   5.465  18.444  0.00  0.00    +0.000 A 
ATOM     27  C   UNL     1       5.345   6.117  17.252  0.00  0.00    +0.000 A 
ATOM     28  C   UNL     1       6.216   7.029  16.672  0.00  0.00    +0.000 A 
ATOM     29  N   UNL     1       7.431   7.322  17.166  0.00  0.00    +0.000 NA
ATOM     30  C   UNL     1       7.780   6.684  18.301  0.00  0.00    +0.000 A 
ATOM     31  C   UNL     1       6.962   5.778  18.966  0.00  0.00    +0.000 A 
ENDBRANCH   8  26
TORSDOF 6
ENDMDL
MODEL 3
REMARK VINA RESULT:      -8.0      0.611      1.230
REMARK  Name = 
REMARK  8 active torsions:
REMARK  status: ('A' for Active; 'I' for Inactive)
REMARK    1  A    between atoms: C_1  and  N_2
REMARK    2  A    between atoms: N_2  and  C_3
REMARK    3  A    between atoms: N_2  and  C_4
REMARK    4  A    between atoms: C_4  and  C_5
REMARK    5  A    between atoms: C_5  and  N_6
REMARK    6  A    between atoms: C_7  and  C_9
REMARK    7  A    between atoms: C_13  and  C_14
REMARK    8  A    between atoms: C_21  and  C_22
REMARK                            x       y       z     vdW  Elec       q    Type
REMARK                         _______ _______ _______ _____ _____    ______ ____
ROOT
ATOM      1  C   UNL     1       2.132   6.560  19.941  0.00  0.00    +0.000 A 
ATOM      2  C   UNL     1       1.307   5.794  20.741  0.00  0.00    +0.000 A 
ATOM      3  C   UNL     1       1.656   4.466  20.983  0.00  0.00    +0.000 A 
ATOM      4  C   UNL     1       2.795   3.907  20.429  0.00  0.00    +0.000 A 
ATOM      5  N   UNL     1       3.071   2.620  20.702  0.00  0.00    +0.000 NA
ATOM      6  C   UNL     1       4.168   2.092  20.136  0.00  0.00    +0.000 A 
ATOM      7  C   UNL     1       4.999   2.796  19.287  0.00  0.00    +0.000 A 
ATOM      8  C   UNL     1       4.719   4.146  18.995  0.00  0.00    +0.000 A 
ATOM      9  C   UNL     1       3.587   4.736  19.605  0.00  0.00    +0.000 A 
ATOM     10  N   UNL     1       3.258   6.035  19.403  0.00  0.00    +0.000 NA
ENDROOT
BRANCH   1  15
ATOM     11  C   UNL     1       1.035  10.204  20.088  0.00  0.00    +0.000 A 
ATOM     12  C   UNL     1       1.250  10.613  18.768  0.00  0.00    +0.000 A 
ATOM     13  C   UNL     1       1.757   9.707  17.843  0.00  0.00    +0.000 A 
ATOM     14  C   UNL     1       2.045   8.398  18.233  0.00  0.00    +0.000 A 
ATOM     15  C   UNL     1       1.860   7.962  19.563  0.00  0.00    +0.000 A 
ATOM     16  C   UNL     1       1.359   8.898  20.486  0.00  0.00    +0.000 A 
BRANCH  11  18
ATOM     17  N   UNL     1      -0.694  10.751  21.703  0.00  0.00    +0.000 N 
ATOM     18  C   UNL     1       0.479  11.142  21.099  0.00  0.00    +0.000 C 
ATOM     19  O   UNL     1       1.083  12.170  21.378  0.00  0.00    +0.000 OA
ATOM     20  H   UNL     1      -0.974   9.776  21.668  0.00  0.00    +0.000 HD
BRANCH  17  21
ATOM     21  C   UNL     1      -1.272  11.557  22.759  0.00  0.00    +0.000 C 
BRANCH  21  22
ATOM     22  C   UNL     1      -2.535  12.318  22.313  0.00  0.00    +0.000 C 
BRANCH  22  24
ATOM     23  C   UNL     1      -3.837  12.719  20.295  0.00  0.00    +0.000 C 
ATOM     24  N   UNL     1      -2.506  12.788  20.908  0.00  0.00    +0.000 NA
ATOM     25  C   UNL     1      -2.032  14.178  20.863  0.00  0.00    +0.000 C 
ENDBRANCH  22  24
ENDBRANCH  21  22
ENDBRANCH  17  21
ENDBRANCH  11  18
ENDBRANCH   1  15
BRANCH   8  26
ATOM     26  C   UNL     1       5.604   4.893  18.044  0.00  0.00    +0.000 A 
ATOM     27  C   UNL     1       5.479   4.769  16.651  0.00  0.00    +0.000 A 
ATOM     28  C   UNL     1       6.318   5.485  15.808  0.00  0.00    +0.000 A 
ATOM     29  N   UNL     1       7.301   6.294  16.241  0.00  0.00    +0.000 NA
ATOM     30  C   UNL     1       7.436   6.401  17.578  0.00  0.00    +0.000 A 
ATOM     31  C   UNL     1       6.623   5.745  18.496  0.00  0.00    +0.000 A 
ENDBRANCH   8  26
TORSDOF 6
ENDMDL
MODEL 4
REMARK VINA RESULT:      -8.0      1.088      1.506
REMARK  Name = 
REMARK  8 active torsions:
REMARK  status: ('A' for Active; 'I' for Inactive)
REMARK    1  A    between atoms: C_1  and  N_2
REMARK    2  A    between atoms: N_2  and  C_3
REMARK    3  A    between atoms: N_2  and  C_4
REMARK    4  A    between atoms: C_4  and  C_5
REMARK    5  A    between atoms: C_5  and  N_6
REMARK    6  A    between atoms: C_7  and  C_9
REMARK    7  A    between atoms: C_13  and  C_14
REMARK    8  A    between atoms: C_21  and  C_22
REMARK                            x       y       z     vdW  Elec       q    Type
REMARK                         _______ _______ _______ _____ _____    ______ ____
ROOT
ATOM      1  C   UNL     1       2.155   6.518  19.914  0.00  0.00    +0.000 A 
ATOM      2  C   UNL     1       1.336   5.743  20.711  0.00  0.00    +0.000 A 
ATOM      3  C   UNL     1       1.707   4.424  20.968  0.00  0.00    +0.000 A 
ATOM      4  C   UNL     1       2.862   3.882  20.432  0.00  0.00    +0.000 A 
ATOM      5  N   UNL     1       3.159   2.602  20.720  0.00  0.00    +0.000 NA
ATOM      6  C   UNL     1       4.272   2.091  20.172  0.00  0.00    +0.000 A 
ATOM      7  C   UNL     1       5.100   2.803  19.326  0.00  0.00    +0.000 A 
ATOM      8  C   UNL     1       4.798   4.146  19.019  0.00  0.00    +0.000 A 
ATOM      9  C   UNL     1       3.648   4.718  19.611  0.00  0.00    +0.000 A 
ATOM     10  N   UNL     1       3.297   6.009  19.394  0.00  0.00    +0.000 NA
ENDROOT
BRANCH   1  15
ATOM     11  C   UNL     1       0.833  10.089  19.948  0.00  0.00    +0.000 A 
ATOM     12  C   UNL     1       1.222  10.543  18.683  0.00  0.00    +0.000 A 
ATOM     13  C   UNL     1       1.919   9.690  17.834  0.00  0.00    +0.000 A 
ATOM     14  C   UNL     1       2.222   8.390  18.243  0.00  0.00    +0.000 A 
ATOM     15  C   UNL     1       1.861   7.911  19.521  0.00  0.00    +0.000 A 
ATOM     16  C   UNL     1       1.169   8.794  20.371  0.00  0.00    +0.000 A 
BRANCH  11  18
ATOM     17  N   UNL     1      -1.096  11.500  20.382  0.00  0.00    +0.000 N 
ATOM     18  C   UNL     1       0.073  10.968  20.876  0.00  0.00    +0.000 C 
ATOM     19  O   UNL     1       0.478  11.147  22.018  0.00  0.00    +0.000 OA
ATOM     20  H   UNL     1      -1.532  11.079  19.568  0.00  0.00    +0.000 HD
BRANCH  17  21
ATOM     21  C   UNL     1      -1.947  12.303  21.235  0.00  0.00    +0.000 C 
BRANCH  21  22
ATOM     22  C   UNL     1      -3.194  12.841  20.507  0.00  0.00    +0.000 C 
BRANCH  22  24
ATOM     23  C   UNL     1      -4.336  12.897  22.657  0.00  0.00    +0.000 C 
ATOM     24  N   UNL     1      -4.471  12.615  21.224  0.00  0.00    +0.000 NA
ATOM     25  C   UNL     1      -5.512  13.487  20.661  0.00  0.00    +0.000 C 
ENDBRANCH  22  24
ENDBRANCH  21  22
ENDBRANCH  17  21
ENDBRANCH  11  18
ENDBRANCH   1  15
BRANCH   8  26
ATOM     26  C   UNL     1       5.679   4.901  18.071  0.00  0.00    +0.000 A 
ATOM     27  C   UNL     1       5.599   4.734  16.680  0.00  0.00    +0.000 A 
ATOM     28  C   UNL     1       6.433   5.460  15.840  0.00  0.00    +0.000 A 
ATOM     29  N   UNL     1       7.371   6.319  16.277  0.00  0.00    +0.000 NA
ATOM     30  C   UNL     1       7.464   6.467  17.613  0.00  0.00    +0.000 A 
ATOM     31  C   UNL     1       6.652   5.805  18.527  0.00  0.00    +0.000 A 
ENDBRANCH   8  26
TORSDOF 6
ENDMDL
MODEL 5
REMARK VINA RESULT:      -8.0      1.029      1.387
REMARK  Name = 
REMARK  8 active torsions:
REMARK  status: ('A' for Active; 'I' for Inactive)
REMARK    1  A    between atoms: C_1  and  N_2
REMARK    2  A    between atoms: N_2  and  C_3
REMARK    3  A    between atoms: N_2  and  C_4
REMARK    4  A    between atoms: C_4  and  C_5
REMARK    5  A    between atoms: C_5  and  N_6
REMARK    6  A    between atoms: C_7  and  C_9
REMARK    7  A    between atoms: C_13  and  C_14
REMARK    8  A    between atoms: C_21  and  C_22
REMARK                            x       y       z     vdW  Elec       q    Type
REMARK                         _______ _______ _______ _____ _____    ______ ____
ROOT
ATOM      1  C   UNL     1       2.123   6.692  19.828  0.00  0.00    +0.000 A 
ATOM      2  C   UNL     1       1.380   6.017  20.777  0.00  0.00    +0.000 A 
ATOM      3  C   UNL     1       1.717   4.697  21.075  0.00  0.00    +0.000 A 
ATOM      4  C   UNL     1       2.763   4.057  20.433  0.00  0.00    +0.000 A 
ATOM      5  N   UNL     1       3.032   2.783  20.769  0.00  0.00    +0.000 NA
ATOM      6  C   UNL     1       4.036   2.174  20.118  0.00  0.00    +0.000 A 
ATOM      7  C   UNL     1       4.777   2.783  19.124  0.00  0.00    +0.000 A 
ATOM      8  C   UNL     1       4.503   4.119  18.766  0.00  0.00    +0.000 A 
ATOM      9  C   UNL     1       3.472   4.793  19.460  0.00  0.00    +0.000 A 
ATOM     10  N   UNL     1       3.159   6.086  19.201  0.00  0.00    +0.000 NA
ENDROOT
BRANCH   1  15
ATOM     11  C   UNL     1       0.638  10.189  19.573  0.00  0.00    +0.000 A 
ATOM     12  C   UNL     1       1.266  10.676  18.422  0.00  0.00    +0.000 A 
ATOM     13  C   UNL     1       2.173   9.869  17.744  0.00  0.00    +0.000 A 
ATOM     14  C   UNL     1       2.449   8.583  18.209  0.00  0.00    +0.000 A 
ATOM     15  C   UNL     1       1.847   8.071  19.379  0.00  0.00    +0.000 A 
ATOM     16  C   UNL     1       0.943   8.909  20.060  0.00  0.00    +0.000 A 
BRANCH  11  18
ATOM     17  N   UNL     1       0.022  11.409  21.581  0.00  0.00    +0.000 N 
ATOM     18  C   UNL     1      -0.349  11.018  20.315  0.00  0.00    +0.000 C 
ATOM     19  O   UNL     1      -1.400  11.346  19.777  0.00  0.00    +0.000 OA
ATOM     20  H   UNL     1       1.000  11.379  21.847  0.00  0.00    +0.000 HD
BRANCH  17  21
ATOM     21  C   UNL     1      -0.837  12.284  22.352  0.00  0.00    +0.000 C 
BRANCH  21  22
ATOM     22  C   UNL     1      -1.878  11.521  23.192  0.00  0.00    +0.000 C 
BRANCH  22  24
ATOM     23  C   UNL     1      -3.690  12.684  24.329  0.00  0.00    +0.000 C 
ATOM     24  N   UNL     1      -3.261  12.042  23.082  0.00  0.00    +0.000 NA
ATOM     25  C   UNL     1      -3.330  13.024  21.991  0.00  0.00    +0.000 C 
ENDBRANCH  22  24
ENDBRANCH  21  22
ENDBRANCH  17  21
ENDBRANCH  11  18
ENDBRANCH   1  15
BRANCH   8  26
ATOM     26  C   UNL     1       5.286   4.761  17.662  0.00  0.00    +0.000 A 
ATOM     27  C   UNL     1       4.857   4.735  16.326  0.00  0.00    +0.000 A 
ATOM     28  C   UNL     1       5.613   5.348  15.336  0.00  0.00    +0.000 A 
ATOM     29  N   UNL     1       6.788   5.960  15.565  0.00  0.00    +0.000 NA
ATOM     30  C   UNL     1       7.214   5.970  16.843  0.00  0.00    +0.000 A 
ATOM     31  C   UNL     1       6.509   5.408  17.901  0.00  0.00    +0.000 A 
ENDBRANCH   8  26
TORSDOF 6
ENDMDL
MODEL 6
REMARK VINA RESULT:      -8.0      0.852      1.327
REMARK  Name = 
REMARK  8 active torsions:
REMARK  status: ('A' for Active; 'I' for Inactive)
REMARK    1  A    between atoms: C_1  and  N_2
REMARK    2  A    between atoms: N_2  and  C_3
REMARK    3  A    between atoms: N_2  and  C_4
REMARK    4  A    between atoms: C_4  and  C_5
REMARK    5  A    between atoms: C_5  and  N_6
REMARK    6  A    between atoms: C_7  and  C_9
REMARK    7  A    between atoms: C_13  and  C_14
REMARK    8  A    between atoms: C_21  and  C_22
REMARK                            x       y       z     vdW  Elec       q    Type
REMARK                         _______ _______ _______ _____ _____    ______ ____
ROOT
ATOM      1  C   UNL     1       2.198   6.541  19.883  0.00  0.00    +0.000 A 
ATOM      2  C   UNL     1       1.468   5.837  20.820  0.00  0.00    +0.000 A 
ATOM      3  C   UNL     1       1.809   4.508  21.072  0.00  0.00    +0.000 A 
ATOM      4  C   UNL     1       2.845   3.889  20.395  0.00  0.00    +0.000 A 
ATOM      5  N   UNL     1       3.119   2.605  20.686  0.00  0.00    +0.000 NA
ATOM      6  C   UNL     1       4.113   2.017  20.003  0.00  0.00    +0.000 A 
ATOM      7  C   UNL     1       4.840   2.657  19.018  0.00  0.00    +0.000 A 
ATOM      8  C   UNL     1       4.562   4.004  18.706  0.00  0.00    +0.000 A 
ATOM      9  C   UNL     1       3.541   4.656  19.436  0.00  0.00    +0.000 A 
ATOM     10  N   UNL     1       3.224   5.956  19.222  0.00  0.00    +0.000 NA
ENDROOT
BRANCH   1  15
ATOM     11  C   UNL     1       0.911  10.125  19.899  0.00  0.00    +0.000 A 
ATOM     12  C   UNL     1       1.301  10.567  18.631  0.00  0.00    +0.000 A 
ATOM     13  C   UNL     1       1.986   9.702  17.785  0.00  0.00    +0.000 A 
ATOM     14  C   UNL     1       2.277   8.402  18.200  0.00  0.00    +0.000 A 
ATOM     15  C   UNL     1       1.916   7.934  19.482  0.00  0.00    +0.000 A 
ATOM     16  C   UNL     1       1.236   8.829  20.329  0.00  0.00    +0.000 A 
BRANCH  11  18
ATOM     17  N   UNL     1      -0.999  11.562  20.329  0.00  0.00    +0.000 N 
ATOM     18  C   UNL     1       0.163  11.017  20.824  0.00  0.00    +0.000 C 
ATOM     19  O   UNL     1       0.571  11.195  21.965  0.00  0.00    +0.000 OA
ATOM     20  H   UNL     1      -1.442  11.143  19.518  0.00  0.00    +0.000 HD
BRANCH  17  21
ATOM     21  C   UNL     1      -1.840  12.379  21.180  0.00  0.00    +0.000 C 
BRANCH  21  22
ATOM     22  C   UNL     1      -1.575  13.888  21.019  0.00  0.00    +0.000 C 
BRANCH  22  24
ATOM     23  C   UNL     1      -1.385  13.749  23.442  0.00  0.00    +0.000 C 
ATOM     24  N   UNL     1      -1.124  14.569  22.255  0.00  0.00    +0.000 NA
ATOM     25  C   UNL     1       0.317  14.840  22.169  0.00  0.00    +0.000 C 
ENDBRANCH  22  24
ENDBRANCH  21  22
ENDBRANCH  17  21
ENDBRANCH  11  18
ENDBRANCH   1  15
BRANCH   8  26
ATOM     26  C   UNL     1       5.329   4.680  17.611  0.00  0.00    +0.000 A 
ATOM     27  C   UNL     1       5.010   4.507  16.256  0.00  0.00    +0.000 A 
ATOM     28  C   UNL     1       5.746   5.159  15.276  0.00  0.00    +0.000 A 
ATOM     29  N   UNL     1       6.804   5.948  15.535  0.00  0.00    +0.000 NA
ATOM     30  C   UNL     1       7.126   6.101  16.835  0.00  0.00    +0.000 A 
ATOM     31  C   UNL     1       6.428   5.511  17.883  0.00  0.00    +0.000 A 
ENDBRANCH   8  26
TORSDOF 6
ENDMDL
MODEL 7
REMARK VINA RESULT:      -8.0      0.803      1.121
REMARK  Name = 
REMARK  8 active torsions:
REMARK  status: ('A' for Active; 'I' for Inactive)
REMARK    1  A    between atoms: C_1  and  N_2
REMARK    2  A    between atoms: N_2  and  C_3
REMARK    3  A    between atoms: N_2  and  C_4
REMARK    4  A    between atoms: C_4  and  C_5
REMARK    5  A    between atoms: C_5  and  N_6
REMARK    6  A    between atoms: C_7  and  C_9
REMARK    7  A    between atoms: C_13  and  C_14
REMARK    8  A    between atoms: C_21  and  C_22
REMARK                            x       y       z     vdW  Elec       q    Type
REMARK                         _______ _______ _______ _____ _____    ______ ____
ROOT
ATOM      1  C   UNL     1       2.163   6.564  19.911  0.00  0.00    +0.000 A 
ATOM      2  C   UNL     1       1.415   5.862  20.835  0.00  0.00    +0.000 A 
ATOM      3  C   UNL     1       1.747   4.532  21.093  0.00  0.00    +0.000 A 
ATOM      4  C   UNL     1       2.793   3.910  20.434  0.00  0.00    +0.000 A 
ATOM      5  N   UNL     1       3.058   2.625  20.729  0.00  0.00    +0.000 NA
ATOM      6  C   UNL     1       4.062   2.034  20.063  0.00  0.00    +0.000 A 
ATOM      7  C   UNL     1       4.808   2.672  19.092  0.00  0.00    +0.000 A 
ATOM      8  C   UNL     1       4.539   4.019  18.776  0.00  0.00    +0.000 A 
ATOM      9  C   UNL     1       3.508   4.674  19.487  0.00  0.00    +0.000 A 
ATOM     10  N   UNL     1       3.199   5.976  19.269  0.00  0.00    +0.000 NA
ENDROOT
BRANCH   1  15
ATOM     11  C   UNL     1       1.029  10.199  19.972  0.00  0.00    +0.000 A 
ATOM     12  C   UNL     1       1.290  10.595  18.656  0.00  0.00    +0.000 A 
ATOM     13  C   UNL     1       1.840   9.682  17.763  0.00  0.00    +0.000 A 
ATOM     14  C   UNL     1       2.125   8.381  18.179  0.00  0.00    +0.000 A 
ATOM     15  C   UNL     1       1.893   7.958  19.506  0.00  0.00    +0.000 A 
ATOM     16  C   UNL     1       1.349   8.901  20.398  0.00  0.00    +0.000 A 
BRANCH  11  18
ATOM     17  N   UNL     1      -0.885  10.904  21.290  0.00  0.00    +0.000 N 
ATOM     18  C   UNL     1       0.426  11.143  20.950  0.00  0.00    +0.000 C 
ATOM     19  O   UNL     1       1.106  12.041  21.432  0.00  0.00    +0.000 OA
ATOM     20  H   UNL     1      -1.290   9.991  21.111  0.00  0.00    +0.000 HD
BRANCH  17  21
ATOM     21  C   UNL     1      -1.536  11.719  22.295  0.00  0.00    +0.000 C 
BRANCH  21  22
ATOM     22  C   UNL     1      -2.682  12.577  21.726  0.00  0.00    +0.000 C 
BRANCH  22  24
ATOM     23  C   UNL     1      -4.967  13.232  22.256  0.00  0.00    +0.000 C 
ATOM     24  N   UNL     1      -3.588  13.152  22.749  0.00  0.00    +0.000 NA
ATOM     25  C   UNL     1      -3.560  12.315  23.956  0.00  0.00    +0.000 C 
ENDBRANCH  22  24
ENDBRANCH  21  22
ENDBRANCH  17  21
ENDBRANCH  11  18
ENDBRANCH   1  15
BRANCH   8  26
ATOM     26  C   UNL     1       5.328   4.694  17.695  0.00  0.00    +0.000 A 
ATOM     27  C   UNL     1       6.470   5.463  17.969  0.00  0.00    +0.000 A 
ATOM     28  C   UNL     1       7.173   6.065  16.934  0.00  0.00    +0.000 A 
ATOM     29  N   UNL     1       6.809   5.992  15.642  0.00  0.00    +0.000 NA
ATOM     30  C   UNL     1       5.702   5.271  15.376  0.00  0.00    +0.000 A 
ATOM     31  C   UNL     1       4.954   4.610  16.344  0.00  0.00    +0.000 A 
ENDBRANCH   8  26
TORSDOF 6
ENDMDL
MODEL 8
REMARK VINA RESULT:      -7.8      0.928      1.253
REMARK  Name = 
REMARK  8 active torsions:
REMARK  status: ('A' for Active; 'I' for Inactive)
REMARK    1  A    between atoms: C_1  and  N_2
REMARK    2  A    between atoms: N_2  and  C_3
REMARK    3  A    between atoms: N_2  and  C_4
REMARK    4  A    between atoms: C_4  and  C_5
REMARK    5  A    between atoms: C_5  and  N_6
REMARK    6  A    between atoms: C_7  and  C_9
REMARK    7  A    between atoms: C_13  and  C_14
REMARK    8  A    between atoms: C_21  and  C_22
REMARK                            x       y       z     vdW  Elec       q    Type
REMARK                         _______ _______ _______ _____ _____    ______ ____
ROOT
ATOM      1  C   UNL     1       2.159   6.494  19.925  0.00  0.00    +0.000 A 
ATOM      2  C   UNL     1       1.330   5.724  20.717  0.00  0.00    +0.000 A 
ATOM      3  C   UNL     1       1.689   4.401  20.972  0.00  0.00    +0.000 A 
ATOM      4  C   UNL     1       2.841   3.851  20.439  0.00  0.00    +0.000 A 
ATOM      5  N   UNL     1       3.126   2.568  20.724  0.00  0.00    +0.000 NA
ATOM      6  C   UNL     1       4.236   2.048  20.179  0.00  0.00    +0.000 A 
ATOM      7  C   UNL     1       5.073   2.755  19.337  0.00  0.00    +0.000 A 
ATOM      8  C   UNL     1       4.783   4.101  19.033  0.00  0.00    +0.000 A 
ATOM      9  C   UNL     1       3.637   4.682  19.622  0.00  0.00    +0.000 A 
ATOM     10  N   UNL     1       3.298   5.977  19.407  0.00  0.00    +0.000 NA
ENDROOT
BRANCH   1  15
ATOM     11  C   UNL     1       0.901  10.089  19.980  0.00  0.00    +0.000 A 
ATOM     12  C   UNL     1       1.262  10.529  18.702  0.00  0.00    +0.000 A 
ATOM     13  C   UNL     1       1.917   9.661  17.837  0.00  0.00    +0.000 A 
ATOM     14  C   UNL     1       2.209   8.357  18.243  0.00  0.00    +0.000 A 
ATOM     15  C   UNL     1       1.877   7.890  19.533  0.00  0.00    +0.000 A 
ATOM     16  C   UNL     1       1.227   8.789  20.399  0.00  0.00    +0.000 A 
BRANCH  11  18
ATOM     17  N   UNL     1       0.479  12.325  20.825  0.00  0.00    +0.000 N 
ATOM     18  C   UNL     1       0.185  10.985  20.926  0.00  0.00    +0.000 C 
ATOM     19  O   UNL     1      -0.640  10.520  21.703  0.00  0.00    +0.000 OA
ATOM     20  H   UNL     1       0.915  12.680  19.981  0.00  0.00    +0.000 HD
BRANCH  17  21
ATOM     21  C   UNL     1      -0.226  13.287  21.648  0.00  0.00    +0.000 C 
BRANCH  21  22
ATOM     22  C   UNL     1      -1.287  14.086  20.866  0.00  0.00    +0.000 C 
BRANCH  22  24
ATOM     23  C   UNL     1      -3.174  12.680  20.241  0.00  0.00    +0.000 C 
ATOM     24  N   UNL     1      -2.688  13.709  21.167  0.00  0.00    +0.000 NA
ATOM     25  C   UNL     1      -2.774  13.194  22.540  0.00  0.00    +0.000 C 
ENDBRANCH  22  24
ENDBRANCH  21  22
ENDBRANCH  17  21
ENDBRANCH  11  18
ENDBRANCH   1  15
BRANCH   8  26
ATOM     26  C   UNL     1       5.674   4.851  18.090  0.00  0.00    +0.000 A 
ATOM     27  C   UNL     1       6.627   5.778  18.538  0.00  0.00    +0.000 A 
ATOM     28  C   UNL     1       7.435   6.445  17.627  0.00  0.00    +0.000 A 
ATOM     29  N   UNL     1       7.348   6.289  16.295  0.00  0.00    +0.000 NA
ATOM     30  C   UNL     1       6.421   5.413  15.859  0.00  0.00    +0.000 A 
ATOM     31  C   UNL     1       5.590   4.680  16.699  0.00  0.00    +0.000 A 
ENDBRANCH   8  26
TORSDOF 6
ENDMDL
MODEL 9
REMARK VINA RESULT:      -7.8      0.891      1.043
REMARK  Name = 
REMARK  8 active torsions:
REMARK  status: ('A' for Active; 'I' for Inactive)
REMARK    1  A    between atoms: C_1  and  N_2
REMARK    2  A    between atoms: N_2  and  C_3
REMARK    3  A    between atoms: N_2  and  C_4
REMARK    4  A    between atoms: C_4  and  C_5
REMARK    5  A    between atoms: C_5  and  N_6
REMARK    6  A    between atoms: C_7  and  C_9
REMARK    7  A    between atoms: C_13  and  C_14
REMARK    8  A    between atoms: C_21  and  C_22
REMARK                            x       y       z     vdW  Elec       q    Type
REMARK                         _______ _______ _______ _____ _____    ______ ____
ROOT
ATOM      1  C   UNL     1       2.137   6.543  19.932  0.00  0.00    +0.000 A 
ATOM      2  C   UNL     1       1.321   5.790  20.754  0.00  0.00    +0.000 A 
ATOM      3  C   UNL     1       1.679   4.469  21.022  0.00  0.00    +0.000 A 
ATOM      4  C   UNL     1       2.817   3.904  20.472  0.00  0.00    +0.000 A 
ATOM      5  N   UNL     1       3.102   2.625  20.771  0.00  0.00    +0.000 NA
ATOM      6  C   UNL     1       4.197   2.090  20.209  0.00  0.00    +0.000 A 
ATOM      7  C   UNL     1       5.019   2.780  19.339  0.00  0.00    +0.000 A 
ATOM      8  C   UNL     1       4.729   4.123  19.020  0.00  0.00    +0.000 A 
ATOM      9  C   UNL     1       3.599   4.719  19.625  0.00  0.00    +0.000 A 
ATOM     10  N   UNL     1       3.262   6.012  19.398  0.00  0.00    +0.000 NA
ENDROOT
BRANCH   1  15
ATOM     11  C   UNL     1       0.846  10.126  19.933  0.00  0.00    +0.000 A 
ATOM     12  C   UNL     1       1.238  10.564  18.664  0.00  0.00    +0.000 A 
ATOM     13  C   UNL     1       1.925   9.697  17.822  0.00  0.00    +0.000 A 
ATOM     14  C   UNL     1       2.217   8.398  18.243  0.00  0.00    +0.000 A 
ATOM     15  C   UNL     1       1.854   7.935  19.526  0.00  0.00    +0.000 A 
ATOM     16  C   UNL     1       1.172   8.832  20.368  0.00  0.00    +0.000 A 
BRANCH  11  18
ATOM     17  N   UNL     1      -0.947  11.722  20.297  0.00  0.00    +0.000 N 
ATOM     18  C   UNL     1       0.096  11.021  20.854  0.00  0.00    +0.000 C 
ATOM     19  O   UNL     1       0.397  11.068  22.041  0.00  0.00    +0.000 OA
ATOM     20  H   UNL     1      -1.341  11.416  19.413  0.00  0.00    +0.000 HD
BRANCH  17  21
ATOM     21  C   UNL     1      -1.788  12.558  21.128  0.00  0.00    +0.000 C 
BRANCH  21  22
ATOM     22  C   UNL     1      -1.830  14.026  20.661  0.00  0.00    +0.000 C 
BRANCH  22  24
ATOM     23  C   UNL     1      -0.554  14.375  22.704  0.00  0.00    +0.000 C 
ATOM     24  N   UNL     1      -0.920  14.933  21.398  0.00  0.00    +0.000 NA
ATOM     25  C   UNL     1       0.301  15.150  20.612  0.00  0.00    +0.000 C 
ENDBRANCH  22  24
ENDBRANCH  21  22
ENDBRANCH  17  21
ENDBRANCH  11  18
ENDBRANCH   1  15
BRANCH   8  26
ATOM     26  C   UNL     1       5.603   4.853  18.047  0.00  0.00    +0.000 A 
ATOM     27  C   UNL     1       6.629   5.716  18.462  0.00  0.00    +0.000 A 
ATOM     28  C   UNL     1       7.418   6.368  17.524  0.00  0.00    +0.000 A 
ATOM     29  N   UNL     1       7.245   6.256  16.195  0.00  0.00    +0.000 NA
ATOM     30  C   UNL     1       6.248   5.444  15.792  0.00  0.00    +0.000 A 
ATOM     31  C   UNL     1       5.429   4.730  16.659  0.00  0.00    +0.000 A 
ENDBRANCH   8  26
TORSDOF 6
ENDMDL
