MODEL 1
REMARK VINA RESULT:      -8.8      0.000      0.000
REMARK  Name = 
REMARK  3 active torsions:
REMARK  status: ('A' for Active; 'I' for Inactive)
REMARK    1  A    between atoms: C_6  and  C_7
REMARK    2  A    between atoms: C_12  and  N_13
REMARK    3  A    between atoms: C_14  and  C_16
REMARK                            x       y       z     vdW  Elec       q    Type
REMARK                         _______ _______ _______ _____ _____    ______ ____
ROOT
ATOM      1  C   UNL     1       3.606   4.859  17.728  0.00  0.00    +0.000 A 
ATOM      2  C   UNL     1       4.402   4.212  16.754  0.00  0.00    +0.000 A 
ATOM      3  C   UNL     1       5.269   4.931  15.933  0.00  0.00    +0.000 A 
ATOM      4  C   UNL     1       5.375   6.311  16.066  0.00  0.00    +0.000 A 
ATOM      5  C   UNL     1       4.602   6.979  17.013  0.00  0.00    +0.000 A 
ATOM      6  C   UNL     1       3.712   6.273  17.842  0.00  0.00    +0.000 A 
ENDROOT
BRANCH   1  12
ATOM      7  N   UNL     1       2.204   3.232  22.126  0.00  0.00    +0.000 N 
ATOM      8  C   UNL     1       2.017   3.257  20.726  0.00  0.00    +0.000 A 
ATOM      9  N   UNL     1       0.965   2.595  20.180  0.00  0.00    +0.000 NA
ATOM     10  C   UNL     1       0.737   2.632  18.843  0.00  0.00    +0.000 A 
ATOM     11  C   UNL     1       1.578   3.368  18.017  0.00  0.00    +0.000 A 
ATOM     12  C   UNL     1       2.675   4.049  18.580  0.00  0.00    +0.000 A 
ATOM     13  N   UNL     1       2.867   3.963  19.929  0.00  0.00    +0.000 NA
ATOM     14  H   UNL     1       1.546   2.711  22.726  0.00  0.00    +0.000 HD
ATOM     15  H   UNL     1       2.969   3.763  22.564  0.00  0.00    +0.000 HD
ENDBRANCH   1  12
BRANCH   6  16
ATOM     16  N   UNL     1       2.954   7.018  18.782  0.00  0.00    +0.000 N 
ATOM     17  C   UNL     1       2.243   8.132  18.430  0.00  0.00    +0.000 C 
ATOM     18  O   UNL     1       2.306   8.540  17.278  0.00  0.00    +0.000 OA
ATOM     19  H   UNL     1       2.896   6.624  19.728  0.00  0.00    +0.000 HD
BRANCH  17  20
ATOM     20  C   UNL     1       1.361   8.862  19.406  0.00  0.00    +0.000 A 
ATOM     21  C   UNL     1       1.341   8.555  20.787  0.00  0.00    +0.000 A 
ATOM     22  C   UNL     1       0.502   9.251  21.663  0.00  0.00    +0.000 A 
ATOM     23  F   UNL     1       0.500   8.939  22.983  0.00  0.00    +0.000 F 
ATOM     24  C   UNL     1      -0.331  10.260  21.187  0.00  0.00    +0.000 A 
ATOM     25  C   UNL     1      -0.331  10.580  19.829  0.00  0.00    +0.000 A 
ATOM     26  F   UNL     1      -1.146  11.561  19.370  0.00  0.00    +0.000 F 
ATOM     27  C   UNL     1       0.506   9.889  18.942  0.00  0.00    +0.000 A 
ENDBRANCH  17  20
ENDBRANCH   6  16
TORSDOF 3
ENDMDL
MODEL 2
REMARK VINA RESULT:      -8.8      0.095      1.694
REMARK  Name = 
REMARK  3 active torsions:
REMARK  status: ('A' for Active; 'I' for Inactive)
REMARK    1  A    between atoms: C_6  and  C_7
REMARK    2  A    between atoms: C_12  and  N_13
REMARK    3  A    between atoms: C_14  and  C_16
REMARK                            x       y       z     vdW  Elec       q    Type
REMARK                         _______ _______ _______ _____ _____    ______ ____
ROOT
ATOM      1  C   UNL     1       3.632   4.784  17.716  0.00  0.00    +0.000 A 
ATOM      2  C   UNL     1       4.433   4.122  16.756  0.00  0.00    +0.000 A 
ATOM      3  C   UNL     1       5.304   4.828  15.928  0.00  0.00    +0.000 A 
ATOM      4  C   UNL     1       5.410   6.209  16.040  0.00  0.00    +0.000 A 
ATOM      5  C   UNL     1       4.632   6.892  16.973  0.00  0.00    +0.000 A 
ATOM      6  C   UNL     1       3.739   6.200  17.809  0.00  0.00    +0.000 A 
ENDROOT
BRANCH   1  12
ATOM      7  N   UNL     1       2.190   3.251  22.135  0.00  0.00    +0.000 N 
ATOM      8  C   UNL     1       2.019   3.241  20.733  0.00  0.00    +0.000 A 
ATOM      9  N   UNL     1       0.978   2.560  20.190  0.00  0.00    +0.000 NA
ATOM     10  C   UNL     1       0.765   2.564  18.850  0.00  0.00    +0.000 A 
ATOM     11  C   UNL     1       1.611   3.286  18.017  0.00  0.00    +0.000 A 
ATOM     12  C   UNL     1       2.696   3.987  18.577  0.00  0.00    +0.000 A 
ATOM     13  N   UNL     1       2.874   3.935  19.929  0.00  0.00    +0.000 NA
ATOM     14  H   UNL     1       1.527   2.739  22.738  0.00  0.00    +0.000 HD
ATOM     15  H   UNL     1       2.945   3.797  22.568  0.00  0.00    +0.000 HD
ENDBRANCH   1  12
BRANCH   6  16
ATOM     16  N   UNL     1       2.976   6.959  18.734  0.00  0.00    +0.000 N 
ATOM     17  C   UNL     1       2.288   8.082  18.366  0.00  0.00    +0.000 C 
ATOM     18  O   UNL     1       2.376   8.485  17.214  0.00  0.00    +0.000 OA
ATOM     19  H   UNL     1       2.897   6.569  19.680  0.00  0.00    +0.000 HD
BRANCH  17  20
ATOM     20  C   UNL     1       1.402   8.829  19.326  0.00  0.00    +0.000 A 
ATOM     21  C   UNL     1       0.525   9.856  18.906  0.00  0.00    +0.000 A 
ATOM     22  C   UNL     1      -0.279  10.533  19.829  0.00  0.00    +0.000 A 
ATOM     23  F   UNL     1      -1.112  11.516  19.404  0.00  0.00    +0.000 F 
ATOM     24  C   UNL     1      -0.226  10.206  21.182  0.00  0.00    +0.000 A 
ATOM     25  C   UNL     1       0.632   9.197  21.620  0.00  0.00    +0.000 A 
ATOM     26  F   UNL     1       0.682   8.884  22.939  0.00  0.00    +0.000 F 
ATOM     27  C   UNL     1       1.441   8.512  20.704  0.00  0.00    +0.000 A 
ENDBRANCH  17  20
ENDBRANCH   6  16
TORSDOF 3
ENDMDL
MODEL 3
REMARK VINA RESULT:      -8.7      5.268      6.732
REMARK  Name = 
REMARK  3 active torsions:
REMARK  status: ('A' for Active; 'I' for Inactive)
REMARK    1  A    between atoms: C_6  and  C_7
REMARK    2  A    between atoms: C_12  and  N_13
REMARK    3  A    between atoms: C_14  and  C_16
REMARK                            x       y       z     vdW  Elec       q    Type
REMARK                         _______ _______ _______ _____ _____    ______ ____
ROOT
ATOM      1  C   UNL     1       7.034   4.891  15.077  0.00  0.00    +0.000 A 
ATOM      2  C   UNL     1       7.682   5.355  13.908  0.00  0.00    +0.000 A 
ATOM      3  C   UNL     1       7.394   4.813  12.656  0.00  0.00    +0.000 A 
ATOM      4  C   UNL     1       6.446   3.802  12.533  0.00  0.00    +0.000 A 
ATOM      5  C   UNL     1       5.793   3.321  13.666  0.00  0.00    +0.000 A 
ATOM      6  C   UNL     1       6.078   3.847  14.938  0.00  0.00    +0.000 A 
ENDROOT
BRANCH   1  12
ATOM      7  N   UNL     1       7.843   8.820  17.882  0.00  0.00    +0.000 N 
ATOM      8  C   UNL     1       7.789   7.415  17.750  0.00  0.00    +0.000 A 
ATOM      9  N   UNL     1       7.997   6.632  18.839  0.00  0.00    +0.000 NA
ATOM     10  C   UNL     1       7.912   5.281  18.753  0.00  0.00    +0.000 A 
ATOM     11  C   UNL     1       7.593   4.683  17.539  0.00  0.00    +0.000 A 
ATOM     12  C   UNL     1       7.385   5.493  16.406  0.00  0.00    +0.000 A 
ATOM     13  N   UNL     1       7.499   6.845  16.546  0.00  0.00    +0.000 NA
ATOM     14  H   UNL     1       8.043   9.244  18.801  0.00  0.00    +0.000 HD
ATOM     15  H   UNL     1       7.645   9.431  17.079  0.00  0.00    +0.000 HD
ENDBRANCH   1  12
BRANCH   6  16
ATOM     16  N   UNL     1       5.377   3.307  16.048  0.00  0.00    +0.000 N 
ATOM     17  C   UNL     1       4.389   3.997  16.695  0.00  0.00    +0.000 C 
ATOM     18  O   UNL     1       4.137   5.143  16.347  0.00  0.00    +0.000 OA
ATOM     19  H   UNL     1       5.593   2.333  16.286  0.00  0.00    +0.000 HD
BRANCH  17  20
ATOM     20  C   UNL     1       3.582   3.387  17.807  0.00  0.00    +0.000 A 
ATOM     21  C   UNL     1       2.196   3.130  17.686  0.00  0.00    +0.000 A 
ATOM     22  C   UNL     1       1.476   2.568  18.745  0.00  0.00    +0.000 A 
ATOM     23  F   UNL     1       0.148   2.332  18.607  0.00  0.00    +0.000 F 
ATOM     24  C   UNL     1       2.116   2.252  19.942  0.00  0.00    +0.000 A 
ATOM     25  C   UNL     1       3.482   2.496  20.085  0.00  0.00    +0.000 A 
ATOM     26  F   UNL     1       4.100   2.190  21.253  0.00  0.00    +0.000 F 
ATOM     27  C   UNL     1       4.212   3.059  19.030  0.00  0.00    +0.000 A 
ENDBRANCH  17  20
ENDBRANCH   6  16
TORSDOF 3
ENDMDL
MODEL 4
REMARK VINA RESULT:      -8.7      3.587      5.739
REMARK  Name = 
REMARK  3 active torsions:
REMARK  status: ('A' for Active; 'I' for Inactive)
REMARK    1  A    between atoms: C_6  and  C_7
REMARK    2  A    between atoms: C_12  and  N_13
REMARK    3  A    between atoms: C_14  and  C_16
REMARK                            x       y       z     vdW  Elec       q    Type
REMARK                         _______ _______ _______ _____ _____    ______ ____
ROOT
ATOM      1  C   UNL     1       6.641   5.081  15.510  0.00  0.00    +0.000 A 
ATOM      2  C   UNL     1       7.487   4.780  14.416  0.00  0.00    +0.000 A 
ATOM      3  C   UNL     1       6.997   4.151  13.272  0.00  0.00    +0.000 A 
ATOM      4  C   UNL     1       5.651   3.816  13.182  0.00  0.00    +0.000 A 
ATOM      5  C   UNL     1       4.792   4.096  14.242  0.00  0.00    +0.000 A 
ATOM      6  C   UNL     1       5.269   4.718  15.409  0.00  0.00    +0.000 A 
ENDROOT
BRANCH   1  12
ATOM      7  N   UNL     1       8.125   9.118  17.847  0.00  0.00    +0.000 N 
ATOM      8  C   UNL     1       7.943   7.717  17.842  0.00  0.00    +0.000 A 
ATOM      9  N   UNL     1       8.233   7.001  18.958  0.00  0.00    +0.000 NA
ATOM     10  C   UNL     1       8.031   5.660  18.998  0.00  0.00    +0.000 A 
ATOM     11  C   UNL     1       7.506   5.005  17.889  0.00  0.00    +0.000 A 
ATOM     12  C   UNL     1       7.213   5.745  16.728  0.00  0.00    +0.000 A 
ATOM     13  N   UNL     1       7.452   7.089  16.737  0.00  0.00    +0.000 NA
ATOM     14  H   UNL     1       8.480   9.589  18.693  0.00  0.00    +0.000 HD
ATOM     15  H   UNL     1       7.870   9.683  17.027  0.00  0.00    +0.000 HD
ENDBRANCH   1  12
BRANCH   6  16
ATOM     16  N   UNL     1       4.339   4.970  16.451  0.00  0.00    +0.000 N 
ATOM     17  C   UNL     1       3.990   4.016  17.366  0.00  0.00    +0.000 C 
ATOM     18  O   UNL     1       4.447   2.886  17.253  0.00  0.00    +0.000 OA
ATOM     19  H   UNL     1       4.007   5.937  16.534  0.00  0.00    +0.000 HD
BRANCH  17  20
ATOM     20  C   UNL     1       3.081   4.314  18.527  0.00  0.00    +0.000 A 
ATOM     21  C   UNL     1       2.342   3.307  19.190  0.00  0.00    +0.000 A 
ATOM     22  C   UNL     1       1.500   3.623  20.261  0.00  0.00    +0.000 A 
ATOM     23  F   UNL     1       0.800   2.640  20.881  0.00  0.00    +0.000 F 
ATOM     24  C   UNL     1       1.375   4.941  20.692  0.00  0.00    +0.000 A 
ATOM     25  C   UNL     1       2.092   5.953  20.053  0.00  0.00    +0.000 A 
ATOM     26  F   UNL     1       1.964   7.236  20.474  0.00  0.00    +0.000 F 
ATOM     27  C   UNL     1       2.939   5.647  18.979  0.00  0.00    +0.000 A 
ENDBRANCH  17  20
ENDBRANCH   6  16
TORSDOF 3
ENDMDL
MODEL 5
REMARK VINA RESULT:      -8.7      5.223      6.549
REMARK  Name = 
REMARK  3 active torsions:
REMARK  status: ('A' for Active; 'I' for Inactive)
REMARK    1  A    between atoms: C_6  and  C_7
REMARK    2  A    between atoms: C_12  and  N_13
REMARK    3  A    between atoms: C_14  and  C_16
REMARK                            x       y       z     vdW  Elec       q    Type
REMARK                         _______ _______ _______ _____ _____    ______ ____
ROOT
ATOM      1  C   UNL     1       7.008   4.918  15.160  0.00  0.00    +0.000 A 
ATOM      2  C   UNL     1       7.636   5.365  13.973  0.00  0.00    +0.000 A 
ATOM      3  C   UNL     1       7.333   4.802  12.735  0.00  0.00    +0.000 A 
ATOM      4  C   UNL     1       6.388   3.786  12.643  0.00  0.00    +0.000 A 
ATOM      5  C   UNL     1       5.754   3.320  13.793  0.00  0.00    +0.000 A 
ATOM      6  C   UNL     1       6.056   3.867  15.052  0.00  0.00    +0.000 A 
ENDROOT
BRANCH   1  12
ATOM      7  N   UNL     1       7.902   8.893  17.872  0.00  0.00    +0.000 N 
ATOM      8  C   UNL     1       7.822   7.486  17.772  0.00  0.00    +0.000 A 
ATOM      9  N   UNL     1       8.021   6.724  18.878  0.00  0.00    +0.000 NA
ATOM     10  C   UNL     1       7.911   5.373  18.822  0.00  0.00    +0.000 A 
ATOM     11  C   UNL     1       7.576   4.755  17.623  0.00  0.00    +0.000 A 
ATOM     12  C   UNL     1       7.377   5.542  16.473  0.00  0.00    +0.000 A 
ATOM     13  N   UNL     1       7.516   6.896  16.582  0.00  0.00    +0.000 NA
ATOM     14  H   UNL     1       8.115   9.334  18.781  0.00  0.00    +0.000 HD
ATOM     15  H   UNL     1       7.711   9.490  17.057  0.00  0.00    +0.000 HD
ENDBRANCH   1  12
BRANCH   6  16
ATOM     16  N   UNL     1       5.374   3.342  16.181  0.00  0.00    +0.000 N 
ATOM     17  C   UNL     1       4.344   4.007  16.787  0.00  0.00    +0.000 C 
ATOM     18  O   UNL     1       4.033   5.120  16.384  0.00  0.00    +0.000 OA
ATOM     19  H   UNL     1       5.640   2.393  16.466  0.00  0.00    +0.000 HD
BRANCH  17  20
ATOM     20  C   UNL     1       3.560   3.406  17.921  0.00  0.00    +0.000 A 
ATOM     21  C   UNL     1       4.155   3.060  19.157  0.00  0.00    +0.000 A 
ATOM     22  C   UNL     1       3.395   2.496  20.185  0.00  0.00    +0.000 A 
ATOM     23  F   UNL     1       3.987   2.171  21.362  0.00  0.00    +0.000 F 
ATOM     24  C   UNL     1       2.033   2.263  20.008  0.00  0.00    +0.000 A 
ATOM     25  C   UNL     1       1.423   2.594  18.798  0.00  0.00    +0.000 A 
ATOM     26  F   UNL     1       0.097   2.362  18.628  0.00  0.00    +0.000 F 
ATOM     27  C   UNL     1       2.176   3.160  17.760  0.00  0.00    +0.000 A 
ENDBRANCH  17  20
ENDBRANCH   6  16
TORSDOF 3
ENDMDL
MODEL 6
REMARK VINA RESULT:      -8.6      3.584      5.869
REMARK  Name = 
REMARK  3 active torsions:
REMARK  status: ('A' for Active; 'I' for Inactive)
REMARK    1  A    between atoms: C_6  and  C_7
REMARK    2  A    between atoms: C_12  and  N_13
REMARK    3  A    between atoms: C_14  and  C_16
REMARK                            x       y       z     vdW  Elec       q    Type
REMARK                         _______ _______ _______ _____ _____    ______ ____
ROOT
ATOM      1  C   UNL     1       6.649   5.101  15.517  0.00  0.00    +0.000 A 
ATOM      2  C   UNL     1       7.499   4.793  14.428  0.00  0.00    +0.000 A 
ATOM      3  C   UNL     1       7.011   4.167  13.282  0.00  0.00    +0.000 A 
ATOM      4  C   UNL     1       5.662   3.842  13.184  0.00  0.00    +0.000 A 
ATOM      5  C   UNL     1       4.800   4.129  14.240  0.00  0.00    +0.000 A 
ATOM      6  C   UNL     1       5.275   4.748  15.409  0.00  0.00    +0.000 A 
ENDROOT
BRANCH   1  12
ATOM      7  N   UNL     1       8.139   9.129  17.866  0.00  0.00    +0.000 N 
ATOM      8  C   UNL     1       7.952   7.728  17.858  0.00  0.00    +0.000 A 
ATOM      9  N   UNL     1       8.236   7.010  18.974  0.00  0.00    +0.000 NA
ATOM     10  C   UNL     1       8.029   5.669  19.011  0.00  0.00    +0.000 A 
ATOM     11  C   UNL     1       7.507   5.018  17.899  0.00  0.00    +0.000 A 
ATOM     12  C   UNL     1       7.219   5.761  16.738  0.00  0.00    +0.000 A 
ATOM     13  N   UNL     1       7.462   7.104  16.750  0.00  0.00    +0.000 NA
ATOM     14  H   UNL     1       8.492   9.597  18.714  0.00  0.00    +0.000 HD
ATOM     15  H   UNL     1       7.888   9.697  17.046  0.00  0.00    +0.000 HD
ENDBRANCH   1  12
BRANCH   6  16
ATOM     16  N   UNL     1       4.341   5.008  16.446  0.00  0.00    +0.000 N 
ATOM     17  C   UNL     1       3.988   4.059  17.365  0.00  0.00    +0.000 C 
ATOM     18  O   UNL     1       4.444   2.929  17.261  0.00  0.00    +0.000 OA
ATOM     19  H   UNL     1       4.010   5.976  16.521  0.00  0.00    +0.000 HD
BRANCH  17  20
ATOM     20  C   UNL     1       3.074   4.365  18.521  0.00  0.00    +0.000 A 
ATOM     21  C   UNL     1       2.893   5.676  19.019  0.00  0.00    +0.000 A 
ATOM     22  C   UNL     1       2.041   5.921  20.100  0.00  0.00    +0.000 A 
ATOM     23  F   UNL     1       1.884   7.187  20.561  0.00  0.00    +0.000 F 
ATOM     24  C   UNL     1       1.354   4.872  20.706  0.00  0.00    +0.000 A 
ATOM     25  C   UNL     1       1.517   3.569  20.234  0.00  0.00    +0.000 A 
ATOM     26  F   UNL     1       0.849   2.550  20.830  0.00  0.00    +0.000 F 
ATOM     27  C   UNL     1       2.369   3.313  19.151  0.00  0.00    +0.000 A 
ENDBRANCH  17  20
ENDBRANCH   6  16
TORSDOF 3
ENDMDL
MODEL 7
REMARK VINA RESULT:      -8.6      4.268      6.266
REMARK  Name = 
REMARK  3 active torsions:
REMARK  status: ('A' for Active; 'I' for Inactive)
REMARK    1  A    between atoms: C_6  and  C_7
REMARK    2  A    between atoms: C_12  and  N_13
REMARK    3  A    between atoms: C_14  and  C_16
REMARK                            x       y       z     vdW  Elec       q    Type
REMARK                         _______ _______ _______ _____ _____    ______ ____
ROOT
ATOM      1  C   UNL     1       6.855   5.070  15.535  0.00  0.00    +0.000 A 
ATOM      2  C   UNL     1       7.406   5.356  14.263  0.00  0.00    +0.000 A 
ATOM      3  C   UNL     1       7.018   4.646  13.128  0.00  0.00    +0.000 A 
ATOM      4  C   UNL     1       6.063   3.639  13.226  0.00  0.00    +0.000 A 
ATOM      5  C   UNL     1       5.504   3.330  14.465  0.00  0.00    +0.000 A 
ATOM      6  C   UNL     1       5.892   4.027  15.622  0.00  0.00    +0.000 A 
ENDROOT
BRANCH   1  12
ATOM      7  N   UNL     1       8.486   5.200  20.148  0.00  0.00    +0.000 N 
ATOM      8  C   UNL     1       8.091   5.892  18.981  0.00  0.00    +0.000 A 
ATOM      9  N   UNL     1       8.187   7.245  18.941  0.00  0.00    +0.000 NA
ATOM     10  C   UNL     1       7.852   7.935  17.822  0.00  0.00    +0.000 A 
ATOM     11  C   UNL     1       7.420   7.252  16.691  0.00  0.00    +0.000 A 
ATOM     12  C   UNL     1       7.312   5.848  16.733  0.00  0.00    +0.000 A 
ATOM     13  N   UNL     1       7.645   5.207  17.890  0.00  0.00    +0.000 NA
ATOM     14  H   UNL     1       8.841   5.724  20.963  0.00  0.00    +0.000 HD
ATOM     15  H   UNL     1       8.463   4.172  20.182  0.00  0.00    +0.000 HD
ENDBRANCH   1  12
BRANCH   6  16
ATOM     16  N   UNL     1       5.283   3.657  16.850  0.00  0.00    +0.000 N 
ATOM     17  C   UNL     1       4.253   4.370  17.400  0.00  0.00    +0.000 C 
ATOM     18  O   UNL     1       3.878   5.397  16.849  0.00  0.00    +0.000 OA
ATOM     19  H   UNL     1       5.601   2.773  17.262  0.00  0.00    +0.000 HD
BRANCH  17  20
ATOM     20  C   UNL     1       3.545   3.922  18.649  0.00  0.00    +0.000 A 
ATOM     21  C   UNL     1       2.248   4.370  18.989  0.00  0.00    +0.000 A 
ATOM     22  C   UNL     1       1.624   3.938  20.163  0.00  0.00    +0.000 A 
ATOM     23  F   UNL     1       0.380   4.382  20.469  0.00  0.00    +0.000 F 
ATOM     24  C   UNL     1       2.276   3.055  21.022  0.00  0.00    +0.000 A 
ATOM     25  C   UNL     1       3.557   2.600  20.709  0.00  0.00    +0.000 A 
ATOM     26  F   UNL     1       4.189   1.743  21.549  0.00  0.00    +0.000 F 
ATOM     27  C   UNL     1       4.190   3.027  19.535  0.00  0.00    +0.000 A 
ENDBRANCH  17  20
ENDBRANCH   6  16
TORSDOF 3
ENDMDL
MODEL 8
REMARK VINA RESULT:      -8.6      4.246      6.060
REMARK  Name = 
REMARK  3 active torsions:
REMARK  status: ('A' for Active; 'I' for Inactive)
REMARK    1  A    between atoms: C_6  and  C_7
REMARK    2  A    between atoms: C_12  and  N_13
REMARK    3  A    between atoms: C_14  and  C_16
REMARK                            x       y       z     vdW  Elec       q    Type
REMARK                         _______ _______ _______ _____ _____    ______ ____
ROOT
ATOM      1  C   UNL     1       6.837   5.063  15.577  0.00  0.00    +0.000 A 
ATOM      2  C   UNL     1       7.376   5.346  14.300  0.00  0.00    +0.000 A 
ATOM      3  C   UNL     1       6.980   4.631  13.171  0.00  0.00    +0.000 A 
ATOM      4  C   UNL     1       6.028   3.623  13.281  0.00  0.00    +0.000 A 
ATOM      5  C   UNL     1       5.480   3.317  14.525  0.00  0.00    +0.000 A 
ATOM      6  C   UNL     1       5.876   4.019  15.677  0.00  0.00    +0.000 A 
ENDROOT
BRANCH   1  12
ATOM      7  N   UNL     1       8.425   5.219  20.204  0.00  0.00    +0.000 N 
ATOM      8  C   UNL     1       8.060   5.903  19.024  0.00  0.00    +0.000 A 
ATOM      9  N   UNL     1       8.192   7.253  18.965  0.00  0.00    +0.000 NA
ATOM     10  C   UNL     1       7.887   7.935  17.832  0.00  0.00    +0.000 A 
ATOM     11  C   UNL     1       7.447   7.246  16.708  0.00  0.00    +0.000 A 
ATOM     12  C   UNL     1       7.303   5.847  16.768  0.00  0.00    +0.000 A 
ATOM     13  N   UNL     1       7.607   5.214  17.939  0.00  0.00    +0.000 NA
ATOM     14  H   UNL     1       8.785   5.745  21.015  0.00  0.00    +0.000 HD
ATOM     15  H   UNL     1       8.375   4.193  20.253  0.00  0.00    +0.000 HD
ENDBRANCH   1  12
BRANCH   6  16
ATOM     16  N   UNL     1       5.279   3.652  16.911  0.00  0.00    +0.000 N 
ATOM     17  C   UNL     1       4.239   4.354  17.457  0.00  0.00    +0.000 C 
ATOM     18  O   UNL     1       3.844   5.367  16.896  0.00  0.00    +0.000 OA
ATOM     19  H   UNL     1       5.613   2.778  17.331  0.00  0.00    +0.000 HD
BRANCH  17  20
ATOM     20  C   UNL     1       3.544   3.907  18.714  0.00  0.00    +0.000 A 
ATOM     21  C   UNL     1       4.141   3.016  19.636  0.00  0.00    +0.000 A 
ATOM     22  C   UNL     1       3.461   2.617  20.790  0.00  0.00    +0.000 A 
ATOM     23  F   UNL     1       4.053   1.761  21.660  0.00  0.00    +0.000 F 
ATOM     24  C   UNL     1       2.178   3.093  21.051  0.00  0.00    +0.000 A 
ATOM     25  C   UNL     1       1.567   3.972  20.157  0.00  0.00    +0.000 A 
ATOM     26  F   UNL     1       0.317   4.431  20.412  0.00  0.00    +0.000 F 
ATOM     27  C   UNL     1       2.240   4.378  18.996  0.00  0.00    +0.000 A 
ENDBRANCH  17  20
ENDBRANCH   6  16
TORSDOF 3
ENDMDL
MODEL 9
REMARK VINA RESULT:      -8.5      3.408      5.579
REMARK  Name = 
REMARK  3 active torsions:
REMARK  status: ('A' for Active; 'I' for Inactive)
REMARK    1  A    between atoms: C_6  and  C_7
REMARK    2  A    between atoms: C_12  and  N_13
REMARK    3  A    between atoms: C_14  and  C_16
REMARK                            x       y       z     vdW  Elec       q    Type
REMARK                         _______ _______ _______ _____ _____    ______ ____
ROOT
ATOM      1  C   UNL     1       6.789   5.167  15.626  0.00  0.00    +0.000 A 
ATOM      2  C   UNL     1       7.469   5.283  14.390  0.00  0.00    +0.000 A 
ATOM      3  C   UNL     1       7.045   4.586  13.260  0.00  0.00    +0.000 A 
ATOM      4  C   UNL     1       5.926   3.764  13.326  0.00  0.00    +0.000 A 
ATOM      5  C   UNL     1       5.236   3.624  14.529  0.00  0.00    +0.000 A 
ATOM      6  C   UNL     1       5.656   4.310  15.682  0.00  0.00    +0.000 A 
ENDROOT
BRANCH   1  12
ATOM      7  N   UNL     1       8.418   5.224  20.241  0.00  0.00    +0.000 N 
ATOM      8  C   UNL     1       8.066   5.932  19.070  0.00  0.00    +0.000 A 
ATOM      9  N   UNL     1       8.240   7.278  19.024  0.00  0.00    +0.000 NA
ATOM     10  C   UNL     1       7.948   7.980  17.901  0.00  0.00    +0.000 A 
ATOM     11  C   UNL     1       7.478   7.318  16.773  0.00  0.00    +0.000 A 
ATOM     12  C   UNL     1       7.289   5.924  16.821  0.00  0.00    +0.000 A 
ATOM     13  N   UNL     1       7.583   5.269  17.982  0.00  0.00    +0.000 NA
ATOM     14  H   UNL     1       8.801   5.730  21.054  0.00  0.00    +0.000 HD
ATOM     15  H   UNL     1       8.336   4.200  20.280  0.00  0.00    +0.000 HD
ENDBRANCH   1  12
BRANCH   6  16
ATOM     16  N   UNL     1       4.908   4.119  16.873  0.00  0.00    +0.000 N 
ATOM     17  C   UNL     1       4.042   5.063  17.352  0.00  0.00    +0.000 C 
ATOM     18  O   UNL     1       3.950   6.136  16.771  0.00  0.00    +0.000 OA
ATOM     19  H   UNL     1       4.986   3.194  17.310  0.00  0.00    +0.000 HD
BRANCH  17  20
ATOM     20  C   UNL     1       3.178   4.820  18.559  0.00  0.00    +0.000 A 
ATOM     21  C   UNL     1       2.817   3.520  18.984  0.00  0.00    +0.000 A 
ATOM     22  C   UNL     1       2.005   3.333  20.107  0.00  0.00    +0.000 A 
ATOM     23  F   UNL     1       1.671   2.077  20.495  0.00  0.00    +0.000 F 
ATOM     24  C   UNL     1       1.537   4.429  20.827  0.00  0.00    +0.000 A 
ATOM     25  C   UNL     1       1.878   5.721  20.428  0.00  0.00    +0.000 A 
ATOM     26  F   UNL     1       1.417   6.786  21.130  0.00  0.00    +0.000 F 
ATOM     27  C   UNL     1       2.691   5.920  19.304  0.00  0.00    +0.000 A 
ENDBRANCH  17  20
ENDBRANCH   6  16
TORSDOF 3
ENDMDL
