MODEL 1
REMARK VINA RESULT:      -8.9      0.000      0.000
REMARK  Name = 
REMARK  7 active torsions:
REMARK  status: ('A' for Active; 'I' for Inactive)
REMARK    1  A    between atoms: C_1  and  N_2
REMARK    2  A    between atoms: C_8  and  S_9
REMARK    3  A    between atoms: S_9  and  N_12
REMARK    4  A    between atoms: N_12  and  C_13
REMARK    5  A    between atoms: C_13  and  C_14
REMARK    6  A    between atoms: C_14  and  C_15
REMARK    7  A    between atoms: N_17  and  C_18
REMARK                            x       y       z     vdW  Elec       q    Type
REMARK                         _______ _______ _______ _____ _____    ______ ____
ROOT
ATOM      1  N   UNL     1       7.261   6.756  17.942  0.00  0.00    +0.000 NA
ATOM      2  H   UNL     1       7.824   6.148  18.535  0.00  0.00    +0.000 HD
ENDROOT
BRANCH   1   3
ATOM      3  S   UNL     1       6.420   5.890  16.782  0.00  0.00    +0.000 S 
ATOM      4  O   UNL     1       7.328   4.863  16.308  0.00  0.00    +0.000 OA
ATOM      5  O   UNL     1       5.816   6.839  15.872  0.00  0.00    +0.000 OA
BRANCH   3  13
ATOM      6  C   UNL     1       1.466   3.218  20.889  0.00  0.00    +0.000 C 
ATOM      7  N   UNL     1       1.933   3.320  19.536  0.00  0.00    +0.000 N 
ATOM      8  C   UNL     1       1.316   2.805  18.418  0.00  0.00    +0.000 A 
ATOM      9  O   UNL     1       0.271   2.172  18.394  0.00  0.00    +0.000 OA
ATOM     10  O   UNL     1       2.052   3.102  17.258  0.00  0.00    +0.000 OA
ATOM     11  C   UNL     1       3.129   3.820  17.759  0.00  0.00    +0.000 A 
ATOM     12  C   UNL     1       4.147   4.362  17.005  0.00  0.00    +0.000 A 
ATOM     13  C   UNL     1       5.137   5.074  17.697  0.00  0.00    +0.000 A 
ATOM     14  C   UNL     1       5.087   5.223  19.103  0.00  0.00    +0.000 A 
ATOM     15  C   UNL     1       4.040   4.656  19.839  0.00  0.00    +0.000 A 
ATOM     16  C   UNL     1       3.076   3.965  19.133  0.00  0.00    +0.000 A 
ENDBRANCH   3  13
ENDBRANCH   1   3
BRANCH   1  17
ATOM     17  C   UNL     1       7.757   8.090  17.586  0.00  0.00    +0.000 C 
BRANCH  17  18
ATOM     18  C   UNL     1       8.686   8.623  18.663  0.00  0.00    +0.000 C 
BRANCH  18  19
ATOM     19  C   UNL     1       8.869  10.125  18.582  0.00  0.00    +0.000 C 
ATOM     20  O   UNL     1       8.281  10.812  17.755  0.00  0.00    +0.000 OA
ATOM     21  N   UNL     1       9.831  10.561  19.482  0.00  0.00    +0.000 N 
ATOM     22  H   UNL     1      10.371   9.845  19.952  0.00  0.00    +0.000 HD
BRANCH  21  23
ATOM     23  C   UNL     1      10.339  11.869  19.585  0.00  0.00    +0.000 A 
ATOM     24  C   UNL     1      10.000  12.755  20.611  0.00  0.00    +0.000 A 
ATOM     25  C   UNL     1      10.352  14.105  20.521  0.00  0.00    +0.000 A 
ATOM     26  C   UNL     1      11.015  14.567  19.390  0.00  0.00    +0.000 A 
ATOM     27  C   UNL     1      11.463  13.657  18.436  0.00  0.00    +0.000 A 
ATOM     28  C   UNL     1      11.163  12.306  18.545  0.00  0.00    +0.000 A 
ATOM     29  O   UNL     1      12.129  14.066  17.311  0.00  0.00    +0.000 OA
ATOM     30  C   UNL     1      11.487  15.255  16.855  0.00  0.00    +0.000 C 
ATOM     31  C   UNL     1      11.494  16.343  17.925  0.00  0.00    +0.000 C 
ATOM     32  O   UNL     1      11.134  15.919  19.246  0.00  0.00    +0.000 OA
ENDBRANCH  21  23
ENDBRANCH  18  19
ENDBRANCH  17  18
ENDBRANCH   1  17
TORSDOF 6
ENDMDL
MODEL 2
REMARK VINA RESULT:      -8.9      1.624      2.065
REMARK  Name = 
REMARK  7 active torsions:
REMARK  status: ('A' for Active; 'I' for Inactive)
REMARK    1  A    between atoms: C_1  and  N_2
REMARK    2  A    between atoms: C_8  and  S_9
REMARK    3  A    between atoms: S_9  and  N_12
REMARK    4  A    between atoms: N_12  and  C_13
REMARK    5  A    between atoms: C_13  and  C_14
REMARK    6  A    between atoms: C_14  and  C_15
REMARK    7  A    between atoms: N_17  and  C_18
REMARK                            x       y       z     vdW  Elec       q    Type
REMARK                         _______ _______ _______ _____ _____    ______ ____
ROOT
ATOM      1  N   UNL     1       6.969   6.834  17.820  0.00  0.00    +0.000 NA
ATOM      2  H   UNL     1       6.059   7.086  18.202  0.00  0.00    +0.000 HD
ENDROOT
BRANCH   1   3
ATOM      3  S   UNL     1       7.104   5.184  17.571  0.00  0.00    +0.000 S 
ATOM      4  O   UNL     1       8.023   4.696  18.581  0.00  0.00    +0.000 OA
ATOM      5  O   UNL     1       7.352   4.967  16.162  0.00  0.00    +0.000 OA
BRANCH   3  13
ATOM      6  C   UNL     1       0.833   2.304  18.536  0.00  0.00    +0.000 C 
ATOM      7  N   UNL     1       1.957   2.904  19.195  0.00  0.00    +0.000 N 
ATOM      8  C   UNL     1       2.123   3.054  20.554  0.00  0.00    +0.000 A 
ATOM      9  O   UNL     1       1.338   2.705  21.423  0.00  0.00    +0.000 OA
ATOM     10  O   UNL     1       3.349   3.677  20.843  0.00  0.00    +0.000 OA
ATOM     11  C   UNL     1       3.890   3.881  19.582  0.00  0.00    +0.000 A 
ATOM     12  C   UNL     1       5.115   4.455  19.321  0.00  0.00    +0.000 A 
ATOM     13  C   UNL     1       5.495   4.552  17.975  0.00  0.00    +0.000 A 
ATOM     14  C   UNL     1       4.655   4.083  16.939  0.00  0.00    +0.000 A 
ATOM     15  C   UNL     1       3.414   3.507  17.239  0.00  0.00    +0.000 A 
ATOM     16  C   UNL     1       3.066   3.419  18.571  0.00  0.00    +0.000 A 
ENDBRANCH   3  13
ENDBRANCH   1   3
BRANCH   1  17
ATOM     17  C   UNL     1       8.166   7.571  18.240  0.00  0.00    +0.000 C 
BRANCH  17  18
ATOM     18  C   UNL     1       8.117   9.005  17.740  0.00  0.00    +0.000 C 
BRANCH  18  19
ATOM     19  C   UNL     1       9.027   9.926  18.527  0.00  0.00    +0.000 C 
ATOM     20  O   UNL     1       9.041   9.942  19.752  0.00  0.00    +0.000 OA
ATOM     21  N   UNL     1       9.732  10.772  17.683  0.00  0.00    +0.000 N 
ATOM     22  H   UNL     1       9.458  10.774  16.708  0.00  0.00    +0.000 HD
BRANCH  21  23
ATOM     23  C   UNL     1      10.568  11.833  18.080  0.00  0.00    +0.000 A 
ATOM     24  C   UNL     1      11.680  11.675  18.910  0.00  0.00    +0.000 A 
ATOM     25  C   UNL     1      12.318  12.795  19.452  0.00  0.00    +0.000 A 
ATOM     26  C   UNL     1      11.821  14.065  19.183  0.00  0.00    +0.000 A 
ATOM     27  C   UNL     1      10.796  14.220  18.254  0.00  0.00    +0.000 A 
ATOM     28  C   UNL     1      10.192  13.114  17.670  0.00  0.00    +0.000 A 
ATOM     29  O   UNL     1      10.282  15.452  17.949  0.00  0.00    +0.000 OA
ATOM     30  C   UNL     1      10.192  16.180  19.173  0.00  0.00    +0.000 C 
ATOM     31  C   UNL     1      11.553  16.303  19.854  0.00  0.00    +0.000 C 
ATOM     32  O   UNL     1      12.332  15.102  19.910  0.00  0.00    +0.000 OA
ENDBRANCH  21  23
ENDBRANCH  18  19
ENDBRANCH  17  18
ENDBRANCH   1  17
TORSDOF 6
ENDMDL
MODEL 3
REMARK VINA RESULT:      -8.9      1.038      1.157
REMARK  Name = 
REMARK  7 active torsions:
REMARK  status: ('A' for Active; 'I' for Inactive)
REMARK    1  A    between atoms: C_1  and  N_2
REMARK    2  A    between atoms: C_8  and  S_9
REMARK    3  A    between atoms: S_9  and  N_12
REMARK    4  A    between atoms: N_12  and  C_13
REMARK    5  A    between atoms: C_13  and  C_14
REMARK    6  A    between atoms: C_14  and  C_15
REMARK    7  A    between atoms: N_17  and  C_18
REMARK                            x       y       z     vdW  Elec       q    Type
REMARK                         _______ _______ _______ _____ _____    ______ ____
ROOT
ATOM      1  N   UNL     1       6.631   6.514  16.600  0.00  0.00    +0.000 NA
ATOM      2  H   UNL     1       5.798   6.784  17.121  0.00  0.00    +0.000 HD
ENDROOT
BRANCH   1   3
ATOM      3  S   UNL     1       6.749   4.853  16.431  0.00  0.00    +0.000 S 
ATOM      4  O   UNL     1       8.000   4.471  17.057  0.00  0.00    +0.000 OA
ATOM      5  O   UNL     1       6.468   4.526  15.051  0.00  0.00    +0.000 OA
BRANCH   3  13
ATOM      6  C   UNL     1       1.845   2.838  20.953  0.00  0.00    +0.000 C 
ATOM      7  N   UNL     1       2.174   2.955  19.562  0.00  0.00    +0.000 N 
ATOM      8  C   UNL     1       1.352   2.650  18.500  0.00  0.00    +0.000 A 
ATOM      9  O   UNL     1       0.208   2.226  18.566  0.00  0.00    +0.000 OA
ATOM     10  O   UNL     1       2.002   2.895  17.277  0.00  0.00    +0.000 OA
ATOM     11  C   UNL     1       3.245   3.360  17.683  0.00  0.00    +0.000 A 
ATOM     12  C   UNL     1       4.261   3.760  16.843  0.00  0.00    +0.000 A 
ATOM     13  C   UNL     1       5.438   4.221  17.449  0.00  0.00    +0.000 A 
ATOM     14  C   UNL     1       5.570   4.268  18.856  0.00  0.00    +0.000 A 
ATOM     15  C   UNL     1       4.519   3.850  19.681  0.00  0.00    +0.000 A 
ATOM     16  C   UNL     1       3.369   3.406  19.060  0.00  0.00    +0.000 A 
ENDBRANCH   3  13
ENDBRANCH   1   3
BRANCH   1  17
ATOM     17  C   UNL     1       7.870   7.284  16.755  0.00  0.00    +0.000 C 
BRANCH  17  18
ATOM     18  C   UNL     1       8.043   7.740  18.195  0.00  0.00    +0.000 C 
BRANCH  18  19
ATOM     19  C   UNL     1       8.329   9.224  18.304  0.00  0.00    +0.000 C 
ATOM     20  O   UNL     1       7.941  10.028  17.465  0.00  0.00    +0.000 OA
ATOM     21  N   UNL     1       9.140   9.497  19.396  0.00  0.00    +0.000 N 
ATOM     22  H   UNL     1       9.543   8.700  19.874  0.00  0.00    +0.000 HD
BRANCH  21  23
ATOM     23  C   UNL     1       9.700  10.746  19.721  0.00  0.00    +0.000 A 
ATOM     24  C   UNL     1       9.392  11.456  20.885  0.00  0.00    +0.000 A 
ATOM     25  C   UNL     1       9.799  12.786  21.027  0.00  0.00    +0.000 A 
ATOM     26  C   UNL     1      10.488  13.407  19.992  0.00  0.00    +0.000 A 
ATOM     27  C   UNL     1      10.903  12.657  18.895  0.00  0.00    +0.000 A 
ATOM     28  C   UNL     1      10.548  11.320  18.771  0.00  0.00    +0.000 A 
ATOM     29  O   UNL     1      11.593  13.224  17.856  0.00  0.00    +0.000 OA
ATOM     30  C   UNL     1      11.003  14.499  17.611  0.00  0.00    +0.000 C 
ATOM     31  C   UNL     1      11.048  15.387  18.853  0.00  0.00    +0.000 C 
ATOM     32  O   UNL     1      10.663  14.758  20.082  0.00  0.00    +0.000 OA
ENDBRANCH  21  23
ENDBRANCH  18  19
ENDBRANCH  17  18
ENDBRANCH   1  17
TORSDOF 6
ENDMDL
MODEL 4
REMARK VINA RESULT:      -8.6      1.209      1.348
REMARK  Name = 
REMARK  7 active torsions:
REMARK  status: ('A' for Active; 'I' for Inactive)
REMARK    1  A    between atoms: C_1  and  N_2
REMARK    2  A    between atoms: C_8  and  S_9
REMARK    3  A    between atoms: S_9  and  N_12
REMARK    4  A    between atoms: N_12  and  C_13
REMARK    5  A    between atoms: C_13  and  C_14
REMARK    6  A    between atoms: C_14  and  C_15
REMARK    7  A    between atoms: N_17  and  C_18
REMARK                            x       y       z     vdW  Elec       q    Type
REMARK                         _______ _______ _______ _____ _____    ______ ____
ROOT
ATOM      1  N   UNL     1       6.947   6.732  17.103  0.00  0.00    +0.000 NA
ATOM      2  H   UNL     1       6.005   7.092  17.243  0.00  0.00    +0.000 HD
ENDROOT
BRANCH   1   3
ATOM      3  S   UNL     1       6.994   5.060  17.182  0.00  0.00    +0.000 S 
ATOM      4  O   UNL     1       8.061   4.729  18.107  0.00  0.00    +0.000 OA
ATOM      5  O   UNL     1       6.987   4.552  15.828  0.00  0.00    +0.000 OA
BRANCH   3  13
ATOM      6  C   UNL     1       0.976   4.032  20.540  0.00  0.00    +0.000 C 
ATOM      7  N   UNL     1       1.779   3.615  19.427  0.00  0.00    +0.000 N 
ATOM      8  C   UNL     1       1.431   2.685  18.473  0.00  0.00    +0.000 A 
ATOM      9  O   UNL     1       0.384   2.058  18.419  0.00  0.00    +0.000 OA
ATOM     10  O   UNL     1       2.458   2.533  17.525  0.00  0.00    +0.000 OA
ATOM     11  C   UNL     1       3.421   3.424  17.976  0.00  0.00    +0.000 A 
ATOM     12  C   UNL     1       4.634   3.665  17.369  0.00  0.00    +0.000 A 
ATOM     13  C   UNL     1       5.463   4.622  17.968  0.00  0.00    +0.000 A 
ATOM     14  C   UNL     1       5.068   5.304  19.142  0.00  0.00    +0.000 A 
ATOM     15  C   UNL     1       3.829   5.034  19.736  0.00  0.00    +0.000 A 
ATOM     16  C   UNL     1       3.030   4.091  19.123  0.00  0.00    +0.000 A 
ENDBRANCH   3  13
ENDBRANCH   1   3
BRANCH   1  17
ATOM     17  C   UNL     1       8.099   7.482  17.617  0.00  0.00    +0.000 C 
BRANCH  17  18
ATOM     18  C   UNL     1       7.806   8.973  17.632  0.00  0.00    +0.000 C 
BRANCH  18  19
ATOM     19  C   UNL     1       8.801   9.752  18.469  0.00  0.00    +0.000 C 
ATOM     20  O   UNL     1       8.929   9.566  19.674  0.00  0.00    +0.000 OA
ATOM     21  N   UNL     1       9.438  10.723  17.712  0.00  0.00    +0.000 N 
ATOM     22  H   UNL     1       9.075  10.885  16.780  0.00  0.00    +0.000 HD
BRANCH  21  23
ATOM     23  C   UNL     1      10.325  11.703  18.195  0.00  0.00    +0.000 A 
ATOM     24  C   UNL     1      11.108  11.544  19.341  0.00  0.00    +0.000 A 
ATOM     25  C   UNL     1      11.780  12.639  19.892  0.00  0.00    +0.000 A 
ATOM     26  C   UNL     1      11.641  13.893  19.310  0.00  0.00    +0.000 A 
ATOM     27  C   UNL     1      10.967  14.018  18.098  0.00  0.00    +0.000 A 
ATOM     28  C   UNL     1      10.341  12.923  17.516  0.00  0.00    +0.000 A 
ATOM     29  O   UNL     1      10.814  15.233  17.483  0.00  0.00    +0.000 OA
ATOM     30  C   UNL     1      10.535  16.186  18.507  0.00  0.00    +0.000 C 
ATOM     31  C   UNL     1      11.649  16.233  19.549  0.00  0.00    +0.000 C 
ATOM     32  O   UNL     1      12.126  14.962  20.008  0.00  0.00    +0.000 OA
ENDBRANCH  21  23
ENDBRANCH  18  19
ENDBRANCH  17  18
ENDBRANCH   1  17
TORSDOF 6
ENDMDL
MODEL 5
REMARK VINA RESULT:      -8.6      1.367      1.724
REMARK  Name = 
REMARK  7 active torsions:
REMARK  status: ('A' for Active; 'I' for Inactive)
REMARK    1  A    between atoms: C_1  and  N_2
REMARK    2  A    between atoms: C_8  and  S_9
REMARK    3  A    between atoms: S_9  and  N_12
REMARK    4  A    between atoms: N_12  and  C_13
REMARK    5  A    between atoms: C_13  and  C_14
REMARK    6  A    between atoms: C_14  and  C_15
REMARK    7  A    between atoms: N_17  and  C_18
REMARK                            x       y       z     vdW  Elec       q    Type
REMARK                         _______ _______ _______ _____ _____    ______ ____
ROOT
ATOM      1  N   UNL     1       7.071   6.664  18.109  0.00  0.00    +0.000 NA
ATOM      2  H   UNL     1       6.916   6.265  19.034  0.00  0.00    +0.000 HD
ENDROOT
BRANCH   1   3
ATOM      3  S   UNL     1       6.630   5.604  16.891  0.00  0.00    +0.000 S 
ATOM      4  O   UNL     1       7.635   4.559  16.882  0.00  0.00    +0.000 OA
ATOM      5  O   UNL     1       6.346   6.384  15.706  0.00  0.00    +0.000 OA
BRANCH   3  13
ATOM      6  C   UNL     1       0.840   2.188  18.722  0.00  0.00    +0.000 C 
ATOM      7  N   UNL     1       1.825   3.136  19.158  0.00  0.00    +0.000 N 
ATOM      8  C   UNL     1       1.899   3.722  20.401  0.00  0.00    +0.000 A 
ATOM      9  O   UNL     1       1.136   3.537  21.338  0.00  0.00    +0.000 OA
ATOM     10  O   UNL     1       2.999   4.595  20.479  0.00  0.00    +0.000 OA
ATOM     11  C   UNL     1       3.562   4.483  19.215  0.00  0.00    +0.000 A 
ATOM     12  C   UNL     1       4.695   5.140  18.785  0.00  0.00    +0.000 A 
ATOM     13  C   UNL     1       5.120   4.877  17.476  0.00  0.00    +0.000 A 
ATOM     14  C   UNL     1       4.414   3.981  16.640  0.00  0.00    +0.000 A 
ATOM     15  C   UNL     1       3.264   3.333  17.108  0.00  0.00    +0.000 A 
ATOM     16  C   UNL     1       2.870   3.605  18.402  0.00  0.00    +0.000 A 
ENDBRANCH   3  13
ENDBRANCH   1   3
BRANCH   1  17
ATOM     17  C   UNL     1       8.221   7.545  17.878  0.00  0.00    +0.000 C 
BRANCH  17  18
ATOM     18  C   UNL     1       7.777   8.995  17.779  0.00  0.00    +0.000 C 
BRANCH  18  19
ATOM     19  C   UNL     1       8.745   9.947  18.452  0.00  0.00    +0.000 C 
ATOM     20  O   UNL     1       9.412   9.621  19.427  0.00  0.00    +0.000 OA
ATOM     21  N   UNL     1       8.687  11.208  17.876  0.00  0.00    +0.000 N 
ATOM     22  H   UNL     1       7.939  11.371  17.213  0.00  0.00    +0.000 HD
BRANCH  21  23
ATOM     23  C   UNL     1       9.355  12.359  18.332  0.00  0.00    +0.000 A 
ATOM     24  C   UNL     1       9.123  12.950  19.577  0.00  0.00    +0.000 A 
ATOM     25  C   UNL     1       9.643  14.215  19.864  0.00  0.00    +0.000 A 
ATOM     26  C   UNL     1      10.368  14.896  18.893  0.00  0.00    +0.000 A 
ATOM     27  C   UNL     1      10.704  14.249  17.707  0.00  0.00    +0.000 A 
ATOM     28  C   UNL     1      10.235  12.969  17.436  0.00  0.00    +0.000 A 
ATOM     29  O   UNL     1      11.425  14.876  16.725  0.00  0.00    +0.000 OA
ATOM     30  C   UNL     1      10.942  16.215  16.645  0.00  0.00    +0.000 C 
ATOM     31  C   UNL     1      11.078  16.943  17.979  0.00  0.00    +0.000 C 
ATOM     32  O   UNL     1      10.657  16.207  19.135  0.00  0.00    +0.000 OA
ENDBRANCH  21  23
ENDBRANCH  18  19
ENDBRANCH  17  18
ENDBRANCH   1  17
TORSDOF 6
ENDMDL
MODEL 6
REMARK VINA RESULT:      -8.6      6.301      8.030
REMARK  Name = 
REMARK  7 active torsions:
REMARK  status: ('A' for Active; 'I' for Inactive)
REMARK    1  A    between atoms: C_1  and  N_2
REMARK    2  A    between atoms: C_8  and  S_9
REMARK    3  A    between atoms: S_9  and  N_12
REMARK    4  A    between atoms: N_12  and  C_13
REMARK    5  A    between atoms: C_13  and  C_14
REMARK    6  A    between atoms: C_14  and  C_15
REMARK    7  A    between atoms: N_17  and  C_18
REMARK                            x       y       z     vdW  Elec       q    Type
REMARK                         _______ _______ _______ _____ _____    ______ ____
ROOT
ATOM      1  N   UNL     1       2.186   5.212  21.331  0.00  0.00    +0.000 NA
ATOM      2  H   UNL     1       3.092   5.361  21.773  0.00  0.00    +0.000 HD
ENDROOT
BRANCH   1   3
ATOM      3  S   UNL     1       2.056   3.676  20.678  0.00  0.00    +0.000 S 
ATOM      4  O   UNL     1       0.697   3.560  20.186  0.00  0.00    +0.000 OA
ATOM      5  O   UNL     1       2.590   2.738  21.641  0.00  0.00    +0.000 OA
BRANCH   3  13
ATOM      6  C   UNL     1       5.666   4.061  14.730  0.00  0.00    +0.000 C 
ATOM      7  N   UNL     1       5.761   4.117  16.160  0.00  0.00    +0.000 N 
ATOM      8  C   UNL     1       6.898   4.374  16.893  0.00  0.00    +0.000 A 
ATOM      9  O   UNL     1       8.015   4.592  16.448  0.00  0.00    +0.000 OA
ATOM     10  O   UNL     1       6.619   4.360  18.271  0.00  0.00    +0.000 OA
ATOM     11  C   UNL     1       5.260   4.084  18.302  0.00  0.00    +0.000 A 
ATOM     12  C   UNL     1       4.491   3.980  19.441  0.00  0.00    +0.000 A 
ATOM     13  C   UNL     1       3.126   3.716  19.262  0.00  0.00    +0.000 A 
ATOM     14  C   UNL     1       2.571   3.562  17.970  0.00  0.00    +0.000 A 
ATOM     15  C   UNL     1       3.381   3.670  16.833  0.00  0.00    +0.000 A 
ATOM     16  C   UNL     1       4.720   3.935  17.037  0.00  0.00    +0.000 A 
ENDBRANCH   3  13
ENDBRANCH   1   3
BRANCH   1  17
ATOM     17  C   UNL     1       1.525   6.320  20.632  0.00  0.00    +0.000 C 
BRANCH  17  18
ATOM     18  C   UNL     1       2.494   7.016  19.690  0.00  0.00    +0.000 C 
BRANCH  18  19
ATOM     19  C   UNL     1       1.906   8.268  19.072  0.00  0.00    +0.000 C 
ATOM     20  O   UNL     1       2.207   8.645  17.946  0.00  0.00    +0.000 OA
ATOM     21  N   UNL     1       1.090   8.935  19.975  0.00  0.00    +0.000 N 
ATOM     22  H   UNL     1       1.105   8.603  20.932  0.00  0.00    +0.000 HD
BRANCH  21  23
ATOM     23  C   UNL     1       0.487  10.191  19.777  0.00  0.00    +0.000 A 
ATOM     24  C   UNL     1      -0.599  10.405  18.924  0.00  0.00    +0.000 A 
ATOM     25  C   UNL     1      -0.990  11.706  18.596  0.00  0.00    +0.000 A 
ATOM     26  C   UNL     1      -0.276  12.786  19.102  0.00  0.00    +0.000 A 
ATOM     27  C   UNL     1       0.719  12.568  20.051  0.00  0.00    +0.000 A 
ATOM     28  C   UNL     1       1.079  11.279  20.422  0.00  0.00    +0.000 A 
ATOM     29  O   UNL     1       1.443  13.602  20.584  0.00  0.00    +0.000 OA
ATOM     30  C   UNL     1       1.720  14.509  19.519  0.00  0.00    +0.000 C 
ATOM     31  C   UNL     1       0.437  15.014  18.864  0.00  0.00    +0.000 C 
ATOM     32  O   UNL     1      -0.551  14.016  18.578  0.00  0.00    +0.000 OA
ENDBRANCH  21  23
ENDBRANCH  18  19
ENDBRANCH  17  18
ENDBRANCH   1  17
TORSDOF 6
ENDMDL
MODEL 7
REMARK VINA RESULT:      -8.6      6.387      8.754
REMARK  Name = 
REMARK  7 active torsions:
REMARK  status: ('A' for Active; 'I' for Inactive)
REMARK    1  A    between atoms: C_1  and  N_2
REMARK    2  A    between atoms: C_8  and  S_9
REMARK    3  A    between atoms: S_9  and  N_12
REMARK    4  A    between atoms: N_12  and  C_13
REMARK    5  A    between atoms: C_13  and  C_14
REMARK    6  A    between atoms: C_14  and  C_15
REMARK    7  A    between atoms: N_17  and  C_18
REMARK                            x       y       z     vdW  Elec       q    Type
REMARK                         _______ _______ _______ _____ _____    ______ ____
ROOT
ATOM      1  N   UNL     1       3.273   5.759  19.770  0.00  0.00    +0.000 NA
ATOM      2  H   UNL     1       3.772   6.295  20.478  0.00  0.00    +0.000 HD
ENDROOT
BRANCH   1   3
ATOM      3  S   UNL     1       2.818   6.712  18.471  0.00  0.00    +0.000 S 
ATOM      4  O   UNL     1       1.872   5.926  17.705  0.00  0.00    +0.000 OA
ATOM      5  O   UNL     1       4.022   7.240  17.867  0.00  0.00    +0.000 OA
BRANCH   3  13
ATOM      6  C   UNL     1      -1.090  12.021  20.730  0.00  0.00    +0.000 C 
ATOM      7  N   UNL     1      -0.350  10.860  21.133  0.00  0.00    +0.000 N 
ATOM      8  C   UNL     1      -0.248  10.361  22.413  0.00  0.00    +0.000 A 
ATOM      9  O   UNL     1      -0.766  10.827  23.417  0.00  0.00    +0.000 OA
ATOM     10  O   UNL     1       0.550   9.204  22.437  0.00  0.00    +0.000 OA
ATOM     11  C   UNL     1       0.905   9.054  21.104  0.00  0.00    +0.000 A 
ATOM     12  C   UNL     1       1.684   8.037  20.594  0.00  0.00    +0.000 A 
ATOM     13  C   UNL     1       1.913   8.048  19.212  0.00  0.00    +0.000 A 
ATOM     14  C   UNL     1       1.369   9.058  18.385  0.00  0.00    +0.000 A 
ATOM     15  C   UNL     1       0.584  10.078  18.936  0.00  0.00    +0.000 A 
ATOM     16  C   UNL     1       0.370  10.042  20.298  0.00  0.00    +0.000 A 
ENDBRANCH   3  13
ENDBRANCH   1   3
BRANCH   1  17
ATOM     17  C   UNL     1       2.378   4.670  20.176  0.00  0.00    +0.000 C 
BRANCH  17  18
ATOM     18  C   UNL     1       2.936   3.325  19.742  0.00  0.00    +0.000 C 
BRANCH  18  19
ATOM     19  C   UNL     1       4.325   3.437  19.147  0.00  0.00    +0.000 C 
ATOM     20  O   UNL     1       5.338   3.269  19.815  0.00  0.00    +0.000 OA
ATOM     21  N   UNL     1       4.269   3.834  17.819  0.00  0.00    +0.000 N 
ATOM     22  H   UNL     1       3.365   4.129  17.470  0.00  0.00    +0.000 HD
BRANCH  21  23
ATOM     23  C   UNL     1       5.369   4.156  17.002  0.00  0.00    +0.000 A 
ATOM     24  C   UNL     1       6.259   5.198  17.275  0.00  0.00    +0.000 A 
ATOM     25  C   UNL     1       7.178   5.609  16.305  0.00  0.00    +0.000 A 
ATOM     26  C   UNL     1       7.183   4.995  15.058  0.00  0.00    +0.000 A 
ATOM     27  C   UNL     1       6.384   3.875  14.841  0.00  0.00    +0.000 A 
ATOM     28  C   UNL     1       5.505   3.427  15.819  0.00  0.00    +0.000 A 
ATOM     29  O   UNL     1       6.363   3.231  13.632  0.00  0.00    +0.000 OA
ATOM     30  C   UNL     1       6.394   4.239  12.623  0.00  0.00    +0.000 C 
ATOM     31  C   UNL     1       7.629   5.127  12.753  0.00  0.00    +0.000 C 
ATOM     32  O   UNL     1       7.935   5.576  14.079  0.00  0.00    +0.000 OA
ENDBRANCH  21  23
ENDBRANCH  18  19
ENDBRANCH  17  18
ENDBRANCH   1  17
TORSDOF 6
ENDMDL
MODEL 8
REMARK VINA RESULT:      -8.5      5.461      8.229
REMARK  Name = 
REMARK  7 active torsions:
REMARK  status: ('A' for Active; 'I' for Inactive)
REMARK    1  A    between atoms: C_1  and  N_2
REMARK    2  A    between atoms: C_8  and  S_9
REMARK    3  A    between atoms: S_9  and  N_12
REMARK    4  A    between atoms: N_12  and  C_13
REMARK    5  A    between atoms: C_13  and  C_14
REMARK    6  A    between atoms: C_14  and  C_15
REMARK    7  A    between atoms: N_17  and  C_18
REMARK                            x       y       z     vdW  Elec       q    Type
REMARK                         _______ _______ _______ _____ _____    ______ ____
ROOT
ATOM      1  N   UNL     1       3.078   2.259  20.588  0.00  0.00    +0.000 NA
ATOM      2  H   UNL     1       4.034   2.423  20.900  0.00  0.00    +0.000 HD
ENDROOT
BRANCH   1   3
ATOM      3  S   UNL     1       2.987   2.080  18.926  0.00  0.00    +0.000 S 
ATOM      4  O   UNL     1       1.643   2.475  18.551  0.00  0.00    +0.000 OA
ATOM      5  O   UNL     1       3.508   0.774  18.592  0.00  0.00    +0.000 OA
BRANCH   3  13
ATOM      6  C   UNL     1       7.536   7.054  17.160  0.00  0.00    +0.000 C 
ATOM      7  N   UNL     1       6.848   5.883  16.699  0.00  0.00    +0.000 N 
ATOM      8  C   UNL     1       7.002   5.275  15.473  0.00  0.00    +0.000 A 
ATOM      9  O   UNL     1       7.746   5.635  14.573  0.00  0.00    +0.000 OA
ATOM     10  O   UNL     1       6.174   4.143  15.367  0.00  0.00    +0.000 OA
ATOM     11  C   UNL     1       5.532   4.123  16.598  0.00  0.00    +0.000 A 
ATOM     12  C   UNL     1       4.614   3.179  17.004  0.00  0.00    +0.000 A 
ATOM     13  C   UNL     1       4.092   3.319  18.297  0.00  0.00    +0.000 A 
ATOM     14  C   UNL     1       4.491   4.383  19.139  0.00  0.00    +0.000 A 
ATOM     15  C   UNL     1       5.424   5.327  18.693  0.00  0.00    +0.000 A 
ATOM     16  C   UNL     1       5.926   5.164  17.419  0.00  0.00    +0.000 A 
ENDBRANCH   3  13
ENDBRANCH   1   3
BRANCH   1  17
ATOM     17  C   UNL     1       1.963   2.919  21.276  0.00  0.00    +0.000 C 
BRANCH  17  18
ATOM     18  C   UNL     1       2.316   4.359  21.613  0.00  0.00    +0.000 C 
BRANCH  18  19
ATOM     19  C   UNL     1       1.547   5.358  20.773  0.00  0.00    +0.000 C 
ATOM     20  O   UNL     1       0.576   5.036  20.098  0.00  0.00    +0.000 OA
ATOM     21  N   UNL     1       2.145   6.609  20.812  0.00  0.00    +0.000 N 
ATOM     22  H   UNL     1       3.056   6.664  21.251  0.00  0.00    +0.000 HD
BRANCH  21  23
ATOM     23  C   UNL     1       1.770   7.732  20.052  0.00  0.00    +0.000 A 
ATOM     24  C   UNL     1       2.188   7.955  18.737  0.00  0.00    +0.000 A 
ATOM     25  C   UNL     1       1.974   9.196  18.131  0.00  0.00    +0.000 A 
ATOM     26  C   UNL     1       1.369  10.218  18.854  0.00  0.00    +0.000 A 
ATOM     27  C   UNL     1       0.840   9.949  20.114  0.00  0.00    +0.000 A 
ATOM     28  C   UNL     1       1.002   8.701  20.702  0.00  0.00    +0.000 A 
ATOM     29  O   UNL     1       0.227  10.921  20.858  0.00  0.00    +0.000 OA
ATOM     30  C   UNL     1       0.988  12.116  20.692  0.00  0.00    +0.000 C 
ATOM     31  C   UNL     1       1.082  12.522  19.223  0.00  0.00    +0.000 C 
ATOM     32  O   UNL     1       1.387  11.466  18.303  0.00  0.00    +0.000 OA
ENDBRANCH  21  23
ENDBRANCH  18  19
ENDBRANCH  17  18
ENDBRANCH   1  17
TORSDOF 6
ENDMDL
MODEL 9
REMARK VINA RESULT:      -8.5      5.992      7.496
REMARK  Name = 
REMARK  7 active torsions:
REMARK  status: ('A' for Active; 'I' for Inactive)
REMARK    1  A    between atoms: C_1  and  N_2
REMARK    2  A    between atoms: C_8  and  S_9
REMARK    3  A    between atoms: S_9  and  N_12
REMARK    4  A    between atoms: N_12  and  C_13
REMARK    5  A    between atoms: C_13  and  C_14
REMARK    6  A    between atoms: C_14  and  C_15
REMARK    7  A    between atoms: N_17  and  C_18
REMARK                            x       y       z     vdW  Elec       q    Type
REMARK                         _______ _______ _______ _____ _____    ______ ____
ROOT
ATOM      1  N   UNL     1       6.510   6.422  16.583  0.00  0.00    +0.000 NA
ATOM      2  H   UNL     1       6.755   6.968  15.759  0.00  0.00    +0.000 HD
ENDROOT
BRANCH   1   3
ATOM      3  S   UNL     1       6.588   4.776  16.286  0.00  0.00    +0.000 S 
ATOM      4  O   UNL     1       7.871   4.333  16.795  0.00  0.00    +0.000 OA
ATOM      5  O   UNL     1       6.209   4.556  14.907  0.00  0.00    +0.000 OA
BRANCH   3  13
ATOM      6  C   UNL     1       1.929   2.531  20.957  0.00  0.00    +0.000 C 
ATOM      7  N   UNL     1       2.199   2.685  19.556  0.00  0.00    +0.000 N 
ATOM      8  C   UNL     1       1.343   2.377  18.522  0.00  0.00    +0.000 A 
ATOM      9  O   UNL     1       0.215   1.919  18.625  0.00  0.00    +0.000 OA
ATOM     10  O   UNL     1       1.936   2.664  17.279  0.00  0.00    +0.000 OA
ATOM     11  C   UNL     1       3.181   3.157  17.645  0.00  0.00    +0.000 A 
ATOM     12  C   UNL     1       4.151   3.603  16.774  0.00  0.00    +0.000 A 
ATOM     13  C   UNL     1       5.338   4.087  17.342  0.00  0.00    +0.000 A 
ATOM     14  C   UNL     1       5.525   4.110  18.743  0.00  0.00    +0.000 A 
ATOM     15  C   UNL     1       4.520   3.646  19.600  0.00  0.00    +0.000 A 
ATOM     16  C   UNL     1       3.360   3.180  19.016  0.00  0.00    +0.000 A 
ENDBRANCH   3  13
ENDBRANCH   1   3
BRANCH   1  17
ATOM     17  C   UNL     1       5.476   6.911  17.502  0.00  0.00    +0.000 C 
BRANCH  17  18
ATOM     18  C   UNL     1       4.172   7.157  16.761  0.00  0.00    +0.000 C 
BRANCH  18  19
ATOM     19  C   UNL     1       2.982   7.246  17.695  0.00  0.00    +0.000 C 
ATOM     20  O   UNL     1       2.322   6.262  18.009  0.00  0.00    +0.000 OA
ATOM     21  N   UNL     1       2.715   8.563  18.040  0.00  0.00    +0.000 N 
ATOM     22  H   UNL     1       3.225   9.277  17.536  0.00  0.00    +0.000 HD
BRANCH  21  23
ATOM     23  C   UNL     1       1.611   9.017  18.785  0.00  0.00    +0.000 A 
ATOM     24  C   UNL     1       0.772  10.056  18.374  0.00  0.00    +0.000 A 
ATOM     25  C   UNL     1      -0.152  10.610  19.265  0.00  0.00    +0.000 A 
ATOM     26  C   UNL     1      -0.211  10.140  20.572  0.00  0.00    +0.000 A 
ATOM     27  C   UNL     1       0.535   9.021  20.935  0.00  0.00    +0.000 A 
ATOM     28  C   UNL     1       1.416   8.432  20.038  0.00  0.00    +0.000 A 
ATOM     29  O   UNL     1       0.500   8.517  22.208  0.00  0.00    +0.000 OA
ATOM     30  C   UNL     1       0.489   9.632  23.098  0.00  0.00    +0.000 C 
ATOM     31  C   UNL     1      -0.704  10.547  22.835  0.00  0.00    +0.000 C 
ATOM     32  O   UNL     1      -0.961  10.857  21.459  0.00  0.00    +0.000 OA
ENDBRANCH  21  23
ENDBRANCH  18  19
ENDBRANCH  17  18
ENDBRANCH   1  17
TORSDOF 6
ENDMDL
