MODEL 1
REMARK VINA RESULT:      -7.7      0.000      0.000
REMARK  Name = 
REMARK  10 active torsions:
REMARK  status: ('A' for Active; 'I' for Inactive)
REMARK    1  A    between atoms: C_1  and  C_2
REMARK    2  A    between atoms: C_2  and  N_3
REMARK    3  A    between atoms: N_6  and  C_7
REMARK    4  A    between atoms: C_7  and  C_8
REMARK    5  A    between atoms: C_9  and  O_10
REMARK    6  A    between atoms: C_14  and  O_15
REMARK    7  A    between atoms: C_19  and  C_20
REMARK    8  A    between atoms: C_23  and  O_24
REMARK    9  A    between atoms: O_24  and  C_25
REMARK   10  A    between atoms: C_26  and  O_27
REMARK                            x       y       z     vdW  Elec       q    Type
REMARK                         _______ _______ _______ _____ _____    ______ ____
ROOT
ATOM      1  C   UNL     1      -1.924  12.174  21.197  0.00  0.00    +0.000 A 
ATOM      2  C   UNL     1      -1.716  12.073  19.810  0.00  0.00    +0.000 A 
ATOM      3  C   UNL     1      -0.935  11.060  19.265  0.00  0.00    +0.000 A 
ATOM      4  C   UNL     1      -0.235  10.210  20.107  0.00  0.00    +0.000 A 
ATOM      5  C   UNL     1      -0.286  10.387  21.483  0.00  0.00    +0.000 A 
ATOM      6  C   UNL     1      -1.146  11.354  22.032  0.00  0.00    +0.000 A 
ATOM      7  C   UNL     1       0.523   9.509  22.342  0.00  0.00    +0.000 C 
ATOM      8  O   UNL     1       0.546   9.680  23.565  0.00  0.00    +0.000 OA
ATOM      9  C   UNL     1       1.219   8.370  21.670  0.00  0.00    +0.000 C 
ATOM     10  C   UNL     1       1.589   8.774  20.245  0.00  0.00    +0.000 C 
ATOM     11  O   UNL     1       0.465   9.216  19.489  0.00  0.00    +0.000 OA
ENDROOT
BRANCH  10  12
ATOM     12  C   UNL     1       2.167   7.597  19.496  0.00  0.00    +0.000 A 
ATOM     13  C   UNL     1       2.751   7.765  18.238  0.00  0.00    +0.000 A 
ATOM     14  C   UNL     1       3.453   6.715  17.640  0.00  0.00    +0.000 A 
ATOM     15  C   UNL     1       3.583   5.493  18.304  0.00  0.00    +0.000 A 
ATOM     16  C   UNL     1       2.895   5.300  19.508  0.00  0.00    +0.000 A 
ATOM     17  C   UNL     1       2.167   6.324  20.084  0.00  0.00    +0.000 A 
BRANCH  15  18
ATOM     18  O   UNL     1       4.346   4.432  17.888  0.00  0.00    +0.000 OA
ATOM     19  C   UNL     1       5.749   4.578  18.072  0.00  0.00    +0.000 C 
ENDBRANCH  15  18
BRANCH  16  20
ATOM     20  O   UNL     1       2.970   4.114  20.179  0.00  0.00    +0.000 OA
ATOM     21  H   UNL     1       2.055   3.917  20.446  0.00  0.00    +0.000 HD
ENDBRANCH  16  20
ENDBRANCH  10  12
BRANCH   2  22
ATOM     22  O   UNL     1      -2.273  12.941  18.915  0.00  0.00    +0.000 OA
ATOM     23  H   UNL     1      -3.230  12.990  19.116  0.00  0.00    +0.000 HD
ENDBRANCH   2  22
BRANCH   6  24
ATOM     24  O   UNL     1      -1.257  11.527  23.391  0.00  0.00    +0.000 OA
ATOM     25  H   UNL     1      -0.485  11.097  23.827  0.00  0.00    +0.000 HD
ENDBRANCH   6  24
BRANCH   1  26
ATOM     26  C   UNL     1      -2.947  13.110  21.813  0.00  0.00    +0.000 C 
BRANCH  26  30
ATOM     27  N   UNL     1      -6.332  14.597  22.402  0.00  0.00    +0.000 NA
ATOM     28  C   UNL     1      -5.269  14.471  23.420  0.00  0.00    +0.000 C 
ATOM     29  C   UNL     1      -4.685  13.046  23.564  0.00  0.00    +0.000 C 
ATOM     30  N   UNL     1      -4.178  12.436  22.303  0.00  0.00    +0.000 NA
ATOM     31  C   UNL     1      -5.261  12.557  21.293  0.00  0.00    +0.000 C 
ATOM     32  C   UNL     1      -5.866  13.980  21.140  0.00  0.00    +0.000 C 
BRANCH  27  34
ATOM     33  C   UNL     1      -7.916  14.218  24.307  0.00  0.00    +0.000 C 
ATOM     34  C   UNL     1      -7.619  14.023  22.823  0.00  0.00    +0.000 C 
ENDBRANCH  27  34
ENDBRANCH  26  30
ENDBRANCH   1  26
TORSDOF 8
ENDMDL
MODEL 2
REMARK VINA RESULT:      -7.6      2.692      4.887
REMARK  Name = 
REMARK  10 active torsions:
REMARK  status: ('A' for Active; 'I' for Inactive)
REMARK    1  A    between atoms: C_1  and  C_2
REMARK    2  A    between atoms: C_2  and  N_3
REMARK    3  A    between atoms: N_6  and  C_7
REMARK    4  A    between atoms: C_7  and  C_8
REMARK    5  A    between atoms: C_9  and  O_10
REMARK    6  A    between atoms: C_14  and  O_15
REMARK    7  A    between atoms: C_19  and  C_20
REMARK    8  A    between atoms: C_23  and  O_24
REMARK    9  A    between atoms: O_24  and  C_25
REMARK   10  A    between atoms: C_26  and  O_27
REMARK                            x       y       z     vdW  Elec       q    Type
REMARK                         _______ _______ _______ _____ _____    ______ ____
ROOT
ATOM      1  C   UNL     1       0.921   9.458  19.740  0.00  0.00    +0.000 A 
ATOM      2  C   UNL     1       1.555   9.955  18.588  0.00  0.00    +0.000 A 
ATOM      3  C   UNL     1       2.382   9.151  17.811  0.00  0.00    +0.000 A 
ATOM      4  C   UNL     1       2.700   7.875  18.250  0.00  0.00    +0.000 A 
ATOM      5  C   UNL     1       2.224   7.413  19.469  0.00  0.00    +0.000 A 
ATOM      6  C   UNL     1       1.317   8.194  20.206  0.00  0.00    +0.000 A 
ATOM      7  C   UNL     1       2.637   6.080  19.933  0.00  0.00    +0.000 C 
ATOM      8  O   UNL     1       2.278   5.665  21.040  0.00  0.00    +0.000 OA
ATOM      9  C   UNL     1       3.414   5.245  18.968  0.00  0.00    +0.000 C 
ATOM     10  C   UNL     1       4.256   6.155  18.077  0.00  0.00    +0.000 C 
ATOM     11  O   UNL     1       3.477   7.139  17.403  0.00  0.00    +0.000 OA
ENDROOT
BRANCH  10  12
ATOM     12  C   UNL     1       4.943   5.349  17.001  0.00  0.00    +0.000 A 
ATOM     13  C   UNL     1       4.340   4.208  16.466  0.00  0.00    +0.000 A 
ATOM     14  C   UNL     1       4.886   3.581  15.342  0.00  0.00    +0.000 A 
ATOM     15  C   UNL     1       6.035   4.101  14.741  0.00  0.00    +0.000 A 
ATOM     16  C   UNL     1       6.694   5.173  15.355  0.00  0.00    +0.000 A 
ATOM     17  C   UNL     1       6.179   5.772  16.489  0.00  0.00    +0.000 A 
BRANCH  15  18
ATOM     18  O   UNL     1       6.596   3.661  13.569  0.00  0.00    +0.000 OA
ATOM     19  C   UNL     1       5.684   3.441  12.499  0.00  0.00    +0.000 C 
ENDBRANCH  15  18
BRANCH  16  20
ATOM     20  O   UNL     1       7.834   5.698  14.818  0.00  0.00    +0.000 OA
ATOM     21  H   UNL     1       8.435   5.819  15.574  0.00  0.00    +0.000 HD
ENDBRANCH  16  20
ENDBRANCH  10  12
BRANCH   2  22
ATOM     22  O   UNL     1       1.390  11.237  18.149  0.00  0.00    +0.000 OA
ATOM     23  H   UNL     1       0.873  11.713  18.830  0.00  0.00    +0.000 HD
ENDBRANCH   2  22
BRANCH   6  24
ATOM     24  O   UNL     1       0.788   7.750  21.395  0.00  0.00    +0.000 OA
ATOM     25  H   UNL     1       1.229   8.232  22.134  0.00  0.00    +0.000 HD
ENDBRANCH   6  24
BRANCH   1  26
ATOM     26  C   UNL     1      -0.165  10.220  20.478  0.00  0.00    +0.000 C 
BRANCH  26  30
ATOM     27  N   UNL     1      -1.696  13.207  22.137  0.00  0.00    +0.000 NA
ATOM     28  C   UNL     1      -0.653  13.255  21.093  0.00  0.00    +0.000 C 
ATOM     29  C   UNL     1       0.592  12.385  21.390  0.00  0.00    +0.000 C 
ATOM     30  N   UNL     1       0.311  10.952  21.682  0.00  0.00    +0.000 NA
ATOM     31  C   UNL     1      -0.729  10.918  22.742  0.00  0.00    +0.000 C 
ATOM     32  C   UNL     1      -1.984  11.793  22.466  0.00  0.00    +0.000 C 
BRANCH  27  34
ATOM     33  C   UNL     1      -2.568  14.403  24.160  0.00  0.00    +0.000 C 
ATOM     34  C   UNL     1      -1.351  13.967  23.348  0.00  0.00    +0.000 C 
ENDBRANCH  27  34
ENDBRANCH  26  30
ENDBRANCH   1  26
TORSDOF 8
ENDMDL
MODEL 3
REMARK VINA RESULT:      -7.5      0.987      1.186
REMARK  Name = 
REMARK  10 active torsions:
REMARK  status: ('A' for Active; 'I' for Inactive)
REMARK    1  A    between atoms: C_1  and  C_2
REMARK    2  A    between atoms: C_2  and  N_3
REMARK    3  A    between atoms: N_6  and  C_7
REMARK    4  A    between atoms: C_7  and  C_8
REMARK    5  A    between atoms: C_9  and  O_10
REMARK    6  A    between atoms: C_14  and  O_15
REMARK    7  A    between atoms: C_19  and  C_20
REMARK    8  A    between atoms: C_23  and  O_24
REMARK    9  A    between atoms: O_24  and  C_25
REMARK   10  A    between atoms: C_26  and  O_27
REMARK                            x       y       z     vdW  Elec       q    Type
REMARK                         _______ _______ _______ _____ _____    ______ ____
ROOT
ATOM      1  C   UNL     1      -1.344  12.657  21.119  0.00  0.00    +0.000 A 
ATOM      2  C   UNL     1      -1.026  12.496  19.759  0.00  0.00    +0.000 A 
ATOM      3  C   UNL     1      -0.397  11.347  19.292  0.00  0.00    +0.000 A 
ATOM      4  C   UNL     1       0.051  10.398  20.198  0.00  0.00    +0.000 A 
ATOM      5  C   UNL     1      -0.099  10.605  21.563  0.00  0.00    +0.000 A 
ATOM      6  C   UNL     1      -0.814  11.724  22.025  0.00  0.00    +0.000 A 
ATOM      7  C   UNL     1       0.449   9.610  22.496  0.00  0.00    +0.000 C 
ATOM      8  O   UNL     1       0.385   9.795  23.715  0.00  0.00    +0.000 OA
ATOM      9  C   UNL     1       0.984   8.350  21.895  0.00  0.00    +0.000 C 
ATOM     10  C   UNL     1       1.557   8.654  20.513  0.00  0.00    +0.000 C 
ATOM     11  O   UNL     1       0.611   9.281  19.651  0.00  0.00    +0.000 OA
ENDROOT
BRANCH  10  12
ATOM     12  C   UNL     1       1.976   7.378  19.824  0.00  0.00    +0.000 A 
ATOM     13  C   UNL     1       2.518   7.404  18.536  0.00  0.00    +0.000 A 
ATOM     14  C   UNL     1       3.081   6.250  17.983  0.00  0.00    +0.000 A 
ATOM     15  C   UNL     1       3.114   5.066  18.722  0.00  0.00    +0.000 A 
ATOM     16  C   UNL     1       2.465   5.022  19.962  0.00  0.00    +0.000 A 
ATOM     17  C   UNL     1       1.873   6.151  20.496  0.00  0.00    +0.000 A 
BRANCH  15  18
ATOM     18  O   UNL     1       3.745   3.906  18.351  0.00  0.00    +0.000 OA
ATOM     19  C   UNL     1       3.072   3.131  17.365  0.00  0.00    +0.000 C 
ENDBRANCH  15  18
BRANCH  16  20
ATOM     20  O   UNL     1       2.449   3.880  20.708  0.00  0.00    +0.000 OA
ATOM     21  H   UNL     1       1.556   3.845  21.095  0.00  0.00    +0.000 HD
ENDBRANCH  16  20
ENDBRANCH  10  12
BRANCH   2  22
ATOM     22  O   UNL     1      -1.325  13.435  18.814  0.00  0.00    +0.000 OA
ATOM     23  H   UNL     1      -0.554  14.034  18.747  0.00  0.00    +0.000 HD
ENDBRANCH   2  22
BRANCH   6  24
ATOM     24  O   UNL     1      -1.021  11.938  23.367  0.00  0.00    +0.000 OA
ATOM     25  H   UNL     1      -0.737  11.134  23.861  0.00  0.00    +0.000 HD
ENDBRANCH   6  24
BRANCH   1  26
ATOM     26  C   UNL     1      -2.231  13.776  21.632  0.00  0.00    +0.000 C 
BRANCH  26  30
ATOM     27  N   UNL     1      -5.312  14.513  23.629  0.00  0.00    +0.000 NA
ATOM     28  C   UNL     1      -4.672  13.187  23.508  0.00  0.00    +0.000 C 
ATOM     29  C   UNL     1      -4.424  12.724  22.053  0.00  0.00    +0.000 C 
ATOM     30  N   UNL     1      -3.652  13.677  21.206  0.00  0.00    +0.000 NA
ATOM     31  C   UNL     1      -4.313  15.002  21.325  0.00  0.00    +0.000 C 
ATOM     32  C   UNL     1      -4.579  15.479  22.780  0.00  0.00    +0.000 C 
BRANCH  27  34
ATOM     33  C   UNL     1      -7.565  13.555  24.166  0.00  0.00    +0.000 C 
ATOM     34  C   UNL     1      -6.745  14.506  23.298  0.00  0.00    +0.000 C 
ENDBRANCH  27  34
ENDBRANCH  26  30
ENDBRANCH   1  26
TORSDOF 8
ENDMDL
MODEL 4
REMARK VINA RESULT:      -7.5      3.687      5.377
REMARK  Name = 
REMARK  10 active torsions:
REMARK  status: ('A' for Active; 'I' for Inactive)
REMARK    1  A    between atoms: C_1  and  C_2
REMARK    2  A    between atoms: C_2  and  N_3
REMARK    3  A    between atoms: N_6  and  C_7
REMARK    4  A    between atoms: C_7  and  C_8
REMARK    5  A    between atoms: C_9  and  O_10
REMARK    6  A    between atoms: C_14  and  O_15
REMARK    7  A    between atoms: C_19  and  C_20
REMARK    8  A    between atoms: C_23  and  O_24
REMARK    9  A    between atoms: O_24  and  C_25
REMARK   10  A    between atoms: C_26  and  O_27
REMARK                            x       y       z     vdW  Elec       q    Type
REMARK                         _______ _______ _______ _____ _____    ______ ____
ROOT
ATOM      1  C   UNL     1       0.417  11.107  20.760  0.00  0.00    +0.000 A 
ATOM      2  C   UNL     1       0.337  10.280  21.893  0.00  0.00    +0.000 A 
ATOM      3  C   UNL     1       0.904   9.011  21.907  0.00  0.00    +0.000 A 
ATOM      4  C   UNL     1       1.444   8.492  20.741  0.00  0.00    +0.000 A 
ATOM      5  C   UNL     1       1.390   9.219  19.559  0.00  0.00    +0.000 A 
ATOM      6  C   UNL     1       0.897  10.535  19.570  0.00  0.00    +0.000 A 
ATOM      7  C   UNL     1       1.911   8.609  18.326  0.00  0.00    +0.000 C 
ATOM      8  O   UNL     1       1.824   9.206  17.248  0.00  0.00    +0.000 OA
ATOM      9  C   UNL     1       2.621   7.302  18.473  0.00  0.00    +0.000 C 
ATOM     10  C   UNL     1       2.012   6.525  19.638  0.00  0.00    +0.000 C 
ATOM     11  O   UNL     1       2.023   7.262  20.856  0.00  0.00    +0.000 OA
ENDROOT
BRANCH  10  12
ATOM     12  C   UNL     1       2.800   5.263  19.898  0.00  0.00    +0.000 A 
ATOM     13  C   UNL     1       2.239   4.205  20.619  0.00  0.00    +0.000 A 
ATOM     14  C   UNL     1       2.896   2.973  20.689  0.00  0.00    +0.000 A 
ATOM     15  C   UNL     1       4.114   2.792  20.030  0.00  0.00    +0.000 A 
ATOM     16  C   UNL     1       4.720   3.892  19.412  0.00  0.00    +0.000 A 
ATOM     17  C   UNL     1       4.092   5.122  19.373  0.00  0.00    +0.000 A 
BRANCH  15  18
ATOM     18  O   UNL     1       4.794   1.606  19.915  0.00  0.00    +0.000 OA
ATOM     19  C   UNL     1       5.341   1.094  21.124  0.00  0.00    +0.000 C 
ENDBRANCH  15  18
BRANCH  16  20
ATOM     20  O   UNL     1       5.922   3.768  18.778  0.00  0.00    +0.000 OA
ATOM     21  H   UNL     1       6.243   4.680  18.666  0.00  0.00    +0.000 HD
ENDBRANCH  16  20
ENDBRANCH  10  12
BRANCH   2  22
ATOM     22  O   UNL     1      -0.281  10.667  23.048  0.00  0.00    +0.000 OA
ATOM     23  H   UNL     1       0.381  11.147  23.584  0.00  0.00    +0.000 HD
ENDBRANCH   2  22
BRANCH   6  24
ATOM     24  O   UNL     1       0.870  11.301  18.430  0.00  0.00    +0.000 OA
ATOM     25  H   UNL     1      -0.048  11.297  18.069  0.00  0.00    +0.000 HD
ENDBRANCH   6  24
BRANCH   1  26
ATOM     26  C   UNL     1       0.023  12.573  20.778  0.00  0.00    +0.000 C 
BRANCH  26  30
ATOM     27  N   UNL     1       1.493  15.897  19.876  0.00  0.00    +0.000 NA
ATOM     28  C   UNL     1       2.146  14.590  19.659  0.00  0.00    +0.000 C 
ATOM     29  C   UNL     1       2.219  13.691  20.916  0.00  0.00    +0.000 C 
ATOM     30  N   UNL     1       0.916  13.438  21.593  0.00  0.00    +0.000 NA
ATOM     31  C   UNL     1       0.276  14.760  21.818  0.00  0.00    +0.000 C 
ATOM     32  C   UNL     1       0.202  15.680  20.568  0.00  0.00    +0.000 C 
BRANCH  27  34
ATOM     33  C   UNL     1       3.718  17.042  20.010  0.00  0.00    +0.000 C 
ATOM     34  C   UNL     1       2.329  16.855  20.614  0.00  0.00    +0.000 C 
ENDBRANCH  27  34
ENDBRANCH  26  30
ENDBRANCH   1  26
TORSDOF 8
ENDMDL
MODEL 5
REMARK VINA RESULT:      -7.5      3.905     10.463
REMARK  Name = 
REMARK  10 active torsions:
REMARK  status: ('A' for Active; 'I' for Inactive)
REMARK    1  A    between atoms: C_1  and  C_2
REMARK    2  A    between atoms: C_2  and  N_3
REMARK    3  A    between atoms: N_6  and  C_7
REMARK    4  A    between atoms: C_7  and  C_8
REMARK    5  A    between atoms: C_9  and  O_10
REMARK    6  A    between atoms: C_14  and  O_15
REMARK    7  A    between atoms: C_19  and  C_20
REMARK    8  A    between atoms: C_23  and  O_24
REMARK    9  A    between atoms: O_24  and  C_25
REMARK   10  A    between atoms: C_26  and  O_27
REMARK                            x       y       z     vdW  Elec       q    Type
REMARK                         _______ _______ _______ _____ _____    ______ ____
ROOT
ATOM      1  C   UNL     1       2.015   7.872  19.123  0.00  0.00    +0.000 A 
ATOM      2  C   UNL     1       1.733   7.550  20.462  0.00  0.00    +0.000 A 
ATOM      3  C   UNL     1       1.025   8.420  21.284  0.00  0.00    +0.000 A 
ATOM      4  C   UNL     1       0.707   9.688  20.822  0.00  0.00    +0.000 A 
ATOM      5  C   UNL     1       1.117  10.099  19.561  0.00  0.00    +0.000 A 
ATOM      6  C   UNL     1       1.753   9.186  18.702  0.00  0.00    +0.000 A 
ATOM      7  C   UNL     1       0.820  11.473  19.131  0.00  0.00    +0.000 C 
ATOM      8  O   UNL     1       1.224  11.888  18.040  0.00  0.00    +0.000 OA
ATOM      9  C   UNL     1      -0.059  12.282  20.029  0.00  0.00    +0.000 C 
ATOM     10  C   UNL     1       0.168  11.853  21.477  0.00  0.00    +0.000 C 
ATOM     11  O   UNL     1      -0.031  10.456  21.675  0.00  0.00    +0.000 OA
ENDROOT
BRANCH  10  12
ATOM     12  C   UNL     1      -0.808  12.553  22.393  0.00  0.00    +0.000 A 
ATOM     13  C   UNL     1      -0.680  13.917  22.667  0.00  0.00    +0.000 A 
ATOM     14  C   UNL     1      -1.690  14.597  23.353  0.00  0.00    +0.000 A 
ATOM     15  C   UNL     1      -2.840  13.916  23.759  0.00  0.00    +0.000 A 
ATOM     16  C   UNL     1      -2.904  12.529  23.582  0.00  0.00    +0.000 A 
ATOM     17  C   UNL     1      -1.889  11.846  22.938  0.00  0.00    +0.000 A 
BRANCH  15  18
ATOM     18  O   UNL     1      -3.952  14.487  24.323  0.00  0.00    +0.000 OA
ATOM     19  C   UNL     1      -3.745  15.750  24.943  0.00  0.00    +0.000 C 
ENDBRANCH  15  18
BRANCH  16  20
ATOM     20  O   UNL     1      -3.996  11.818  23.985  0.00  0.00    +0.000 OA
ATOM     21  H   UNL     1      -3.785  10.891  23.776  0.00  0.00    +0.000 HD
ENDBRANCH  16  20
ENDBRANCH  10  12
BRANCH   2  22
ATOM     22  O   UNL     1       2.114   6.370  21.034  0.00  0.00    +0.000 OA
ATOM     23  H   UNL     1       1.551   6.236  21.823  0.00  0.00    +0.000 HD
ENDBRANCH   2  22
BRANCH   6  24
ATOM     24  O   UNL     1       2.133   9.543  17.430  0.00  0.00    +0.000 OA
ATOM     25  H   UNL     1       2.691  10.355  17.485  0.00  0.00    +0.000 HD
ENDBRANCH   6  24
BRANCH   1  26
ATOM     26  C   UNL     1       2.572   6.867  18.131  0.00  0.00    +0.000 C 
BRANCH  26  30
ATOM     27  N   UNL     1       4.849   4.727  16.069  0.00  0.00    +0.000 NA
ATOM     28  C   UNL     1       3.838   4.223  17.021  0.00  0.00    +0.000 C 
ATOM     29  C   UNL     1       3.934   4.831  18.440  0.00  0.00    +0.000 C 
ATOM     30  N   UNL     1       3.906   6.320  18.497  0.00  0.00    +0.000 NA
ATOM     31  C   UNL     1       4.936   6.813  17.547  0.00  0.00    +0.000 C 
ATOM     32  C   UNL     1       4.861   6.206  16.118  0.00  0.00    +0.000 C 
BRANCH  27  34
ATOM     33  C   UNL     1       7.256   4.766  15.370  0.00  0.00    +0.000 C 
ATOM     34  C   UNL     1       6.196   4.184  16.301  0.00  0.00    +0.000 C 
ENDBRANCH  27  34
ENDBRANCH  26  30
ENDBRANCH   1  26
TORSDOF 8
ENDMDL
MODEL 6
REMARK VINA RESULT:      -7.5      1.559      2.825
REMARK  Name = 
REMARK  10 active torsions:
REMARK  status: ('A' for Active; 'I' for Inactive)
REMARK    1  A    between atoms: C_1  and  C_2
REMARK    2  A    between atoms: C_2  and  N_3
REMARK    3  A    between atoms: N_6  and  C_7
REMARK    4  A    between atoms: C_7  and  C_8
REMARK    5  A    between atoms: C_9  and  O_10
REMARK    6  A    between atoms: C_14  and  O_15
REMARK    7  A    between atoms: C_19  and  C_20
REMARK    8  A    between atoms: C_23  and  O_24
REMARK    9  A    between atoms: O_24  and  C_25
REMARK   10  A    between atoms: C_26  and  O_27
REMARK                            x       y       z     vdW  Elec       q    Type
REMARK                         _______ _______ _______ _____ _____    ______ ____
ROOT
ATOM      1  C   UNL     1      -0.465  10.930  21.921  0.00  0.00    +0.000 A 
ATOM      2  C   UNL     1       0.052   9.856  22.666  0.00  0.00    +0.000 A 
ATOM      3  C   UNL     1       0.902   8.918  22.092  0.00  0.00    +0.000 A 
ATOM      4  C   UNL     1       1.140   8.958  20.727  0.00  0.00    +0.000 A 
ATOM      5  C   UNL     1       0.511   9.907  19.932  0.00  0.00    +0.000 A 
ATOM      6  C   UNL     1      -0.275  10.907  20.529  0.00  0.00    +0.000 A 
ATOM      7  C   UNL     1       0.735   9.877  18.479  0.00  0.00    +0.000 C 
ATOM      8  O   UNL     1       0.143  10.669  17.739  0.00  0.00    +0.000 OA
ATOM      9  C   UNL     1       1.767   8.919  17.979  0.00  0.00    +0.000 C 
ATOM     10  C   UNL     1       1.803   7.694  18.890  0.00  0.00    +0.000 C 
ATOM     11  O   UNL     1       2.024   8.031  20.256  0.00  0.00    +0.000 OA
ENDROOT
BRANCH  10  12
ATOM     12  C   UNL     1       2.932   6.774  18.492  0.00  0.00    +0.000 A 
ATOM     13  C   UNL     1       3.888   7.178  17.556  0.00  0.00    +0.000 A 
ATOM     14  C   UNL     1       5.033   6.406  17.338  0.00  0.00    +0.000 A 
ATOM     15  C   UNL     1       5.231   5.230  18.064  0.00  0.00    +0.000 A 
ATOM     16  C   UNL     1       4.213   4.777  18.912  0.00  0.00    +0.000 A 
ATOM     17  C   UNL     1       3.062   5.518  19.101  0.00  0.00    +0.000 A 
BRANCH  15  18
ATOM     18  O   UNL     1       6.361   4.453  18.039  0.00  0.00    +0.000 OA
ATOM     19  C   UNL     1       7.154   4.564  16.863  0.00  0.00    +0.000 C 
ENDBRANCH  15  18
BRANCH  16  20
ATOM     20  O   UNL     1       4.351   3.620  19.621  0.00  0.00    +0.000 OA
ATOM     21  H   UNL     1       5.298   3.402  19.565  0.00  0.00    +0.000 HD
ENDBRANCH  16  20
ENDBRANCH  10  12
BRANCH   2  22
ATOM     22  O   UNL     1      -0.227   9.674  23.990  0.00  0.00    +0.000 OA
ATOM     23  H   UNL     1       0.359  10.273  24.495  0.00  0.00    +0.000 HD
ENDBRANCH   2  22
BRANCH   6  24
ATOM     24  O   UNL     1      -0.877  11.890  19.780  0.00  0.00    +0.000 OA
ATOM     25  H   UNL     1      -1.339  12.512  20.390  0.00  0.00    +0.000 HD
ENDBRANCH   6  24
BRANCH   1  26
ATOM     26  C   UNL     1      -1.199  12.098  22.555  0.00  0.00    +0.000 C 
BRANCH  26  30
ATOM     27  N   UNL     1      -3.738  14.713  23.410  0.00  0.00    +0.000 NA
ATOM     28  C   UNL     1      -3.229  13.685  24.340  0.00  0.00    +0.000 C 
ATOM     29  C   UNL     1      -3.322  12.236  23.807  0.00  0.00    +0.000 C 
ATOM     30  N   UNL     1      -2.681  12.004  22.482  0.00  0.00    +0.000 NA
ATOM     31  C   UNL     1      -3.212  13.034  21.554  0.00  0.00    +0.000 C 
ATOM     32  C   UNL     1      -3.135  14.496  22.076  0.00  0.00    +0.000 C 
BRANCH  27  34
ATOM     33  C   UNL     1      -5.825  15.965  24.010  0.00  0.00    +0.000 C 
ATOM     34  C   UNL     1      -5.206  14.751  23.323  0.00  0.00    +0.000 C 
ENDBRANCH  27  34
ENDBRANCH  26  30
ENDBRANCH   1  26
TORSDOF 8
ENDMDL
MODEL 7
REMARK VINA RESULT:      -7.5      1.907      3.600
REMARK  Name = 
REMARK  10 active torsions:
REMARK  status: ('A' for Active; 'I' for Inactive)
REMARK    1  A    between atoms: C_1  and  C_2
REMARK    2  A    between atoms: C_2  and  N_3
REMARK    3  A    between atoms: N_6  and  C_7
REMARK    4  A    between atoms: C_7  and  C_8
REMARK    5  A    between atoms: C_9  and  O_10
REMARK    6  A    between atoms: C_14  and  O_15
REMARK    7  A    between atoms: C_19  and  C_20
REMARK    8  A    between atoms: C_23  and  O_24
REMARK    9  A    between atoms: O_24  and  C_25
REMARK   10  A    between atoms: C_26  and  O_27
REMARK                            x       y       z     vdW  Elec       q    Type
REMARK                         _______ _______ _______ _____ _____    ______ ____
ROOT
ATOM      1  C   UNL     1       0.303  11.348  20.949  0.00  0.00    +0.000 A 
ATOM      2  C   UNL     1       0.166  10.471  22.039  0.00  0.00    +0.000 A 
ATOM      3  C   UNL     1       0.698   9.187  22.009  0.00  0.00    +0.000 A 
ATOM      4  C   UNL     1       1.258   8.708  20.835  0.00  0.00    +0.000 A 
ATOM      5  C   UNL     1       1.259   9.490  19.688  0.00  0.00    +0.000 A 
ATOM      6  C   UNL     1       0.802  10.818  19.747  0.00  0.00    +0.000 A 
ATOM      7  C   UNL     1       1.800   8.924  18.443  0.00  0.00    +0.000 C 
ATOM      8  O   UNL     1       1.762   9.573  17.393  0.00  0.00    +0.000 OA
ATOM      9  C   UNL     1       2.469   7.592  18.548  0.00  0.00    +0.000 C 
ATOM     10  C   UNL     1       1.805   6.779  19.657  0.00  0.00    +0.000 C 
ATOM     11  O   UNL     1       1.800   7.458  20.909  0.00  0.00    +0.000 OA
ENDROOT
BRANCH  10  12
ATOM     12  C   UNL     1       2.550   5.485  19.880  0.00  0.00    +0.000 A 
ATOM     13  C   UNL     1       1.943   4.414  20.543  0.00  0.00    +0.000 A 
ATOM     14  C   UNL     1       2.562   3.162  20.575  0.00  0.00    +0.000 A 
ATOM     15  C   UNL     1       3.788   2.972  19.934  0.00  0.00    +0.000 A 
ATOM     16  C   UNL     1       4.440   4.078  19.375  0.00  0.00    +0.000 A 
ATOM     17  C   UNL     1       3.849   5.327  19.376  0.00  0.00    +0.000 A 
BRANCH  15  18
ATOM     18  O   UNL     1       4.436   1.772  19.782  0.00  0.00    +0.000 OA
ATOM     19  C   UNL     1       3.977   0.960  18.708  0.00  0.00    +0.000 C 
ENDBRANCH  15  18
BRANCH  16  20
ATOM     20  O   UNL     1       5.651   3.945  18.762  0.00  0.00    +0.000 OA
ATOM     21  H   UNL     1       6.101   4.797  18.904  0.00  0.00    +0.000 HD
ENDBRANCH  16  20
ENDBRANCH  10  12
BRANCH   2  22
ATOM     22  O   UNL     1      -0.476  10.822  23.192  0.00  0.00    +0.000 OA
ATOM     23  H   UNL     1      -0.853  11.714  23.055  0.00  0.00    +0.000 HD
ENDBRANCH   2  22
BRANCH   6  24
ATOM     24  O   UNL     1       0.830  11.637  18.644  0.00  0.00    +0.000 OA
ATOM     25  H   UNL     1       1.370  11.201  17.943  0.00  0.00    +0.000 HD
ENDBRANCH   6  24
BRANCH   1  26
ATOM     26  C   UNL     1      -0.052  12.822  21.024  0.00  0.00    +0.000 C 
BRANCH  26  30
ATOM     27  N   UNL     1      -3.430  14.173  21.907  0.00  0.00    +0.000 NA
ATOM     28  C   UNL     1      -3.117  12.748  21.679  0.00  0.00    +0.000 C 
ATOM     29  C   UNL     1      -2.396  12.457  20.341  0.00  0.00    +0.000 C 
ATOM     30  N   UNL     1      -1.148  13.237  20.109  0.00  0.00    +0.000 NA
ATOM     31  C   UNL     1      -1.480  14.668  20.329  0.00  0.00    +0.000 C 
ATOM     32  C   UNL     1      -2.213  14.979  21.663  0.00  0.00    +0.000 C 
BRANCH  27  34
ATOM     33  C   UNL     1      -5.834  13.851  21.276  0.00  0.00    +0.000 C 
ATOM     34  C   UNL     1      -4.556  14.665  21.098  0.00  0.00    +0.000 C 
ENDBRANCH  27  34
ENDBRANCH  26  30
ENDBRANCH   1  26
TORSDOF 8
ENDMDL
MODEL 8
REMARK VINA RESULT:      -7.4      2.470      4.015
REMARK  Name = 
REMARK  10 active torsions:
REMARK  status: ('A' for Active; 'I' for Inactive)
REMARK    1  A    between atoms: C_1  and  C_2
REMARK    2  A    between atoms: C_2  and  N_3
REMARK    3  A    between atoms: N_6  and  C_7
REMARK    4  A    between atoms: C_7  and  C_8
REMARK    5  A    between atoms: C_9  and  O_10
REMARK    6  A    between atoms: C_14  and  O_15
REMARK    7  A    between atoms: C_19  and  C_20
REMARK    8  A    between atoms: C_23  and  O_24
REMARK    9  A    between atoms: O_24  and  C_25
REMARK   10  A    between atoms: C_26  and  O_27
REMARK                            x       y       z     vdW  Elec       q    Type
REMARK                         _______ _______ _______ _____ _____    ______ ____
ROOT
ATOM      1  C   UNL     1      -0.622  10.668  21.815  0.00  0.00    +0.000 A 
ATOM      2  C   UNL     1       0.088   9.748  22.607  0.00  0.00    +0.000 A 
ATOM      3  C   UNL     1       1.047   8.906  22.056  0.00  0.00    +0.000 A 
ATOM      4  C   UNL     1       1.217   8.872  20.681  0.00  0.00    +0.000 A 
ATOM      5  C   UNL     1       0.414   9.648  19.855  0.00  0.00    +0.000 A 
ATOM      6  C   UNL     1      -0.491  10.562  20.421  0.00  0.00    +0.000 A 
ATOM      7  C   UNL     1       0.576   9.536  18.398  0.00  0.00    +0.000 C 
ATOM      8  O   UNL     1      -0.163  10.168  17.637  0.00  0.00    +0.000 OA
ATOM      9  C   UNL     1       1.722   8.708  17.913  0.00  0.00    +0.000 C 
ATOM     10  C   UNL     1       1.987   7.580  18.907  0.00  0.00    +0.000 C 
ATOM     11  O   UNL     1       2.213   8.056  20.231  0.00  0.00    +0.000 OA
ENDROOT
BRANCH  10  12
ATOM     12  C   UNL     1       3.228   6.813  18.516  0.00  0.00    +0.000 A 
ATOM     13  C   UNL     1       3.664   5.723  19.273  0.00  0.00    +0.000 A 
ATOM     14  C   UNL     1       4.693   4.902  18.801  0.00  0.00    +0.000 A 
ATOM     15  C   UNL     1       5.283   5.164  17.563  0.00  0.00    +0.000 A 
ATOM     16  C   UNL     1       4.918   6.325  16.870  0.00  0.00    +0.000 A 
ATOM     17  C   UNL     1       3.929   7.160  17.352  0.00  0.00    +0.000 A 
BRANCH  15  18
ATOM     18  O   UNL     1       6.206   4.370  16.931  0.00  0.00    +0.000 OA
ATOM     19  C   UNL     1       7.553   4.538  17.359  0.00  0.00    +0.000 C 
ENDBRANCH  15  18
BRANCH  16  20
ATOM     20  O   UNL     1       5.487   6.635  15.669  0.00  0.00    +0.000 OA
ATOM     21  H   UNL     1       4.902   7.309  15.280  0.00  0.00    +0.000 HD
ENDBRANCH  16  20
ENDBRANCH  10  12
BRANCH   2  22
ATOM     22  O   UNL     1      -0.102   9.632  23.954  0.00  0.00    +0.000 OA
ATOM     23  H   UNL     1       0.009   8.687  24.182  0.00  0.00    +0.000 HD
ENDBRANCH   2  22
BRANCH   6  24
ATOM     24  O   UNL     1      -1.270  11.379  19.637  0.00  0.00    +0.000 OA
ATOM     25  H   UNL     1      -0.847  12.269  19.592  0.00  0.00    +0.000 HD
ENDBRANCH   6  24
BRANCH   1  26
ATOM     26  C   UNL     1      -1.500  11.758  22.403  0.00  0.00    +0.000 C 
BRANCH  26  30
ATOM     27  N   UNL     1      -1.854  15.450  21.892  0.00  0.00    +0.000 NA
ATOM     28  C   UNL     1      -0.905  14.579  21.171  0.00  0.00    +0.000 C 
ATOM     29  C   UNL     1      -0.015  13.704  22.087  0.00  0.00    +0.000 C 
ATOM     30  N   UNL     1      -0.751  12.857  23.067  0.00  0.00    +0.000 NA
ATOM     31  C   UNL     1      -1.692  13.748  23.794  0.00  0.00    +0.000 C 
ATOM     32  C   UNL     1      -2.588  14.641  22.891  0.00  0.00    +0.000 C 
BRANCH  27  34
ATOM     33  C   UNL     1      -0.857  17.723  21.540  0.00  0.00    +0.000 C 
ATOM     34  C   UNL     1      -1.218  16.615  22.526  0.00  0.00    +0.000 C 
ENDBRANCH  27  34
ENDBRANCH  26  30
ENDBRANCH   1  26
TORSDOF 8
ENDMDL
MODEL 9
REMARK VINA RESULT:      -7.4      2.456      3.739
REMARK  Name = 
REMARK  10 active torsions:
REMARK  status: ('A' for Active; 'I' for Inactive)
REMARK    1  A    between atoms: C_1  and  C_2
REMARK    2  A    between atoms: C_2  and  N_3
REMARK    3  A    between atoms: N_6  and  C_7
REMARK    4  A    between atoms: C_7  and  C_8
REMARK    5  A    between atoms: C_9  and  O_10
REMARK    6  A    between atoms: C_14  and  O_15
REMARK    7  A    between atoms: C_19  and  C_20
REMARK    8  A    between atoms: C_23  and  O_24
REMARK    9  A    between atoms: O_24  and  C_25
REMARK   10  A    between atoms: C_26  and  O_27
REMARK                            x       y       z     vdW  Elec       q    Type
REMARK                         _______ _______ _______ _____ _____    ______ ____
ROOT
ATOM      1  C   UNL     1       0.178  10.530  19.936  0.00  0.00    +0.000 A 
ATOM      2  C   UNL     1       0.819  10.963  18.762  0.00  0.00    +0.000 A 
ATOM      3  C   UNL     1       1.615  10.106  18.011  0.00  0.00    +0.000 A 
ATOM      4  C   UNL     1       1.896   8.837  18.495  0.00  0.00    +0.000 A 
ATOM      5  C   UNL     1       1.414   8.435  19.733  0.00  0.00    +0.000 A 
ATOM      6  C   UNL     1       0.537   9.272  20.446  0.00  0.00    +0.000 A 
ATOM      7  C   UNL     1       1.788   7.108  20.244  0.00  0.00    +0.000 C 
ATOM      8  O   UNL     1       1.424   6.746  21.368  0.00  0.00    +0.000 OA
ATOM      9  C   UNL     1       2.531   6.214  19.306  0.00  0.00    +0.000 C 
ATOM     10  C   UNL     1       3.395   7.063  18.377  0.00  0.00    +0.000 C 
ATOM     11  O   UNL     1       2.642   8.046  17.671  0.00  0.00    +0.000 OA
ENDROOT
BRANCH  10  12
ATOM     12  C   UNL     1       4.048   6.196  17.327  0.00  0.00    +0.000 A 
ATOM     13  C   UNL     1       4.710   6.768  16.236  0.00  0.00    +0.000 A 
ATOM     14  C   UNL     1       5.474   5.973  15.379  0.00  0.00    +0.000 A 
ATOM     15  C   UNL     1       5.589   4.601  15.614  0.00  0.00    +0.000 A 
ATOM     16  C   UNL     1       4.829   4.023  16.638  0.00  0.00    +0.000 A 
ATOM     17  C   UNL     1       4.041   4.801  17.465  0.00  0.00    +0.000 A 
BRANCH  15  18
ATOM     18  O   UNL     1       6.404   3.736  14.929  0.00  0.00    +0.000 OA
ATOM     19  C   UNL     1       6.309   3.799  13.510  0.00  0.00    +0.000 C 
ENDBRANCH  15  18
BRANCH  16  20
ATOM     20  O   UNL     1       4.889   2.684  16.888  0.00  0.00    +0.000 OA
ATOM     21  H   UNL     1       5.374   2.606  17.728  0.00  0.00    +0.000 HD
ENDBRANCH  16  20
ENDBRANCH  10  12
BRANCH   2  22
ATOM     22  O   UNL     1       0.692  12.234  18.277  0.00  0.00    +0.000 OA
ATOM     23  H   UNL     1       0.599  12.164  17.306  0.00  0.00    +0.000 HD
ENDBRANCH   2  22
BRANCH   6  24
ATOM     24  O   UNL     1       0.004   8.890  21.654  0.00  0.00    +0.000 OA
ATOM     25  H   UNL     1       0.639   8.280  22.099  0.00  0.00    +0.000 HD
ENDBRANCH   6  24
BRANCH   1  26
ATOM     26  C   UNL     1      -0.877  11.353  20.653  0.00  0.00    +0.000 C 
BRANCH  26  30
ATOM     27  N   UNL     1      -2.534  13.981  22.743  0.00  0.00    +0.000 NA
ATOM     28  C   UNL     1      -1.479  14.231  21.740  0.00  0.00    +0.000 C 
ATOM     29  C   UNL     1      -0.208  13.366  21.915  0.00  0.00    +0.000 C 
ATOM     30  N   UNL     1      -0.443  11.896  21.967  0.00  0.00    +0.000 NA
ATOM     31  C   UNL     1      -1.495  11.657  22.989  0.00  0.00    +0.000 C 
ATOM     32  C   UNL     1      -2.775  12.524  22.833  0.00  0.00    +0.000 C 
BRANCH  27  34
ATOM     33  C   UNL     1      -1.878  16.030  24.028  0.00  0.00    +0.000 C 
ATOM     34  C   UNL     1      -2.232  14.546  24.067  0.00  0.00    +0.000 C 
ENDBRANCH  27  34
ENDBRANCH  26  30
ENDBRANCH   1  26
TORSDOF 8
ENDMDL
