MODEL 1
REMARK VINA RESULT:      -6.9      0.000      0.000
REMARK  Name = 
REMARK  5 active torsions:
REMARK  status: ('A' for Active; 'I' for Inactive)
REMARK    1  A    between atoms: C_1  and  O_2
REMARK    2  A    between atoms: O_2  and  C_3
REMARK    3  A    between atoms: N_14  and  C_15
REMARK    4  A    between atoms: C_19  and  C_20
REMARK    5  A    between atoms: C_19  and  C_21
REMARK                            x       y       z     vdW  Elec       q    Type
REMARK                         _______ _______ _______ _____ _____    ______ ____
ROOT
ATOM      1  C   UNL     1      -2.504  13.261  22.520  0.00  0.00    +0.000 C 
ATOM      2  C   UNL     1      -2.661  12.671  21.155  0.00  0.00    +0.000 C 
ATOM      3  C   UNL     1      -3.781  12.713  20.408  0.00  0.00    +0.000 C 
ATOM      4  C   UNL     1      -3.850  12.126  19.031  0.00  0.00    +0.000 A 
ATOM      5  C   UNL     1      -2.743  11.553  18.370  0.00  0.00    +0.000 A 
ATOM      6  C   UNL     1      -2.921  11.016  17.107  0.00  0.00    +0.000 A 
ATOM      7  C   UNL     1      -4.113  11.099  16.439  0.00  0.00    +0.000 A 
ATOM      8  C   UNL     1      -5.219  11.664  17.021  0.00  0.00    +0.000 A 
ATOM      9  C   UNL     1      -5.098  12.110  18.352  0.00  0.00    +0.000 A 
ATOM     10  C   UNL     1      -6.356  12.266  19.133  0.00  0.00    +0.000 C 
ATOM     11  O   UNL     1      -7.433  11.963  18.621  0.00  0.00    +0.000 OA
ATOM     12  N   UNL     1      -6.188  12.557  20.477  0.00  0.00    +0.000 N 
ATOM     13  C   UNL     1      -7.177  12.060  21.413  0.00  0.00    +0.000 C 
ATOM     14  C   UNL     1      -5.050  13.390  20.914  0.00  0.00    +0.000 C 
ATOM     15  C   UNL     1      -5.032  13.737  22.442  0.00  0.00    +0.000 C 
ATOM     16  O   UNL     1      -5.845  14.907  22.751  0.00  0.00    +0.000 OA
ATOM     17  C   UNL     1      -4.922  15.976  23.052  0.00  0.00    +0.000 C 
ATOM     18  C   UNL     1      -4.872  16.248  24.573  0.00  0.00    +0.000 C 
ATOM     19  C   UNL     1      -5.365  17.265  22.371  0.00  0.00    +0.000 C 
ATOM     20  O   UNL     1      -3.618  15.542  22.612  0.00  0.00    +0.000 OA
ATOM     21  C   UNL     1      -3.673  14.147  22.949  0.00  0.00    +0.000 C 
ATOM     22  O   UNL     1      -4.076  10.473  15.230  0.00  0.00    +0.000 OA
ATOM     23  C   UNL     1      -2.827   9.764  15.356  0.00  0.00    +0.000 C 
ATOM     24  O   UNL     1      -1.995  10.292  16.413  0.00  0.00    +0.000 OA
ENDROOT
BRANCH   1  26
ATOM     25  C   UNL     1      -1.391  11.163  22.980  0.00  0.00    +0.000 C 
ATOM     26  O   UNL     1      -2.366  12.118  23.387  0.00  0.00    +0.000 OA
ENDBRANCH   1  26
TORSDOF 1
ENDMDL
MODEL 2
REMARK VINA RESULT:      -6.8      2.906      4.111
REMARK  Name = 
REMARK  5 active torsions:
REMARK  status: ('A' for Active; 'I' for Inactive)
REMARK    1  A    between atoms: C_1  and  O_2
REMARK    2  A    between atoms: O_2  and  C_3
REMARK    3  A    between atoms: N_14  and  C_15
REMARK    4  A    between atoms: C_19  and  C_20
REMARK    5  A    between atoms: C_19  and  C_21
REMARK                            x       y       z     vdW  Elec       q    Type
REMARK                         _______ _______ _______ _____ _____    ______ ____
ROOT
ATOM      1  C   UNL     1      -2.500  12.668  23.368  0.00  0.00    +0.000 C 
ATOM      2  C   UNL     1      -1.633  11.772  22.541  0.00  0.00    +0.000 C 
ATOM      3  C   UNL     1      -1.556  11.780  21.197  0.00  0.00    +0.000 C 
ATOM      4  C   UNL     1      -0.636  10.871  20.441  0.00  0.00    +0.000 A 
ATOM      5  C   UNL     1       0.277   9.991  21.062  0.00  0.00    +0.000 A 
ATOM      6  C   UNL     1       1.066   9.175  20.268  0.00  0.00    +0.000 A 
ATOM      7  C   UNL     1       1.056   9.253  18.903  0.00  0.00    +0.000 A 
ATOM      8  C   UNL     1       0.206  10.104  18.242  0.00  0.00    +0.000 A 
ATOM      9  C   UNL     1      -0.693  10.860  19.021  0.00  0.00    +0.000 A 
ATOM     10  C   UNL     1      -1.902  11.394  18.335  0.00  0.00    +0.000 C 
ATOM     11  O   UNL     1      -2.098  11.127  17.151  0.00  0.00    +0.000 OA
ATOM     12  N   UNL     1      -2.835  11.998  19.163  0.00  0.00    +0.000 N 
ATOM     13  C   UNL     1      -4.234  11.911  18.793  0.00  0.00    +0.000 C 
ATOM     14  C   UNL     1      -2.390  12.742  20.357  0.00  0.00    +0.000 C 
ATOM     15  C   UNL     1      -3.530  13.468  21.148  0.00  0.00    +0.000 C 
ATOM     16  O   UNL     1      -3.832  14.784  20.597  0.00  0.00    +0.000 OA
ATOM     17  C   UNL     1      -3.309  15.749  21.535  0.00  0.00    +0.000 C 
ATOM     18  C   UNL     1      -4.451  16.398  22.351  0.00  0.00    +0.000 C 
ATOM     19  C   UNL     1      -2.583  16.865  20.796  0.00  0.00    +0.000 C 
ATOM     20  O   UNL     1      -2.441  15.031  22.436  0.00  0.00    +0.000 OA
ATOM     21  C   UNL     1      -3.159  13.796  22.572  0.00  0.00    +0.000 C 
ATOM     22  O   UNL     1       1.879   8.336  18.323  0.00  0.00    +0.000 OA
ATOM     23  C   UNL     1       2.175   7.510  19.468  0.00  0.00    +0.000 C 
ATOM     24  O   UNL     1       1.872   8.170  20.718  0.00  0.00    +0.000 OA
ENDROOT
BRANCH   1  26
ATOM     25  C   UNL     1      -4.491  12.417  24.718  0.00  0.00    +0.000 C 
ATOM     26  O   UNL     1      -3.484  11.783  23.938  0.00  0.00    +0.000 OA
ENDBRANCH   1  26
TORSDOF 1
ENDMDL
MODEL 3
REMARK VINA RESULT:      -6.6      1.301      1.462
REMARK  Name = 
REMARK  5 active torsions:
REMARK  status: ('A' for Active; 'I' for Inactive)
REMARK    1  A    between atoms: C_1  and  O_2
REMARK    2  A    between atoms: O_2  and  C_3
REMARK    3  A    between atoms: N_14  and  C_15
REMARK    4  A    between atoms: C_19  and  C_20
REMARK    5  A    between atoms: C_19  and  C_21
REMARK                            x       y       z     vdW  Elec       q    Type
REMARK                         _______ _______ _______ _____ _____    ______ ____
ROOT
ATOM      1  C   UNL     1      -1.147  12.345  22.702  0.00  0.00    +0.000 C 
ATOM      2  C   UNL     1      -1.584  11.947  21.328  0.00  0.00    +0.000 C 
ATOM      3  C   UNL     1      -2.730  12.326  20.730  0.00  0.00    +0.000 C 
ATOM      4  C   UNL     1      -3.081  11.910  19.334  0.00  0.00    +0.000 A 
ATOM      5  C   UNL     1      -2.222  11.159  18.502  0.00  0.00    +0.000 A 
ATOM      6  C   UNL     1      -2.656  10.807  17.236  0.00  0.00    +0.000 A 
ATOM      7  C   UNL     1      -3.852  11.235  16.727  0.00  0.00    +0.000 A 
ATOM      8  C   UNL     1      -4.720  11.985  17.479  0.00  0.00    +0.000 A 
ATOM      9  C   UNL     1      -4.358  12.257  18.814  0.00  0.00    +0.000 A 
ATOM     10  C   UNL     1      -5.452  12.628  19.753  0.00  0.00    +0.000 C 
ATOM     11  O   UNL     1      -6.616  12.640  19.357  0.00  0.00    +0.000 OA
ATOM     12  N   UNL     1      -5.080  12.737  21.083  0.00  0.00    +0.000 N 
ATOM     13  C   UNL     1      -6.061  12.398  22.096  0.00  0.00    +0.000 C 
ATOM     14  C   UNL     1      -3.735  13.230  21.435  0.00  0.00    +0.000 C 
ATOM     15  C   UNL     1      -3.475  13.411  22.969  0.00  0.00    +0.000 C 
ATOM     16  O   UNL     1      -3.939  14.704  23.459  0.00  0.00    +0.000 OA
ATOM     17  C   UNL     1      -2.755  15.489  23.718  0.00  0.00    +0.000 C 
ATOM     18  C   UNL     1      -2.485  15.591  25.237  0.00  0.00    +0.000 C 
ATOM     19  C   UNL     1      -2.935  16.906  23.190  0.00  0.00    +0.000 C 
ATOM     20  O   UNL     1      -1.651  14.804  23.092  0.00  0.00    +0.000 OA
ATOM     21  C   UNL     1      -2.013  13.436  23.333  0.00  0.00    +0.000 C 
ATOM     22  O   UNL     1      -4.094  10.741  15.481  0.00  0.00    +0.000 OA
ATOM     23  C   UNL     1      -3.052   9.747  15.402  0.00  0.00    +0.000 C 
ATOM     24  O   UNL     1      -2.012   9.957  16.383  0.00  0.00    +0.000 OA
ENDROOT
BRANCH   1  26
ATOM     25  C   UNL     1      -0.467  10.034  22.919  0.00  0.00    +0.000 C 
ATOM     26  O   UNL     1      -1.207  11.122  23.462  0.00  0.00    +0.000 OA
ENDBRANCH   1  26
TORSDOF 1
ENDMDL
MODEL 4
REMARK VINA RESULT:      -6.5      8.268     11.693
REMARK  Name = 
REMARK  5 active torsions:
REMARK  status: ('A' for Active; 'I' for Inactive)
REMARK    1  A    between atoms: C_1  and  O_2
REMARK    2  A    between atoms: O_2  and  C_3
REMARK    3  A    between atoms: N_14  and  C_15
REMARK    4  A    between atoms: C_19  and  C_20
REMARK    5  A    between atoms: C_19  and  C_21
REMARK                            x       y       z     vdW  Elec       q    Type
REMARK                         _______ _______ _______ _____ _____    ______ ____
ROOT
ATOM      1  C   UNL     1       5.395   6.663  16.168  0.00  0.00    +0.000 C 
ATOM      2  C   UNL     1       4.230   7.376  16.776  0.00  0.00    +0.000 C 
ATOM      3  C   UNL     1       3.709   7.130  17.994  0.00  0.00    +0.000 C 
ATOM      4  C   UNL     1       2.558   7.913  18.548  0.00  0.00    +0.000 A 
ATOM      5  C   UNL     1       1.973   9.015  17.888  0.00  0.00    +0.000 A 
ATOM      6  C   UNL     1       0.897   9.655  18.478  0.00  0.00    +0.000 A 
ATOM      7  C   UNL     1       0.434   9.313  19.719  0.00  0.00    +0.000 A 
ATOM      8  C   UNL     1       0.976   8.265  20.419  0.00  0.00    +0.000 A 
ATOM      9  C   UNL     1       1.994   7.520  19.792  0.00  0.00    +0.000 A 
ATOM     10  C   UNL     1       2.241   6.144  20.302  0.00  0.00    +0.000 C 
ATOM     11  O   UNL     1       1.537   5.692  21.204  0.00  0.00    +0.000 OA
ATOM     12  N   UNL     1       3.140   5.390  19.565  0.00  0.00    +0.000 N 
ATOM     13  C   UNL     1       2.943   3.954  19.509  0.00  0.00    +0.000 C 
ATOM     14  C   UNL     1       4.283   6.046  18.900  0.00  0.00    +0.000 C 
ATOM     15  C   UNL     1       5.284   5.073  18.189  0.00  0.00    +0.000 C 
ATOM     16  O   UNL     1       6.284   4.544  19.108  0.00  0.00    +0.000 OA
ATOM     17  C   UNL     1       7.529   5.196  18.775  0.00  0.00    +0.000 C 
ATOM     18  C   UNL     1       8.468   4.234  18.012  0.00  0.00    +0.000 C 
ATOM     19  C   UNL     1       8.252   5.633  20.042  0.00  0.00    +0.000 C 
ATOM     20  O   UNL     1       7.203   6.309  17.916  0.00  0.00    +0.000 OA
ATOM     21  C   UNL     1       6.134   5.745  17.142  0.00  0.00    +0.000 C 
ATOM     22  O   UNL     1      -0.653  10.045  20.089  0.00  0.00    +0.000 OA
ATOM     23  C   UNL     1      -0.971  10.671  18.829  0.00  0.00    +0.000 C 
ATOM     24  O   UNL     1       0.131  10.623  17.895  0.00  0.00    +0.000 OA
ENDROOT
BRANCH   1  26
ATOM     25  C   UNL     1       5.584   4.795  14.643  0.00  0.00    +0.000 C 
ATOM     26  O   UNL     1       4.823   5.918  15.075  0.00  0.00    +0.000 OA
ENDBRANCH   1  26
TORSDOF 1
ENDMDL
MODEL 5
REMARK VINA RESULT:      -6.4      1.998      4.027
REMARK  Name = 
REMARK  5 active torsions:
REMARK  status: ('A' for Active; 'I' for Inactive)
REMARK    1  A    between atoms: C_1  and  O_2
REMARK    2  A    between atoms: O_2  and  C_3
REMARK    3  A    between atoms: N_14  and  C_15
REMARK    4  A    between atoms: C_19  and  C_20
REMARK    5  A    between atoms: C_19  and  C_21
REMARK                            x       y       z     vdW  Elec       q    Type
REMARK                         _______ _______ _______ _____ _____    ______ ____
ROOT
ATOM      1  C   UNL     1      -7.621  14.019  19.647  0.00  0.00    +0.000 C 
ATOM      2  C   UNL     1      -6.662  13.230  18.814  0.00  0.00    +0.000 C 
ATOM      3  C   UNL     1      -5.453  12.792  19.214  0.00  0.00    +0.000 C 
ATOM      4  C   UNL     1      -4.561  11.976  18.329  0.00  0.00    +0.000 A 
ATOM      5  C   UNL     1      -4.934  11.531  17.042  0.00  0.00    +0.000 A 
ATOM      6  C   UNL     1      -4.023  10.801  16.296  0.00  0.00    +0.000 A 
ATOM      7  C   UNL     1      -2.808  10.420  16.795  0.00  0.00    +0.000 A 
ATOM      8  C   UNL     1      -2.398  10.804  18.048  0.00  0.00    +0.000 A 
ATOM      9  C   UNL     1      -3.255  11.648  18.783  0.00  0.00    +0.000 A 
ATOM     10  C   UNL     1      -2.645  12.440  19.885  0.00  0.00    +0.000 C 
ATOM     11  O   UNL     1      -1.434  12.372  20.087  0.00  0.00    +0.000 OA
ATOM     12  N   UNL     1      -3.483  13.368  20.482  0.00  0.00    +0.000 N 
ATOM     13  C   UNL     1      -2.893  14.587  21.002  0.00  0.00    +0.000 C 
ATOM     14  C   UNL     1      -4.925  13.083  20.615  0.00  0.00    +0.000 C 
ATOM     15  C   UNL     1      -5.744  14.161  21.403  0.00  0.00    +0.000 C 
ATOM     16  O   UNL     1      -5.697  13.945  22.844  0.00  0.00    +0.000 OA
ATOM     17  C   UNL     1      -7.003  13.459  23.226  0.00  0.00    +0.000 C 
ATOM     18  C   UNL     1      -7.814  14.566  23.938  0.00  0.00    +0.000 C 
ATOM     19  C   UNL     1      -6.871  12.293  24.196  0.00  0.00    +0.000 C 
ATOM     20  O   UNL     1      -7.685  13.089  22.009  0.00  0.00    +0.000 OA
ATOM     21  C   UNL     1      -7.224  14.117  21.120  0.00  0.00    +0.000 C 
ATOM     22  O   UNL     1      -2.059   9.744  15.881  0.00  0.00    +0.000 OA
ATOM     23  C   UNL     1      -2.833   9.997  14.691  0.00  0.00    +0.000 C 
ATOM     24  O   UNL     1      -4.175  10.442  14.988  0.00  0.00    +0.000 OA
ENDROOT
BRANCH   1  26
ATOM     25  C   UNL     1      -7.673  15.306  17.599  0.00  0.00    +0.000 C 
ATOM     26  O   UNL     1      -7.647  15.318  19.023  0.00  0.00    +0.000 OA
ENDBRANCH   1  26
TORSDOF 1
ENDMDL
MODEL 6
REMARK VINA RESULT:      -6.4      6.007      8.039
REMARK  Name = 
REMARK  5 active torsions:
REMARK  status: ('A' for Active; 'I' for Inactive)
REMARK    1  A    between atoms: C_1  and  O_2
REMARK    2  A    between atoms: O_2  and  C_3
REMARK    3  A    between atoms: N_14  and  C_15
REMARK    4  A    between atoms: C_19  and  C_20
REMARK    5  A    between atoms: C_19  and  C_21
REMARK                            x       y       z     vdW  Elec       q    Type
REMARK                         _______ _______ _______ _____ _____    ______ ____
ROOT
ATOM      1  C   UNL     1       1.823  11.924  18.084  0.00  0.00    +0.000 C 
ATOM      2  C   UNL     1       2.418  10.569  17.871  0.00  0.00    +0.000 C 
ATOM      3  C   UNL     1       2.024   9.435  18.482  0.00  0.00    +0.000 C 
ATOM      4  C   UNL     1       2.651   8.106  18.188  0.00  0.00    +0.000 A 
ATOM      5  C   UNL     1       3.643   7.911  17.203  0.00  0.00    +0.000 A 
ATOM      6  C   UNL     1       4.173   6.644  17.029  0.00  0.00    +0.000 A 
ATOM      7  C   UNL     1       3.709   5.556  17.717  0.00  0.00    +0.000 A 
ATOM      8  C   UNL     1       2.731   5.679  18.672  0.00  0.00    +0.000 A 
ATOM      9  C   UNL     1       2.258   6.976  18.955  0.00  0.00    +0.000 A 
ATOM     10  C   UNL     1       1.588   7.183  20.268  0.00  0.00    +0.000 C 
ATOM     11  O   UNL     1       1.511   6.250  21.067  0.00  0.00    +0.000 OA
ATOM     12  N   UNL     1       1.275   8.497  20.574  0.00  0.00    +0.000 N 
ATOM     13  C   UNL     1       1.296   8.899  21.967  0.00  0.00    +0.000 C 
ATOM     14  C   UNL     1       0.889   9.433  19.500  0.00  0.00    +0.000 C 
ATOM     15  C   UNL     1       0.455  10.858  19.986  0.00  0.00    +0.000 C 
ATOM     16  O   UNL     1      -0.953  10.907  20.361  0.00  0.00    +0.000 OA
ATOM     17  C   UNL     1      -1.626  11.651  19.322  0.00  0.00    +0.000 C 
ATOM     18  C   UNL     1      -1.979  13.076  19.807  0.00  0.00    +0.000 C 
ATOM     19  C   UNL     1      -2.929  10.962  18.938  0.00  0.00    +0.000 C 
ATOM     20  O   UNL     1      -0.707  11.749  18.214  0.00  0.00    +0.000 OA
ATOM     21  C   UNL     1       0.537  11.911  18.911  0.00  0.00    +0.000 C 
ATOM     22  O   UNL     1       4.396   4.419  17.418  0.00  0.00    +0.000 OA
ATOM     23  C   UNL     1       5.505   4.984  16.689  0.00  0.00    +0.000 C 
ATOM     24  O   UNL     1       5.239   6.331  16.236  0.00  0.00    +0.000 OA
ENDROOT
BRANCH   1  26
ATOM     25  C   UNL     1       2.477  13.947  19.239  0.00  0.00    +0.000 C 
ATOM     26  O   UNL     1       2.865  12.669  18.746  0.00  0.00    +0.000 OA
ENDBRANCH   1  26
TORSDOF 1
ENDMDL
MODEL 7
REMARK VINA RESULT:      -6.4     10.574     13.619
REMARK  Name = 
REMARK  5 active torsions:
REMARK  status: ('A' for Active; 'I' for Inactive)
REMARK    1  A    between atoms: C_1  and  O_2
REMARK    2  A    between atoms: O_2  and  C_3
REMARK    3  A    between atoms: N_14  and  C_15
REMARK    4  A    between atoms: C_19  and  C_20
REMARK    5  A    between atoms: C_19  and  C_21
REMARK                            x       y       z     vdW  Elec       q    Type
REMARK                         _______ _______ _______ _____ _____    ______ ____
ROOT
ATOM      1  C   UNL     1       7.579   4.425  17.600  0.00  0.00    +0.000 C 
ATOM      2  C   UNL     1       6.377   4.070  18.415  0.00  0.00    +0.000 C 
ATOM      3  C   UNL     1       5.100   4.350  18.091  0.00  0.00    +0.000 C 
ATOM      4  C   UNL     1       3.944   3.930  18.947  0.00  0.00    +0.000 A 
ATOM      5  C   UNL     1       4.079   3.146  20.113  0.00  0.00    +0.000 A 
ATOM      6  C   UNL     1       2.947   2.834  20.844  0.00  0.00    +0.000 A 
ATOM      7  C   UNL     1       1.690   3.183  20.432  0.00  0.00    +0.000 A 
ATOM      8  C   UNL     1       1.493   3.927  19.296  0.00  0.00    +0.000 A 
ATOM      9  C   UNL     1       2.636   4.361  18.595  0.00  0.00    +0.000 A 
ATOM     10  C   UNL     1       2.472   5.527  17.684  0.00  0.00    +0.000 C 
ATOM     11  O   UNL     1       1.382   6.091  17.607  0.00  0.00    +0.000 OA
ATOM     12  N   UNL     1       3.644   6.019  17.134  0.00  0.00    +0.000 N 
ATOM     13  C   UNL     1       3.724   7.440  16.853  0.00  0.00    +0.000 C 
ATOM     14  C   UNL     1       4.750   5.098  16.808  0.00  0.00    +0.000 C 
ATOM     15  C   UNL     1       5.976   5.760  16.092  0.00  0.00    +0.000 C 
ATOM     16  O   UNL     1       5.791   5.846  14.649  0.00  0.00    +0.000 OA
ATOM     17  C   UNL     1       6.673   4.863  14.065  0.00  0.00    +0.000 C 
ATOM     18  C   UNL     1       7.908   5.541  13.429  0.00  0.00    +0.000 C 
ATOM     19  C   UNL     1       5.954   4.094  12.964  0.00  0.00    +0.000 C 
ATOM     20  O   UNL     1       7.113   4.004  15.139  0.00  0.00    +0.000 OA
ATOM     21  C   UNL     1       7.246   4.956  16.205  0.00  0.00    +0.000 C 
ATOM     22  O   UNL     1       0.728   2.809  21.320  0.00  0.00    +0.000 OA
ATOM     23  C   UNL     1       1.556   2.445  22.444  0.00  0.00    +0.000 C 
ATOM     24  O   UNL     1       2.934   2.226  22.067  0.00  0.00    +0.000 OA
ENDROOT
BRANCH   1  26
ATOM     25  C   UNL     1       7.748   5.607  19.704  0.00  0.00    +0.000 C 
ATOM     26  O   UNL     1       8.263   5.418  18.390  0.00  0.00    +0.000 OA
ENDBRANCH   1  26
TORSDOF 1
ENDMDL
MODEL 8
REMARK VINA RESULT:      -6.4      2.389      4.030
REMARK  Name = 
REMARK  5 active torsions:
REMARK  status: ('A' for Active; 'I' for Inactive)
REMARK    1  A    between atoms: C_1  and  O_2
REMARK    2  A    between atoms: O_2  and  C_3
REMARK    3  A    between atoms: N_14  and  C_15
REMARK    4  A    between atoms: C_19  and  C_20
REMARK    5  A    between atoms: C_19  and  C_21
REMARK                            x       y       z     vdW  Elec       q    Type
REMARK                         _______ _______ _______ _____ _____    ______ ____
ROOT
ATOM      1  C   UNL     1      -3.908  13.096  24.207  0.00  0.00    +0.000 C 
ATOM      2  C   UNL     1      -2.889  12.258  23.503  0.00  0.00    +0.000 C 
ATOM      3  C   UNL     1      -2.594  12.323  22.190  0.00  0.00    +0.000 C 
ATOM      4  C   UNL     1      -1.534  11.470  21.563  0.00  0.00    +0.000 A 
ATOM      5  C   UNL     1      -0.706  10.590  22.293  0.00  0.00    +0.000 A 
ATOM      6  C   UNL     1       0.228   9.828  21.611  0.00  0.00    +0.000 A 
ATOM      7  C   UNL     1       0.438   9.962  20.266  0.00  0.00    +0.000 A 
ATOM      8  C   UNL     1      -0.320  10.816  19.506  0.00  0.00    +0.000 A 
ATOM      9  C   UNL     1      -1.358  11.516  20.154  0.00  0.00    +0.000 A 
ATOM     10  C   UNL     1      -2.456  12.046  19.299  0.00  0.00    +0.000 C 
ATOM     11  O   UNL     1      -2.448  11.823  18.089  0.00  0.00    +0.000 OA
ATOM     12  N   UNL     1      -3.530  12.590  19.983  0.00  0.00    +0.000 N 
ATOM     13  C   UNL     1      -4.847  12.482  19.386  0.00  0.00    +0.000 C 
ATOM     14  C   UNL     1      -3.310  13.296  21.260  0.00  0.00    +0.000 C 
ATOM     15  C   UNL     1      -4.587  13.959  21.880  0.00  0.00    +0.000 C 
ATOM     16  O   UNL     1      -4.838  15.288  21.334  0.00  0.00    +0.000 OA
ATOM     17  C   UNL     1      -4.507  16.227  22.380  0.00  0.00    +0.000 C 
ATOM     18  C   UNL     1      -5.787  16.812  23.020  0.00  0.00    +0.000 C 
ATOM     19  C   UNL     1      -3.707  17.392  21.811  0.00  0.00    +0.000 C 
ATOM     20  O   UNL     1      -3.774  15.495  23.385  0.00  0.00    +0.000 OA
ATOM     21  C   UNL     1      -4.465  14.238  23.356  0.00  0.00    +0.000 C 
ATOM     22  O   UNL     1       1.374   9.091  19.797  0.00  0.00    +0.000 OA
ATOM     23  C   UNL     1       1.506   8.227  20.944  0.00  0.00    +0.000 C 
ATOM     24  O   UNL     1       0.982   8.826  22.151  0.00  0.00    +0.000 OA
ENDROOT
BRANCH   1  26
ATOM     25  C   UNL     1      -6.271  12.585  24.290  0.00  0.00    +0.000 C 
ATOM     26  O   UNL     1      -4.942  12.163  24.576  0.00  0.00    +0.000 OA
ENDBRANCH   1  26
TORSDOF 1
ENDMDL
MODEL 9
REMARK VINA RESULT:      -6.3      2.412      3.543
REMARK  Name = 
REMARK  5 active torsions:
REMARK  status: ('A' for Active; 'I' for Inactive)
REMARK    1  A    between atoms: C_1  and  O_2
REMARK    2  A    between atoms: O_2  and  C_3
REMARK    3  A    between atoms: N_14  and  C_15
REMARK    4  A    between atoms: C_19  and  C_20
REMARK    5  A    between atoms: C_19  and  C_21
REMARK                            x       y       z     vdW  Elec       q    Type
REMARK                         _______ _______ _______ _____ _____    ______ ____
ROOT
ATOM      1  C   UNL     1      -4.605  13.591  22.178  0.00  0.00    +0.000 C 
ATOM      2  C   UNL     1      -3.532  12.815  21.483  0.00  0.00    +0.000 C 
ATOM      3  C   UNL     1      -3.558  12.422  20.196  0.00  0.00    +0.000 C 
ATOM      4  C   UNL     1      -2.425  11.673  19.562  0.00  0.00    +0.000 A 
ATOM      5  C   UNL     1      -1.212  11.385  20.224  0.00  0.00    +0.000 A 
ATOM      6  C   UNL     1      -0.238  10.666  19.554  0.00  0.00    +0.000 A 
ATOM      7  C   UNL     1      -0.372  10.299  18.242  0.00  0.00    +0.000 A 
ATOM      8  C   UNL     1      -1.519  10.570  17.539  0.00  0.00    +0.000 A 
ATOM      9  C   UNL     1      -2.575  11.195  18.232  0.00  0.00    +0.000 A 
ATOM     10  C   UNL     1      -3.940  11.058  17.656  0.00  0.00    +0.000 C 
ATOM     11  O   UNL     1      -4.109  10.382  16.643  0.00  0.00    +0.000 OA
ATOM     12  N   UNL     1      -4.968  11.553  18.442  0.00  0.00    +0.000 N 
ATOM     13  C   UNL     1      -6.261  10.901  18.366  0.00  0.00    +0.000 C 
ATOM     14  C   UNL     1      -4.743  12.739  19.290  0.00  0.00    +0.000 C 
ATOM     15  C   UNL     1      -6.011  13.264  20.046  0.00  0.00    +0.000 C 
ATOM     16  O   UNL     1      -6.812  14.162  19.223  0.00  0.00    +0.000 OA
ATOM     17  C   UNL     1      -6.613  15.489  19.755  0.00  0.00    +0.000 C 
ATOM     18  C   UNL     1      -7.852  15.952  20.556  0.00  0.00    +0.000 C 
ATOM     19  C   UNL     1      -6.400  16.487  18.624  0.00  0.00    +0.000 C 
ATOM     20  O   UNL     1      -5.481  15.419  20.647  0.00  0.00    +0.000 OA
ATOM     21  C   UNL     1      -5.686  14.127  21.238  0.00  0.00    +0.000 C 
ATOM     22  O   UNL     1       0.686   9.568  17.796  0.00  0.00    +0.000 OA
ATOM     23  C   UNL     1       1.344   9.292  19.049  0.00  0.00    +0.000 C 
ATOM     24  O   UNL     1       0.911  10.176  20.107  0.00  0.00    +0.000 OA
ENDROOT
BRANCH   1  26
ATOM     25  C   UNL     1      -6.376  13.066  23.740  0.00  0.00    +0.000 C 
ATOM     26  O   UNL     1      -5.154  12.662  23.133  0.00  0.00    +0.000 OA
ENDBRANCH   1  26
TORSDOF 1
ENDMDL
