MODEL 1
REMARK VINA RESULT:      -5.5      0.000      0.000
REMARK  Name = 
REMARK  8 active torsions:
REMARK  status: ('A' for Active; 'I' for Inactive)
REMARK    1  A    between atoms: C_1  and  C_2
REMARK    2  A    between atoms: C_4  and  S_5
REMARK    3  A    between atoms: S_5  and  C_6
REMARK    4  A    between atoms: C_6  and  C_7
REMARK    5  A    between atoms: C_7  and  O_8
REMARK    6  A    between atoms: C_7  and  C_9
REMARK    7  A    between atoms: C_9  and  O_10
REMARK    8  A    between atoms: C_11  and  N_12
REMARK                            x       y       z     vdW  Elec       q    Type
REMARK                         _______ _______ _______ _____ _____    ______ ____
ROOT
ATOM      1  C   UNL     1       8.812   9.896  18.285  0.00  0.00    +0.000 C 
ATOM      2  C   UNL     1       8.117   8.615  18.005  0.00  0.00    +0.000 A 
ATOM      3  N   UNL     1       7.226   8.368  17.063  0.00  0.00    +0.000 NA
ATOM      4  C   UNL     1       6.860   7.043  17.215  0.00  0.00    +0.000 A 
ATOM      5  C   UNL     1       7.559   6.495  18.256  0.00  0.00    +0.000 A 
ATOM      6  N   UNL     1       8.350   7.490  18.755  0.00  0.00    +0.000 N 
ATOM      7  H   UNL     1       8.986   7.400  19.540  0.00  0.00    +0.000 HD
ENDROOT
BRANCH   5   8
ATOM      8  N   UNL     1       7.600   5.206  18.836  0.00  0.00    +0.000 N 
ATOM      9  O   UNL     1       7.214   5.066  19.997  0.00  0.00    +0.000 OA
ATOM     10  O   UNL     1       8.033   4.304  18.101  0.00  0.00    +0.000 OA
ENDBRANCH   5   8
BRANCH   4  11
ATOM     11  S   UNL     1       5.667   6.289  16.187  0.00  0.00    +0.000 S 
BRANCH  11  12
ATOM     12  C   UNL     1       4.573   5.486  17.400  0.00  0.00    +0.000 C 
BRANCH  12  13
ATOM     13  C   UNL     1       4.451   3.967  17.216  0.00  0.00    +0.000 C 
BRANCH  13  14
ATOM     14  O   UNL     1       5.648   3.407  16.662  0.00  0.00    +0.000 OA
ATOM     15  H   UNL     1       6.170   3.018  17.386  0.00  0.00    +0.000 HD
ENDBRANCH  13  14
BRANCH  13  16
ATOM     16  C   UNL     1       4.144   3.283  18.560  0.00  0.00    +0.000 C 
BRANCH  16  17
ATOM     17  O   UNL     1       4.475   4.126  19.662  0.00  0.00    +0.000 OA
ATOM     18  H   UNL     1       4.969   3.592  20.308  0.00  0.00    +0.000 HD
ENDBRANCH  16  17
ENDBRANCH  13  16
ENDBRANCH  12  13
ENDBRANCH  11  12
ENDBRANCH   4  11
TORSDOF 7
ENDMDL
MODEL 2
REMARK VINA RESULT:      -5.4      2.652      3.738
REMARK  Name = 
REMARK  8 active torsions:
REMARK  status: ('A' for Active; 'I' for Inactive)
REMARK    1  A    between atoms: C_1  and  C_2
REMARK    2  A    between atoms: C_4  and  S_5
REMARK    3  A    between atoms: S_5  and  C_6
REMARK    4  A    between atoms: C_6  and  C_7
REMARK    5  A    between atoms: C_7  and  O_8
REMARK    6  A    between atoms: C_7  and  C_9
REMARK    7  A    between atoms: C_9  and  O_10
REMARK    8  A    between atoms: C_11  and  N_12
REMARK                            x       y       z     vdW  Elec       q    Type
REMARK                         _______ _______ _______ _____ _____    ______ ____
ROOT
ATOM      1  C   UNL     1       6.503   4.087  13.828  0.00  0.00    +0.000 C 
ATOM      2  C   UNL     1       6.468   4.564  15.233  0.00  0.00    +0.000 A 
ATOM      3  N   UNL     1       5.774   4.064  16.238  0.00  0.00    +0.000 NA
ATOM      4  C   UNL     1       6.058   4.857  17.336  0.00  0.00    +0.000 A 
ATOM      5  C   UNL     1       6.946   5.832  16.973  0.00  0.00    +0.000 A 
ATOM      6  N   UNL     1       7.202   5.647  15.645  0.00  0.00    +0.000 N 
ATOM      7  H   UNL     1       7.821   6.217  15.078  0.00  0.00    +0.000 HD
ENDROOT
BRANCH   5   8
ATOM      8  N   UNL     1       7.582   6.884  17.672  0.00  0.00    +0.000 N 
ATOM      9  O   UNL     1       8.110   6.641  18.758  0.00  0.00    +0.000 OA
ATOM     10  O   UNL     1       7.553   7.992  17.111  0.00  0.00    +0.000 OA
ENDBRANCH   5   8
BRANCH   4  11
ATOM     11  S   UNL     1       5.326   4.574  18.895  0.00  0.00    +0.000 S 
BRANCH  11  12
ATOM     12  C   UNL     1       4.069   3.317  18.503  0.00  0.00    +0.000 C 
BRANCH  12  13
ATOM     13  C   UNL     1       3.907   2.242  19.587  0.00  0.00    +0.000 C 
BRANCH  13  14
ATOM     14  O   UNL     1       5.172   1.859  20.140  0.00  0.00    +0.000 OA
ATOM     15  H   UNL     1       5.873   2.117  19.515  0.00  0.00    +0.000 HD
ENDBRANCH  13  14
BRANCH  13  16
ATOM     16  C   UNL     1       2.990   2.747  20.714  0.00  0.00    +0.000 C 
BRANCH  16  17
ATOM     17  O   UNL     1       1.639   2.871  20.272  0.00  0.00    +0.000 OA
ATOM     18  H   UNL     1       1.648   2.949  19.302  0.00  0.00    +0.000 HD
ENDBRANCH  16  17
ENDBRANCH  13  16
ENDBRANCH  12  13
ENDBRANCH  11  12
ENDBRANCH   4  11
TORSDOF 7
ENDMDL
MODEL 3
REMARK VINA RESULT:      -5.4      2.724      3.656
REMARK  Name = 
REMARK  8 active torsions:
REMARK  status: ('A' for Active; 'I' for Inactive)
REMARK    1  A    between atoms: C_1  and  C_2
REMARK    2  A    between atoms: C_4  and  S_5
REMARK    3  A    between atoms: S_5  and  C_6
REMARK    4  A    between atoms: C_6  and  C_7
REMARK    5  A    between atoms: C_7  and  O_8
REMARK    6  A    between atoms: C_7  and  C_9
REMARK    7  A    between atoms: C_9  and  O_10
REMARK    8  A    between atoms: C_11  and  N_12
REMARK                            x       y       z     vdW  Elec       q    Type
REMARK                         _______ _______ _______ _____ _____    ______ ____
ROOT
ATOM      1  C   UNL     1       6.329   3.937  14.267  0.00  0.00    +0.000 C 
ATOM      2  C   UNL     1       6.206   4.289  15.704  0.00  0.00    +0.000 A 
ATOM      3  N   UNL     1       5.177   4.074  16.503  0.00  0.00    +0.000 NA
ATOM      4  C   UNL     1       5.532   4.590  17.736  0.00  0.00    +0.000 A 
ATOM      5  C   UNL     1       6.797   5.105  17.666  0.00  0.00    +0.000 A 
ATOM      6  N   UNL     1       7.220   4.915  16.381  0.00  0.00    +0.000 N 
ATOM      7  H   UNL     1       8.122   5.196  16.010  0.00  0.00    +0.000 HD
ENDROOT
BRANCH   5   8
ATOM      8  N   UNL     1       7.653   5.728  18.603  0.00  0.00    +0.000 N 
ATOM      9  O   UNL     1       8.092   5.060  19.541  0.00  0.00    +0.000 OA
ATOM     10  O   UNL     1       7.895   6.927  18.391  0.00  0.00    +0.000 OA
ENDBRANCH   5   8
BRANCH   4  11
ATOM     11  S   UNL     1       4.445   4.551  19.102  0.00  0.00    +0.000 S 
BRANCH  11  12
ATOM     12  C   UNL     1       2.900   5.182  18.377  0.00  0.00    +0.000 C 
BRANCH  12  13
ATOM     13  C   UNL     1       1.841   4.098  18.131  0.00  0.00    +0.000 C 
BRANCH  13  14
ATOM     14  O   UNL     1       2.208   3.242  17.042  0.00  0.00    +0.000 OA
ATOM     15  H   UNL     1       1.395   2.884  16.643  0.00  0.00    +0.000 HD
ENDBRANCH  13  14
BRANCH  13  16
ATOM     16  C   UNL     1       1.633   3.250  19.398  0.00  0.00    +0.000 C 
BRANCH  16  17
ATOM     17  O   UNL     1       0.559   3.752  20.192  0.00  0.00    +0.000 OA
ATOM     18  H   UNL     1       0.891   4.513  20.698  0.00  0.00    +0.000 HD
ENDBRANCH  16  17
ENDBRANCH  13  16
ENDBRANCH  12  13
ENDBRANCH  11  12
ENDBRANCH   4  11
TORSDOF 7
ENDMDL
MODEL 4
REMARK VINA RESULT:      -5.3      2.661      3.810
REMARK  Name = 
REMARK  8 active torsions:
REMARK  status: ('A' for Active; 'I' for Inactive)
REMARK    1  A    between atoms: C_1  and  C_2
REMARK    2  A    between atoms: C_4  and  S_5
REMARK    3  A    between atoms: S_5  and  C_6
REMARK    4  A    between atoms: C_6  and  C_7
REMARK    5  A    between atoms: C_7  and  O_8
REMARK    6  A    between atoms: C_7  and  C_9
REMARK    7  A    between atoms: C_9  and  O_10
REMARK    8  A    between atoms: C_11  and  N_12
REMARK                            x       y       z     vdW  Elec       q    Type
REMARK                         _______ _______ _______ _____ _____    ______ ____
ROOT
ATOM      1  C   UNL     1       6.435   3.974  13.557  0.00  0.00    +0.000 C 
ATOM      2  C   UNL     1       6.256   4.572  14.904  0.00  0.00    +0.000 A 
ATOM      3  N   UNL     1       5.250   4.390  15.741  0.00  0.00    +0.000 NA
ATOM      4  C   UNL     1       5.527   5.167  16.851  0.00  0.00    +0.000 A 
ATOM      5  C   UNL     1       6.723   5.807  16.671  0.00  0.00    +0.000 A 
ATOM      6  N   UNL     1       7.180   5.431  15.441  0.00  0.00    +0.000 N 
ATOM      7  H   UNL     1       8.046   5.741  15.012  0.00  0.00    +0.000 HD
ENDROOT
BRANCH   5   8
ATOM      8  N   UNL     1       7.489   6.692  17.465  0.00  0.00    +0.000 N 
ATOM      9  O   UNL     1       7.680   7.838  17.058  0.00  0.00    +0.000 OA
ATOM     10  O   UNL     1       7.910   6.221  18.534  0.00  0.00    +0.000 OA
ENDBRANCH   5   8
BRANCH   4  11
ATOM     11  S   UNL     1       4.438   5.256  18.212  0.00  0.00    +0.000 S 
BRANCH  11  12
ATOM     12  C   UNL     1       4.772   3.686  19.070  0.00  0.00    +0.000 C 
BRANCH  12  13
ATOM     13  C   UNL     1       3.517   2.839  19.325  0.00  0.00    +0.000 C 
BRANCH  13  14
ATOM     14  O   UNL     1       2.328   3.639  19.296  0.00  0.00    +0.000 OA
ATOM     15  H   UNL     1       2.411   4.288  18.575  0.00  0.00    +0.000 HD
ENDBRANCH  13  14
BRANCH  13  16
ATOM     16  C   UNL     1       3.401   1.717  18.278  0.00  0.00    +0.000 C 
BRANCH  16  17
ATOM     17  O   UNL     1       4.368   0.692  18.502  0.00  0.00    +0.000 OA
ATOM     18  H   UNL     1       4.144   0.249  19.339  0.00  0.00    +0.000 HD
ENDBRANCH  16  17
ENDBRANCH  13  16
ENDBRANCH  12  13
ENDBRANCH  11  12
ENDBRANCH   4  11
TORSDOF 7
ENDMDL
MODEL 5
REMARK VINA RESULT:      -5.3      2.670      3.709
REMARK  Name = 
REMARK  8 active torsions:
REMARK  status: ('A' for Active; 'I' for Inactive)
REMARK    1  A    between atoms: C_1  and  C_2
REMARK    2  A    between atoms: C_4  and  S_5
REMARK    3  A    between atoms: S_5  and  C_6
REMARK    4  A    between atoms: C_6  and  C_7
REMARK    5  A    between atoms: C_7  and  O_8
REMARK    6  A    between atoms: C_7  and  C_9
REMARK    7  A    between atoms: C_9  and  O_10
REMARK    8  A    between atoms: C_11  and  N_12
REMARK                            x       y       z     vdW  Elec       q    Type
REMARK                         _______ _______ _______ _____ _____    ______ ____
ROOT
ATOM      1  C   UNL     1       6.474   4.080  14.092  0.00  0.00    +0.000 C 
ATOM      2  C   UNL     1       6.444   4.675  15.451  0.00  0.00    +0.000 A 
ATOM      3  N   UNL     1       5.713   4.295  16.483  0.00  0.00    +0.000 NA
ATOM      4  C   UNL     1       6.021   5.162  17.515  0.00  0.00    +0.000 A 
ATOM      5  C   UNL     1       6.961   6.060  17.089  0.00  0.00    +0.000 A 
ATOM      6  N   UNL     1       7.224   5.752  15.785  0.00  0.00    +0.000 N 
ATOM      7  H   UNL     1       7.879   6.242  15.183  0.00  0.00    +0.000 HD
ENDROOT
BRANCH   5   8
ATOM      8  N   UNL     1       7.638   7.136  17.708  0.00  0.00    +0.000 N 
ATOM      9  O   UNL     1       7.577   8.252  17.191  0.00  0.00    +0.000 OA
ATOM     10  O   UNL     1       8.251   6.851  18.750  0.00  0.00    +0.000 OA
ENDBRANCH   5   8
BRANCH   4  11
ATOM     11  S   UNL     1       5.255   5.046  19.080  0.00  0.00    +0.000 S 
BRANCH  11  12
ATOM     12  C   UNL     1       4.435   3.424  18.982  0.00  0.00    +0.000 C 
BRANCH  12  13
ATOM     13  C   UNL     1       2.920   3.508  18.740  0.00  0.00    +0.000 C 
BRANCH  13  14
ATOM     14  O   UNL     1       2.566   4.705  18.038  0.00  0.00    +0.000 OA
ATOM     15  H   UNL     1       3.352   5.026  17.559  0.00  0.00    +0.000 HD
ENDBRANCH  13  14
BRANCH  13  16
ATOM     16  C   UNL     1       2.433   2.286  17.942  0.00  0.00    +0.000 C 
BRANCH  16  17
ATOM     17  O   UNL     1       1.433   1.561  18.655  0.00  0.00    +0.000 OA
ATOM     18  H   UNL     1       1.728   1.473  19.578  0.00  0.00    +0.000 HD
ENDBRANCH  16  17
ENDBRANCH  13  16
ENDBRANCH  12  13
ENDBRANCH  11  12
ENDBRANCH   4  11
TORSDOF 7
ENDMDL
MODEL 6
REMARK VINA RESULT:      -5.3      2.690      3.663
REMARK  Name = 
REMARK  8 active torsions:
REMARK  status: ('A' for Active; 'I' for Inactive)
REMARK    1  A    between atoms: C_1  and  C_2
REMARK    2  A    between atoms: C_4  and  S_5
REMARK    3  A    between atoms: S_5  and  C_6
REMARK    4  A    between atoms: C_6  and  C_7
REMARK    5  A    between atoms: C_7  and  O_8
REMARK    6  A    between atoms: C_7  and  C_9
REMARK    7  A    between atoms: C_9  and  O_10
REMARK    8  A    between atoms: C_11  and  N_12
REMARK                            x       y       z     vdW  Elec       q    Type
REMARK                         _______ _______ _______ _____ _____    ______ ____
ROOT
ATOM      1  C   UNL     1       6.579   4.225  14.381  0.00  0.00    +0.000 C 
ATOM      2  C   UNL     1       6.425   4.551  15.821  0.00  0.00    +0.000 A 
ATOM      3  N   UNL     1       5.368   4.351  16.585  0.00  0.00    +0.000 NA
ATOM      4  C   UNL     1       5.701   4.832  17.839  0.00  0.00    +0.000 A 
ATOM      5  C   UNL     1       6.983   5.309  17.816  0.00  0.00    +0.000 A 
ATOM      6  N   UNL     1       7.437   5.133  16.541  0.00  0.00    +0.000 N 
ATOM      7  H   UNL     1       8.357   5.394  16.201  0.00  0.00    +0.000 HD
ENDROOT
BRANCH   5   8
ATOM      8  N   UNL     1       7.829   5.887  18.791  0.00  0.00    +0.000 N 
ATOM      9  O   UNL     1       8.176   7.061  18.653  0.00  0.00    +0.000 OA
ATOM     10  O   UNL     1       8.154   5.139  19.726  0.00  0.00    +0.000 OA
ENDBRANCH   5   8
BRANCH   4  11
ATOM     11  S   UNL     1       4.574   4.798  19.172  0.00  0.00    +0.000 S 
BRANCH  11  12
ATOM     12  C   UNL     1       3.935   3.095  19.086  0.00  0.00    +0.000 C 
BRANCH  12  13
ATOM     13  C   UNL     1       2.451   3.008  18.702  0.00  0.00    +0.000 C 
BRANCH  13  14
ATOM     14  O   UNL     1       1.990   1.651  18.694  0.00  0.00    +0.000 OA
ATOM     15  H   UNL     1       1.040   1.647  18.910  0.00  0.00    +0.000 HD
ENDBRANCH  13  14
BRANCH  13  16
ATOM     16  C   UNL     1       1.592   3.832  19.677  0.00  0.00    +0.000 C 
BRANCH  16  17
ATOM     17  O   UNL     1       0.470   3.086  20.145  0.00  0.00    +0.000 OA
ATOM     18  H   UNL     1      -0.328   3.454  19.729  0.00  0.00    +0.000 HD
ENDBRANCH  16  17
ENDBRANCH  13  16
ENDBRANCH  12  13
ENDBRANCH  11  12
ENDBRANCH   4  11
TORSDOF 7
ENDMDL
MODEL 7
REMARK VINA RESULT:      -5.2      2.659      3.544
REMARK  Name = 
REMARK  8 active torsions:
REMARK  status: ('A' for Active; 'I' for Inactive)
REMARK    1  A    between atoms: C_1  and  C_2
REMARK    2  A    between atoms: C_4  and  S_5
REMARK    3  A    between atoms: S_5  and  C_6
REMARK    4  A    between atoms: C_6  and  C_7
REMARK    5  A    between atoms: C_7  and  O_8
REMARK    6  A    between atoms: C_7  and  C_9
REMARK    7  A    between atoms: C_9  and  O_10
REMARK    8  A    between atoms: C_11  and  N_12
REMARK                            x       y       z     vdW  Elec       q    Type
REMARK                         _______ _______ _______ _____ _____    ______ ____
ROOT
ATOM      1  C   UNL     1       6.235   3.962  14.407  0.00  0.00    +0.000 C 
ATOM      2  C   UNL     1       5.951   4.349  15.811  0.00  0.00    +0.000 A 
ATOM      3  N   UNL     1       4.793   4.300  16.443  0.00  0.00    +0.000 NA
ATOM      4  C   UNL     1       5.029   4.776  17.720  0.00  0.00    +0.000 A 
ATOM      5  C   UNL     1       6.353   5.098  17.846  0.00  0.00    +0.000 A 
ATOM      6  N   UNL     1       6.932   4.830  16.639  0.00  0.00    +0.000 N 
ATOM      7  H   UNL     1       7.911   4.969  16.411  0.00  0.00    +0.000 HD
ENDROOT
BRANCH   5   8
ATOM      8  N   UNL     1       7.140   5.602  18.908  0.00  0.00    +0.000 N 
ATOM      9  O   UNL     1       7.003   5.115  20.031  0.00  0.00    +0.000 OA
ATOM     10  O   UNL     1       7.922   6.517  18.604  0.00  0.00    +0.000 OA
ENDBRANCH   5   8
BRANCH   4  11
ATOM     11  S   UNL     1       3.755   4.917  18.905  0.00  0.00    +0.000 S 
BRANCH  11  12
ATOM     12  C   UNL     1       2.770   3.420  18.584  0.00  0.00    +0.000 C 
BRANCH  12  13
ATOM     13  C   UNL     1       3.470   2.117  18.994  0.00  0.00    +0.000 C 
BRANCH  13  14
ATOM     14  O   UNL     1       4.172   1.529  17.891  0.00  0.00    +0.000 OA
ATOM     15  H   UNL     1       4.450   2.241  17.288  0.00  0.00    +0.000 HD
ENDBRANCH  13  14
BRANCH  13  16
ATOM     16  C   UNL     1       4.456   2.373  20.147  0.00  0.00    +0.000 C 
BRANCH  16  17
ATOM     17  O   UNL     1       5.326   1.261  20.347  0.00  0.00    +0.000 OA
ATOM     18  H   UNL     1       4.872   0.627  20.928  0.00  0.00    +0.000 HD
ENDBRANCH  16  17
ENDBRANCH  13  16
ENDBRANCH  12  13
ENDBRANCH  11  12
ENDBRANCH   4  11
TORSDOF 7
ENDMDL
MODEL 8
REMARK VINA RESULT:      -5.2      2.661      3.456
REMARK  Name = 
REMARK  8 active torsions:
REMARK  status: ('A' for Active; 'I' for Inactive)
REMARK    1  A    between atoms: C_1  and  C_2
REMARK    2  A    between atoms: C_4  and  S_5
REMARK    3  A    between atoms: S_5  and  C_6
REMARK    4  A    between atoms: C_6  and  C_7
REMARK    5  A    between atoms: C_7  and  O_8
REMARK    6  A    between atoms: C_7  and  C_9
REMARK    7  A    between atoms: C_9  and  O_10
REMARK    8  A    between atoms: C_11  and  N_12
REMARK                            x       y       z     vdW  Elec       q    Type
REMARK                         _______ _______ _______ _____ _____    ______ ____
ROOT
ATOM      1  C   UNL     1       8.118   5.749  19.457  0.00  0.00    +0.000 C 
ATOM      2  C   UNL     1       7.242   5.267  18.360  0.00  0.00    +0.000 A 
ATOM      3  N   UNL     1       5.980   4.890  18.442  0.00  0.00    +0.000 NA
ATOM      4  C   UNL     1       5.606   4.511  17.165  0.00  0.00    +0.000 A 
ATOM      5  C   UNL     1       6.664   4.682  16.314  0.00  0.00    +0.000 A 
ATOM      6  N   UNL     1       7.696   5.157  17.071  0.00  0.00    +0.000 N 
ATOM      7  H   UNL     1       8.625   5.380  16.729  0.00  0.00    +0.000 HD
ENDROOT
BRANCH   5   8
ATOM      8  N   UNL     1       6.845   4.478  14.926  0.00  0.00    +0.000 N 
ATOM      9  O   UNL     1       6.245   3.551  14.380  0.00  0.00    +0.000 OA
ATOM     10  O   UNL     1       7.615   5.275  14.366  0.00  0.00    +0.000 OA
ENDBRANCH   5   8
BRANCH   4  11
ATOM     11  S   UNL     1       4.007   3.907  16.810  0.00  0.00    +0.000 S 
BRANCH  11  12
ATOM     12  C   UNL     1       3.195   4.005  18.436  0.00  0.00    +0.000 C 
BRANCH  12  13
ATOM     13  C   UNL     1       2.769   2.642  19.000  0.00  0.00    +0.000 C 
BRANCH  13  14
ATOM     14  O   UNL     1       2.785   1.627  17.988  0.00  0.00    +0.000 OA
ATOM     15  H   UNL     1       3.108   0.799  18.387  0.00  0.00    +0.000 HD
ENDBRANCH  13  14
BRANCH  13  16
ATOM     16  C   UNL     1       3.696   2.223  20.155  0.00  0.00    +0.000 C 
BRANCH  16  17
ATOM     17  O   UNL     1       5.057   2.546  19.876  0.00  0.00    +0.000 OA
ATOM     18  H   UNL     1       5.573   2.395  20.687  0.00  0.00    +0.000 HD
ENDBRANCH  16  17
ENDBRANCH  13  16
ENDBRANCH  12  13
ENDBRANCH  11  12
ENDBRANCH   4  11
TORSDOF 7
ENDMDL
MODEL 9
REMARK VINA RESULT:      -5.2      3.817      4.871
REMARK  Name = 
REMARK  8 active torsions:
REMARK  status: ('A' for Active; 'I' for Inactive)
REMARK    1  A    between atoms: C_1  and  C_2
REMARK    2  A    between atoms: C_4  and  S_5
REMARK    3  A    between atoms: S_5  and  C_6
REMARK    4  A    between atoms: C_6  and  C_7
REMARK    5  A    between atoms: C_7  and  O_8
REMARK    6  A    between atoms: C_7  and  C_9
REMARK    7  A    between atoms: C_9  and  O_10
REMARK    8  A    between atoms: C_11  and  N_12
REMARK                            x       y       z     vdW  Elec       q    Type
REMARK                         _______ _______ _______ _____ _____    ______ ____
ROOT
ATOM      1  C   UNL     1       6.604   4.621  15.472  0.00  0.00    +0.000 C 
ATOM      2  C   UNL     1       5.601   4.427  16.548  0.00  0.00    +0.000 A 
ATOM      3  N   UNL     1       5.254   5.282  17.493  0.00  0.00    +0.000 NA
ATOM      4  C   UNL     1       4.299   4.641  18.262  0.00  0.00    +0.000 A 
ATOM      5  C   UNL     1       4.070   3.392  17.753  0.00  0.00    +0.000 A 
ATOM      6  N   UNL     1       4.894   3.258  16.673  0.00  0.00    +0.000 N 
ATOM      7  H   UNL     1       4.963   2.437  16.082  0.00  0.00    +0.000 HD
ENDROOT
BRANCH   5   8
ATOM      8  N   UNL     1       3.208   2.331  18.116  0.00  0.00    +0.000 N 
ATOM      9  O   UNL     1       3.475   1.666  19.118  0.00  0.00    +0.000 OA
ATOM     10  O   UNL     1       2.230   2.160  17.371  0.00  0.00    +0.000 OA
ENDBRANCH   5   8
BRANCH   4  11
ATOM     11  S   UNL     1       3.575   5.400  19.658  0.00  0.00    +0.000 S 
BRANCH  11  12
ATOM     12  C   UNL     1       1.805   5.065  19.396  0.00  0.00    +0.000 C 
BRANCH  12  13
ATOM     13  C   UNL     1       1.170   4.191  20.487  0.00  0.00    +0.000 C 
BRANCH  13  14
ATOM     14  O   UNL     1       0.611   2.990  19.940  0.00  0.00    +0.000 OA
ATOM     15  H   UNL     1       1.109   2.757  19.136  0.00  0.00    +0.000 HD
ENDBRANCH  13  14
BRANCH  13  16
ATOM     16  C   UNL     1       2.212   3.825  21.559  0.00  0.00    +0.000 C 
BRANCH  16  17
ATOM     17  O   UNL     1       2.181   2.432  21.863  0.00  0.00    +0.000 OA
ATOM     18  H   UNL     1       3.093   2.144  22.040  0.00  0.00    +0.000 HD
ENDBRANCH  16  17
ENDBRANCH  13  16
ENDBRANCH  12  13
ENDBRANCH  11  12
ENDBRANCH   4  11
TORSDOF 7
ENDMDL
