MODEL 1
REMARK VINA RESULT:      -6.6      0.000      0.000
REMARK  Name = 
REMARK  11 active torsions:
REMARK  status: ('A' for Active; 'I' for Inactive)
REMARK    1  A    between atoms: C_1  and  O_2
REMARK    2  A    between atoms: O_2  and  C_3
REMARK    3  A    between atoms: C_6  and  C_7
REMARK    4  A    between atoms: C_9  and  C_10
REMARK    5  A    between atoms: C_10  and  C_11
REMARK    6  A    between atoms: C_11  and  C_12
REMARK    7  A    between atoms: C_12  and  C_13
REMARK    8  A    between atoms: C_13  and  C_14
REMARK    9  A    between atoms: C_14  and  C_15
REMARK   10  A    between atoms: C_23  and  O_24
REMARK   11  A    between atoms: O_24  and  C_25
REMARK                            x       y       z     vdW  Elec       q    Type
REMARK                         _______ _______ _______ _____ _____    ______ ____
ROOT
ATOM      1  C   UNL     1       1.749   6.063  20.513  0.00  0.00    +0.000 A 
ATOM      2  C   UNL     1       1.178   5.039  19.787  0.00  0.00    +0.000 A 
ATOM      3  C   UNL     1       1.572   3.850  20.430  0.00  0.00    +0.000 A 
ATOM      4  N   UNL     1       2.364   4.095  21.480  0.00  0.00    +0.000 NA
ATOM      5  N   UNL     1       2.450   5.436  21.509  0.00  0.00    +0.000 N 
ATOM      6  H   UNL     1       3.004   5.864  22.243  0.00  0.00    +0.000 HD
ENDROOT
BRANCH   1  10
ATOM      7  C   UNL     1       0.940  10.215  20.025  0.00  0.00    +0.000 A 
ATOM      8  C   UNL     1       1.390   9.441  18.937  0.00  0.00    +0.000 A 
ATOM      9  C   UNL     1       1.705   8.094  19.107  0.00  0.00    +0.000 A 
ATOM     10  C   UNL     1       1.609   7.503  20.366  0.00  0.00    +0.000 A 
ATOM     11  C   UNL     1       1.280   8.303  21.463  0.00  0.00    +0.000 A 
ATOM     12  C   UNL     1       0.943   9.655  21.307  0.00  0.00    +0.000 A 
BRANCH   7  14
ATOM     13  C   UNL     1      -0.408  11.678  18.753  0.00  0.00    +0.000 C 
ATOM     14  O   UNL     1       0.518  11.501  19.829  0.00  0.00    +0.000 OA
ENDBRANCH   7  14
BRANCH  12  15
ATOM     15  O   UNL     1       0.622  10.230  22.507  0.00  0.00    +0.000 OA
ATOM     16  C   UNL     1      -0.699  10.091  23.004  0.00  0.00    +0.000 C 
ENDBRANCH  12  15
ENDBRANCH   1  10
BRANCH   3  17
ATOM     17  C   UNL     1       1.213   2.460  20.035  0.00  0.00    +0.000 C 
BRANCH  17  18
ATOM     18  C   UNL     1       1.114   2.303  18.514  0.00  0.00    +0.000 C 
BRANCH  18  19
ATOM     19  C   UNL     1       2.467   2.137  17.805  0.00  0.00    +0.000 C 
BRANCH  19  20
ATOM     20  C   UNL     1       3.022   3.417  17.168  0.00  0.00    +0.000 C 
BRANCH  20  21
ATOM     21  C   UNL     1       4.442   3.727  17.649  0.00  0.00    +0.000 C 
BRANCH  21  22
ATOM     22  C   UNL     1       4.595   5.092  18.333  0.00  0.00    +0.000 C 
ATOM     23  C   UNL     1       4.358   6.247  17.348  0.00  0.00    +0.000 C 
ATOM     24  C   UNL     1       5.489   6.340  16.322  0.00  0.00    +0.000 C 
ATOM     25  S   UNL     1       7.061   6.133  17.202  0.00  0.00    +0.000 S 
ATOM     26  S   UNL     1       6.286   5.387  18.947  0.00  0.00    +0.000 S 
ENDBRANCH  21  22
ENDBRANCH  20  21
ENDBRANCH  19  20
ENDBRANCH  18  19
ENDBRANCH  17  18
ENDBRANCH   3  17
TORSDOF 9
ENDMDL
MODEL 2
REMARK VINA RESULT:      -6.5      6.245      8.115
REMARK  Name = 
REMARK  11 active torsions:
REMARK  status: ('A' for Active; 'I' for Inactive)
REMARK    1  A    between atoms: C_1  and  O_2
REMARK    2  A    between atoms: O_2  and  C_3
REMARK    3  A    between atoms: C_6  and  C_7
REMARK    4  A    between atoms: C_9  and  C_10
REMARK    5  A    between atoms: C_10  and  C_11
REMARK    6  A    between atoms: C_11  and  C_12
REMARK    7  A    between atoms: C_12  and  C_13
REMARK    8  A    between atoms: C_13  and  C_14
REMARK    9  A    between atoms: C_14  and  C_15
REMARK   10  A    between atoms: C_23  and  O_24
REMARK   11  A    between atoms: O_24  and  C_25
REMARK                            x       y       z     vdW  Elec       q    Type
REMARK                         _______ _______ _______ _____ _____    ______ ____
ROOT
ATOM      1  C   UNL     1       8.542   9.073  18.463  0.00  0.00    +0.000 A 
ATOM      2  C   UNL     1       7.633   8.820  17.458  0.00  0.00    +0.000 A 
ATOM      3  C   UNL     1       7.320   7.451  17.564  0.00  0.00    +0.000 A 
ATOM      4  N   UNL     1       8.003   6.863  18.551  0.00  0.00    +0.000 NA
ATOM      5  N   UNL     1       8.728   7.863  19.079  0.00  0.00    +0.000 N 
ATOM      6  H   UNL     1       9.331   7.654  19.867  0.00  0.00    +0.000 HD
ENDROOT
BRANCH   1  10
ATOM      7  C   UNL     1      10.658  12.573  19.650  0.00  0.00    +0.000 A 
ATOM      8  C   UNL     1      10.180  11.664  20.614  0.00  0.00    +0.000 A 
ATOM      9  C   UNL     1       9.443  10.545  20.231  0.00  0.00    +0.000 A 
ATOM     10  C   UNL     1       9.140  10.329  18.887  0.00  0.00    +0.000 A 
ATOM     11  C   UNL     1       9.512  11.295  17.948  0.00  0.00    +0.000 A 
ATOM     12  C   UNL     1      10.269  12.417  18.314  0.00  0.00    +0.000 A 
BRANCH   7  14
ATOM     13  C   UNL     1      10.816  14.807  20.395  0.00  0.00    +0.000 C 
ATOM     14  O   UNL     1      11.483  13.601  20.018  0.00  0.00    +0.000 OA
ENDBRANCH   7  14
BRANCH  12  15
ATOM     15  O   UNL     1      10.546  13.205  17.231  0.00  0.00    +0.000 OA
ATOM     16  C   UNL     1      11.875  13.256  16.739  0.00  0.00    +0.000 C 
ENDBRANCH  12  15
ENDBRANCH   1  10
BRANCH   3  17
ATOM     17  C   UNL     1       6.377   6.682  16.706  0.00  0.00    +0.000 C 
BRANCH  17  18
ATOM     18  C   UNL     1       6.802   5.218  16.554  0.00  0.00    +0.000 C 
BRANCH  18  19
ATOM     19  C   UNL     1       5.711   4.199  16.921  0.00  0.00    +0.000 C 
BRANCH  19  20
ATOM     20  C   UNL     1       4.313   4.798  17.120  0.00  0.00    +0.000 C 
BRANCH  20  21
ATOM     21  C   UNL     1       3.835   4.667  18.569  0.00  0.00    +0.000 C 
BRANCH  21  22
ATOM     22  C   UNL     1       2.402   4.140  18.719  0.00  0.00    +0.000 C 
ATOM     23  C   UNL     1       1.642   4.880  19.830  0.00  0.00    +0.000 C 
ATOM     24  C   UNL     1       2.196   4.523  21.211  0.00  0.00    +0.000 C 
ATOM     25  S   UNL     1       2.469   2.731  21.259  0.00  0.00    +0.000 S 
ATOM     26  S   UNL     1       2.342   2.395  19.241  0.00  0.00    +0.000 S 
ENDBRANCH  21  22
ENDBRANCH  20  21
ENDBRANCH  19  20
ENDBRANCH  18  19
ENDBRANCH  17  18
ENDBRANCH   3  17
TORSDOF 9
ENDMDL
MODEL 3
REMARK VINA RESULT:      -6.5      6.323      8.120
REMARK  Name = 
REMARK  11 active torsions:
REMARK  status: ('A' for Active; 'I' for Inactive)
REMARK    1  A    between atoms: C_1  and  O_2
REMARK    2  A    between atoms: O_2  and  C_3
REMARK    3  A    between atoms: C_6  and  C_7
REMARK    4  A    between atoms: C_9  and  C_10
REMARK    5  A    between atoms: C_10  and  C_11
REMARK    6  A    between atoms: C_11  and  C_12
REMARK    7  A    between atoms: C_12  and  C_13
REMARK    8  A    between atoms: C_13  and  C_14
REMARK    9  A    between atoms: C_14  and  C_15
REMARK   10  A    between atoms: C_23  and  O_24
REMARK   11  A    between atoms: O_24  and  C_25
REMARK                            x       y       z     vdW  Elec       q    Type
REMARK                         _______ _______ _______ _____ _____    ______ ____
ROOT
ATOM      1  C   UNL     1       8.710   9.410  18.571  0.00  0.00    +0.000 A 
ATOM      2  C   UNL     1       7.862   9.098  17.529  0.00  0.00    +0.000 A 
ATOM      3  C   UNL     1       7.595   7.721  17.655  0.00  0.00    +0.000 A 
ATOM      4  N   UNL     1       8.250   7.183  18.690  0.00  0.00    +0.000 NA
ATOM      5  N   UNL     1       8.909   8.223  19.227  0.00  0.00    +0.000 N 
ATOM      6  H   UNL     1       9.479   8.057  20.048  0.00  0.00    +0.000 HD
ENDROOT
BRANCH   1  10
ATOM      7  C   UNL     1      10.632  13.025  19.742  0.00  0.00    +0.000 A 
ATOM      8  C   UNL     1      10.218  12.088  20.709  0.00  0.00    +0.000 A 
ATOM      9  C   UNL     1       9.542  10.929  20.332  0.00  0.00    +0.000 A 
ATOM     10  C   UNL     1       9.239  10.698  18.991  0.00  0.00    +0.000 A 
ATOM     11  C   UNL     1       9.543  11.685  18.050  0.00  0.00    +0.000 A 
ATOM     12  C   UNL     1      10.238  12.848  18.411  0.00  0.00    +0.000 A 
BRANCH   7  14
ATOM     13  C   UNL     1      10.766  15.025  20.989  0.00  0.00    +0.000 C 
ATOM     14  O   UNL     1      11.399  14.098  20.103  0.00  0.00    +0.000 OA
ENDBRANCH   7  14
BRANCH  12  15
ATOM     15  O   UNL     1      10.457  13.653  17.326  0.00  0.00    +0.000 OA
ATOM     16  C   UNL     1      11.598  13.421  16.516  0.00  0.00    +0.000 C 
ENDBRANCH  12  15
ENDBRANCH   1  10
BRANCH   3  17
ATOM     17  C   UNL     1       6.726   6.896  16.771  0.00  0.00    +0.000 C 
BRANCH  17  18
ATOM     18  C   UNL     1       7.129   5.417  16.788  0.00  0.00    +0.000 C 
BRANCH  18  19
ATOM     19  C   UNL     1       6.839   4.666  15.479  0.00  0.00    +0.000 C 
BRANCH  19  20
ATOM     20  C   UNL     1       5.741   3.600  15.577  0.00  0.00    +0.000 C 
BRANCH  20  21
ATOM     21  C   UNL     1       4.512   4.113  16.333  0.00  0.00    +0.000 C 
BRANCH  21  22
ATOM     22  C   UNL     1       4.030   3.188  17.459  0.00  0.00    +0.000 C 
ATOM     23  C   UNL     1       2.497   3.100  17.499  0.00  0.00    +0.000 C 
ATOM     24  C   UNL     1       1.879   4.420  17.962  0.00  0.00    +0.000 C 
ATOM     25  S   UNL     1       2.845   5.027  19.372  0.00  0.00    +0.000 S 
ATOM     26  S   UNL     1       4.471   3.806  19.116  0.00  0.00    +0.000 S 
ENDBRANCH  21  22
ENDBRANCH  20  21
ENDBRANCH  19  20
ENDBRANCH  18  19
ENDBRANCH  17  18
ENDBRANCH   3  17
TORSDOF 9
ENDMDL
MODEL 4
REMARK VINA RESULT:      -6.5      5.873      7.493
REMARK  Name = 
REMARK  11 active torsions:
REMARK  status: ('A' for Active; 'I' for Inactive)
REMARK    1  A    between atoms: C_1  and  O_2
REMARK    2  A    between atoms: O_2  and  C_3
REMARK    3  A    between atoms: C_6  and  C_7
REMARK    4  A    between atoms: C_9  and  C_10
REMARK    5  A    between atoms: C_10  and  C_11
REMARK    6  A    between atoms: C_11  and  C_12
REMARK    7  A    between atoms: C_12  and  C_13
REMARK    8  A    between atoms: C_13  and  C_14
REMARK    9  A    between atoms: C_14  and  C_15
REMARK   10  A    between atoms: C_23  and  O_24
REMARK   11  A    between atoms: O_24  and  C_25
REMARK                            x       y       z     vdW  Elec       q    Type
REMARK                         _______ _______ _______ _____ _____    ______ ____
ROOT
ATOM      1  C   UNL     1       8.627   9.042  18.470  0.00  0.00    +0.000 A 
ATOM      2  C   UNL     1       7.724   8.808  17.455  0.00  0.00    +0.000 A 
ATOM      3  C   UNL     1       7.352   7.456  17.580  0.00  0.00    +0.000 A 
ATOM      4  N   UNL     1       7.994   6.858  18.589  0.00  0.00    +0.000 NA
ATOM      5  N   UNL     1       8.752   7.837  19.111  0.00  0.00    +0.000 N 
ATOM      6  H   UNL     1       9.333   7.618  19.912  0.00  0.00    +0.000 HD
ENDROOT
BRANCH   1  10
ATOM      7  C   UNL     1      10.160  12.854  19.589  0.00  0.00    +0.000 A 
ATOM      8  C   UNL     1      10.380  12.346  18.293  0.00  0.00    +0.000 A 
ATOM      9  C   UNL     1       9.924  11.077  17.942  0.00  0.00    +0.000 A 
ATOM     10  C   UNL     1       9.272  10.279  18.880  0.00  0.00    +0.000 A 
ATOM     11  C   UNL     1       9.163  10.738  20.196  0.00  0.00    +0.000 A 
ATOM     12  C   UNL     1       9.600  12.019  20.562  0.00  0.00    +0.000 A 
BRANCH   7  14
ATOM     13  C   UNL     1       9.486  15.116  19.630  0.00  0.00    +0.000 C 
ATOM     14  O   UNL     1      10.501  14.144  19.892  0.00  0.00    +0.000 OA
ENDBRANCH   7  14
BRANCH  12  15
ATOM     15  O   UNL     1       9.362  12.266  21.887  0.00  0.00    +0.000 OA
ATOM     16  C   UNL     1       8.282  11.606  22.526  0.00  0.00    +0.000 C 
ENDBRANCH  12  15
ENDBRANCH   1  10
BRANCH   3  17
ATOM     17  C   UNL     1       6.391   6.711  16.721  0.00  0.00    +0.000 C 
BRANCH  17  18
ATOM     18  C   UNL     1       4.944   6.882  17.195  0.00  0.00    +0.000 C 
BRANCH  18  19
ATOM     19  C   UNL     1       4.408   5.709  18.033  0.00  0.00    +0.000 C 
BRANCH  19  20
ATOM     20  C   UNL     1       3.730   4.598  17.223  0.00  0.00    +0.000 C 
BRANCH  20  21
ATOM     21  C   UNL     1       2.341   4.257  17.770  0.00  0.00    +0.000 C 
BRANCH  21  22
ATOM     22  C   UNL     1       2.192   2.813  18.266  0.00  0.00    +0.000 C 
ATOM     23  C   UNL     1       0.844   2.595  18.971  0.00  0.00    +0.000 C 
ATOM     24  C   UNL     1       0.793   3.337  20.308  0.00  0.00    +0.000 C 
ATOM     25  S   UNL     1       2.376   3.076  21.154  0.00  0.00    +0.000 S 
ATOM     26  S   UNL     1       3.421   2.373  19.537  0.00  0.00    +0.000 S 
ENDBRANCH  21  22
ENDBRANCH  20  21
ENDBRANCH  19  20
ENDBRANCH  18  19
ENDBRANCH  17  18
ENDBRANCH   3  17
TORSDOF 9
ENDMDL
MODEL 5
REMARK VINA RESULT:      -6.5      6.010      7.521
REMARK  Name = 
REMARK  11 active torsions:
REMARK  status: ('A' for Active; 'I' for Inactive)
REMARK    1  A    between atoms: C_1  and  O_2
REMARK    2  A    between atoms: O_2  and  C_3
REMARK    3  A    between atoms: C_6  and  C_7
REMARK    4  A    between atoms: C_9  and  C_10
REMARK    5  A    between atoms: C_10  and  C_11
REMARK    6  A    between atoms: C_11  and  C_12
REMARK    7  A    between atoms: C_12  and  C_13
REMARK    8  A    between atoms: C_13  and  C_14
REMARK    9  A    between atoms: C_14  and  C_15
REMARK   10  A    between atoms: C_23  and  O_24
REMARK   11  A    between atoms: O_24  and  C_25
REMARK                            x       y       z     vdW  Elec       q    Type
REMARK                         _______ _______ _______ _____ _____    ______ ____
ROOT
ATOM      1  C   UNL     1       8.486   9.053  18.375  0.00  0.00    +0.000 A 
ATOM      2  C   UNL     1       8.560   7.762  18.853  0.00  0.00    +0.000 A 
ATOM      3  C   UNL     1       7.718   7.000  18.020  0.00  0.00    +0.000 A 
ATOM      4  N   UNL     1       7.125   7.756  17.091  0.00  0.00    +0.000 NA
ATOM      5  N   UNL     1       7.609   8.988  17.324  0.00  0.00    +0.000 N 
ATOM      6  H   UNL     1       7.302   9.745  16.724  0.00  0.00    +0.000 HD
ENDROOT
BRANCH   1  10
ATOM      7  C   UNL     1      10.264  12.746  19.531  0.00  0.00    +0.000 A 
ATOM      8  C   UNL     1      10.359  12.291  18.201  0.00  0.00    +0.000 A 
ATOM      9  C   UNL     1       9.823  11.059  17.833  0.00  0.00    +0.000 A 
ATOM     10  C   UNL     1       9.213  10.244  18.786  0.00  0.00    +0.000 A 
ATOM     11  C   UNL     1       9.228  10.645  20.124  0.00  0.00    +0.000 A 
ATOM     12  C   UNL     1       9.747  11.889  20.509  0.00  0.00    +0.000 A 
BRANCH   7  14
ATOM     13  C   UNL     1       9.725  15.043  19.631  0.00  0.00    +0.000 C 
ATOM     14  O   UNL     1      10.682  14.006  19.862  0.00  0.00    +0.000 OA
ENDBRANCH   7  14
BRANCH  12  15
ATOM     15  O   UNL     1       9.625  12.083  21.858  0.00  0.00    +0.000 OA
ATOM     16  C   UNL     1       8.424  12.640  22.367  0.00  0.00    +0.000 C 
ENDBRANCH  12  15
ENDBRANCH   1  10
BRANCH   3  17
ATOM     17  C   UNL     1       7.453   5.538  18.118  0.00  0.00    +0.000 C 
BRANCH  17  18
ATOM     18  C   UNL     1       7.099   4.926  16.758  0.00  0.00    +0.000 C 
BRANCH  18  19
ATOM     19  C   UNL     1       5.744   4.201  16.722  0.00  0.00    +0.000 C 
BRANCH  19  20
ATOM     20  C   UNL     1       4.520   5.120  16.821  0.00  0.00    +0.000 C 
BRANCH  20  21
ATOM     21  C   UNL     1       3.450   4.549  17.756  0.00  0.00    +0.000 C 
BRANCH  21  22
ATOM     22  C   UNL     1       3.623   3.060  18.082  0.00  0.00    +0.000 C 
ATOM     23  C   UNL     1       2.368   2.252  17.718  0.00  0.00    +0.000 C 
ATOM     24  C   UNL     1       1.203   2.590  18.650  0.00  0.00    +0.000 C 
ATOM     25  S   UNL     1       1.844   2.660  20.345  0.00  0.00    +0.000 S 
ATOM     26  S   UNL     1       3.835   2.749  19.866  0.00  0.00    +0.000 S 
ENDBRANCH  21  22
ENDBRANCH  20  21
ENDBRANCH  19  20
ENDBRANCH  18  19
ENDBRANCH  17  18
ENDBRANCH   3  17
TORSDOF 9
ENDMDL
MODEL 6
REMARK VINA RESULT:      -6.5      6.286      8.178
REMARK  Name = 
REMARK  11 active torsions:
REMARK  status: ('A' for Active; 'I' for Inactive)
REMARK    1  A    between atoms: C_1  and  O_2
REMARK    2  A    between atoms: O_2  and  C_3
REMARK    3  A    between atoms: C_6  and  C_7
REMARK    4  A    between atoms: C_9  and  C_10
REMARK    5  A    between atoms: C_10  and  C_11
REMARK    6  A    between atoms: C_11  and  C_12
REMARK    7  A    between atoms: C_12  and  C_13
REMARK    8  A    between atoms: C_13  and  C_14
REMARK    9  A    between atoms: C_14  and  C_15
REMARK   10  A    between atoms: C_23  and  O_24
REMARK   11  A    between atoms: O_24  and  C_25
REMARK                            x       y       z     vdW  Elec       q    Type
REMARK                         _______ _______ _______ _____ _____    ______ ____
ROOT
ATOM      1  C   UNL     1       8.582   9.056  18.447  0.00  0.00    +0.000 A 
ATOM      2  C   UNL     1       7.614   8.841  17.489  0.00  0.00    +0.000 A 
ATOM      3  C   UNL     1       7.250   7.486  17.614  0.00  0.00    +0.000 A 
ATOM      4  N   UNL     1       7.956   6.871  18.568  0.00  0.00    +0.000 NA
ATOM      5  N   UNL     1       8.748   7.840  19.056  0.00  0.00    +0.000 N 
ATOM      6  H   UNL     1       9.380   7.607  19.814  0.00  0.00    +0.000 HD
ENDROOT
BRANCH   1  10
ATOM      7  C   UNL     1      10.882  12.433  19.648  0.00  0.00    +0.000 A 
ATOM      8  C   UNL     1      10.070  11.753  20.577  0.00  0.00    +0.000 A 
ATOM      9  C   UNL     1       9.277  10.680  20.174  0.00  0.00    +0.000 A 
ATOM     10  C   UNL     1       9.253  10.286  18.837  0.00  0.00    +0.000 A 
ATOM     11  C   UNL     1       9.965  11.039  17.900  0.00  0.00    +0.000 A 
ATOM     12  C   UNL     1      10.782  12.109  18.290  0.00  0.00    +0.000 A 
BRANCH   7  14
ATOM     13  C   UNL     1      11.131  14.591  20.572  0.00  0.00    +0.000 C 
ATOM     14  O   UNL     1      11.749  13.404  20.069  0.00  0.00    +0.000 OA
ENDBRANCH   7  14
BRANCH  12  15
ATOM     15  O   UNL     1      11.409  12.675  17.214  0.00  0.00    +0.000 OA
ATOM     16  C   UNL     1      11.133  14.029  16.891  0.00  0.00    +0.000 C 
ENDBRANCH  12  15
ENDBRANCH   1  10
BRANCH   3  17
ATOM     17  C   UNL     1       6.234   6.757  16.806  0.00  0.00    +0.000 C 
BRANCH  17  18
ATOM     18  C   UNL     1       6.556   5.263  16.691  0.00  0.00    +0.000 C 
BRANCH  18  19
ATOM     19  C   UNL     1       5.347   4.379  16.346  0.00  0.00    +0.000 C 
BRANCH  19  20
ATOM     20  C   UNL     1       4.124   4.579  17.250  0.00  0.00    +0.000 C 
BRANCH  20  21
ATOM     21  C   UNL     1       3.205   3.355  17.250  0.00  0.00    +0.000 C 
BRANCH  21  22
ATOM     22  C   UNL     1       3.190   2.574  18.571  0.00  0.00    +0.000 C 
ATOM     23  C   UNL     1       1.844   1.869  18.794  0.00  0.00    +0.000 C 
ATOM     24  C   UNL     1       0.730   2.880  19.075  0.00  0.00    +0.000 C 
ATOM     25  S   UNL     1       1.375   4.115  20.236  0.00  0.00    +0.000 S 
ATOM     26  S   UNL     1       3.361   3.653  20.030  0.00  0.00    +0.000 S 
ENDBRANCH  21  22
ENDBRANCH  20  21
ENDBRANCH  19  20
ENDBRANCH  18  19
ENDBRANCH  17  18
ENDBRANCH   3  17
TORSDOF 9
ENDMDL
MODEL 7
REMARK VINA RESULT:      -6.4      5.904      7.531
REMARK  Name = 
REMARK  11 active torsions:
REMARK  status: ('A' for Active; 'I' for Inactive)
REMARK    1  A    between atoms: C_1  and  O_2
REMARK    2  A    between atoms: O_2  and  C_3
REMARK    3  A    between atoms: C_6  and  C_7
REMARK    4  A    between atoms: C_9  and  C_10
REMARK    5  A    between atoms: C_10  and  C_11
REMARK    6  A    between atoms: C_11  and  C_12
REMARK    7  A    between atoms: C_12  and  C_13
REMARK    8  A    between atoms: C_13  and  C_14
REMARK    9  A    between atoms: C_14  and  C_15
REMARK   10  A    between atoms: C_23  and  O_24
REMARK   11  A    between atoms: O_24  and  C_25
REMARK                            x       y       z     vdW  Elec       q    Type
REMARK                         _______ _______ _______ _____ _____    ______ ____
ROOT
ATOM      1  C   UNL     1       8.474   8.835  18.424  0.00  0.00    +0.000 A 
ATOM      2  C   UNL     1       7.515   8.574  17.469  0.00  0.00    +0.000 A 
ATOM      3  C   UNL     1       7.167   7.220  17.639  0.00  0.00    +0.000 A 
ATOM      4  N   UNL     1       7.876   6.647  18.618  0.00  0.00    +0.000 NA
ATOM      5  N   UNL     1       8.652   7.643  19.076  0.00  0.00    +0.000 N 
ATOM      6  H   UNL     1       9.282   7.444  19.845  0.00  0.00    +0.000 HD
ENDROOT
BRANCH   1  10
ATOM      7  C   UNL     1      10.015  12.674  19.431  0.00  0.00    +0.000 A 
ATOM      8  C   UNL     1      10.048  12.217  18.099  0.00  0.00    +0.000 A 
ATOM      9  C   UNL     1       9.591  10.941  17.776  0.00  0.00    +0.000 A 
ATOM     10  C   UNL     1       9.127  10.086  18.775  0.00  0.00    +0.000 A 
ATOM     11  C   UNL     1       9.209  10.499  20.107  0.00  0.00    +0.000 A 
ATOM     12  C   UNL     1       9.649  11.786  20.448  0.00  0.00    +0.000 A 
BRANCH   7  14
ATOM     13  C   UNL     1      11.751  14.251  19.711  0.00  0.00    +0.000 C 
ATOM     14  O   UNL     1      10.349  13.968  19.725  0.00  0.00    +0.000 OA
ENDBRANCH   7  14
BRANCH  12  15
ATOM     15  O   UNL     1       9.614  11.981  21.802  0.00  0.00    +0.000 OA
ATOM     16  C   UNL     1       8.506  12.661  22.370  0.00  0.00    +0.000 C 
ENDBRANCH  12  15
ENDBRANCH   1  10
BRANCH   3  17
ATOM     17  C   UNL     1       6.165   6.449  16.851  0.00  0.00    +0.000 C 
BRANCH  17  18
ATOM     18  C   UNL     1       5.071   5.851  17.742  0.00  0.00    +0.000 C 
BRANCH  18  19
ATOM     19  C   UNL     1       3.864   6.775  17.971  0.00  0.00    +0.000 C 
BRANCH  19  20
ATOM     20  C   UNL     1       2.501   6.072  17.945  0.00  0.00    +0.000 C 
BRANCH  20  21
ATOM     21  C   UNL     1       2.636   4.557  18.121  0.00  0.00    +0.000 C 
BRANCH  21  22
ATOM     22  C   UNL     1       1.456   3.897  18.848  0.00  0.00    +0.000 C 
ATOM     23  C   UNL     1       1.138   4.609  20.171  0.00  0.00    +0.000 C 
ATOM     24  C   UNL     1       2.244   4.378  21.203  0.00  0.00    +0.000 C 
ATOM     25  S   UNL     1       2.711   2.627  21.141  0.00  0.00    +0.000 S 
ATOM     26  S   UNL     1       1.811   2.182  19.354  0.00  0.00    +0.000 S 
ENDBRANCH  21  22
ENDBRANCH  20  21
ENDBRANCH  19  20
ENDBRANCH  18  19
ENDBRANCH  17  18
ENDBRANCH   3  17
TORSDOF 9
ENDMDL
MODEL 8
REMARK VINA RESULT:      -6.4      6.397      8.274
REMARK  Name = 
REMARK  11 active torsions:
REMARK  status: ('A' for Active; 'I' for Inactive)
REMARK    1  A    between atoms: C_1  and  O_2
REMARK    2  A    between atoms: O_2  and  C_3
REMARK    3  A    between atoms: C_6  and  C_7
REMARK    4  A    between atoms: C_9  and  C_10
REMARK    5  A    between atoms: C_10  and  C_11
REMARK    6  A    between atoms: C_11  and  C_12
REMARK    7  A    between atoms: C_12  and  C_13
REMARK    8  A    between atoms: C_13  and  C_14
REMARK    9  A    between atoms: C_14  and  C_15
REMARK   10  A    between atoms: C_23  and  O_24
REMARK   11  A    between atoms: O_24  and  C_25
REMARK                            x       y       z     vdW  Elec       q    Type
REMARK                         _______ _______ _______ _____ _____    ______ ____
ROOT
ATOM      1  C   UNL     1       8.498   9.285  18.420  0.00  0.00    +0.000 A 
ATOM      2  C   UNL     1       8.593   8.004  18.920  0.00  0.00    +0.000 A 
ATOM      3  C   UNL     1       7.835   7.198  18.049  0.00  0.00    +0.000 A 
ATOM      4  N   UNL     1       7.272   7.918  17.074  0.00  0.00    +0.000 NA
ATOM      5  N   UNL     1       7.691   9.171  17.318  0.00  0.00    +0.000 N 
ATOM      6  H   UNL     1       7.392   9.907  16.688  0.00  0.00    +0.000 HD
ENDROOT
BRANCH   1  10
ATOM      7  C   UNL     1      10.764  12.684  19.622  0.00  0.00    +0.000 A 
ATOM      8  C   UNL     1      10.301  11.757  20.578  0.00  0.00    +0.000 A 
ATOM      9  C   UNL     1       9.515  10.673  20.192  0.00  0.00    +0.000 A 
ATOM     10  C   UNL     1       9.150  10.509  18.856  0.00  0.00    +0.000 A 
ATOM     11  C   UNL     1       9.510  11.495  17.933  0.00  0.00    +0.000 A 
ATOM     12  C   UNL     1      10.314  12.582  18.301  0.00  0.00    +0.000 A 
BRANCH   7  14
ATOM     13  C   UNL     1      11.018  14.896  20.407  0.00  0.00    +0.000 C 
ATOM     14  O   UNL     1      11.633  13.676  19.986  0.00  0.00    +0.000 OA
ENDBRANCH   7  14
BRANCH  12  15
ATOM     15  O   UNL     1      10.568  13.398  17.232  0.00  0.00    +0.000 OA
ATOM     16  C   UNL     1      11.858  13.379  16.644  0.00  0.00    +0.000 C 
ENDBRANCH  12  15
ENDBRANCH   1  10
BRANCH   3  17
ATOM     17  C   UNL     1       7.623   5.727  18.152  0.00  0.00    +0.000 C 
BRANCH  17  18
ATOM     18  C   UNL     1       6.437   5.380  19.059  0.00  0.00    +0.000 C 
BRANCH  18  19
ATOM     19  C   UNL     1       5.243   4.748  18.326  0.00  0.00    +0.000 C 
BRANCH  19  20
ATOM     20  C   UNL     1       3.867   5.158  18.865  0.00  0.00    +0.000 C 
BRANCH  20  21
ATOM     21  C   UNL     1       2.734   4.376  18.195  0.00  0.00    +0.000 C 
BRANCH  21  22
ATOM     22  C   UNL     1       2.627   2.911  18.637  0.00  0.00    +0.000 C 
ATOM     23  C   UNL     1       1.171   2.512  18.923  0.00  0.00    +0.000 C 
ATOM     24  C   UNL     1       0.645   3.204  20.182  0.00  0.00    +0.000 C 
ATOM     25  S   UNL     1       1.936   3.111  21.453  0.00  0.00    +0.000 S 
ATOM     26  S   UNL     1       3.482   2.586  20.214  0.00  0.00    +0.000 S 
ENDBRANCH  21  22
ENDBRANCH  20  21
ENDBRANCH  19  20
ENDBRANCH  18  19
ENDBRANCH  17  18
ENDBRANCH   3  17
TORSDOF 9
ENDMDL
MODEL 9
REMARK VINA RESULT:      -6.3      4.068      7.130
REMARK  Name = 
REMARK  11 active torsions:
REMARK  status: ('A' for Active; 'I' for Inactive)
REMARK    1  A    between atoms: C_1  and  O_2
REMARK    2  A    between atoms: O_2  and  C_3
REMARK    3  A    between atoms: C_6  and  C_7
REMARK    4  A    between atoms: C_9  and  C_10
REMARK    5  A    between atoms: C_10  and  C_11
REMARK    6  A    between atoms: C_11  and  C_12
REMARK    7  A    between atoms: C_12  and  C_13
REMARK    8  A    between atoms: C_13  and  C_14
REMARK    9  A    between atoms: C_14  and  C_15
REMARK   10  A    between atoms: C_23  and  O_24
REMARK   11  A    between atoms: O_24  and  C_25
REMARK                            x       y       z     vdW  Elec       q    Type
REMARK                         _______ _______ _______ _____ _____    ______ ____
ROOT
ATOM      1  C   UNL     1       4.202   3.294  17.641  0.00  0.00    +0.000 A 
ATOM      2  C   UNL     1       2.885   3.691  17.723  0.00  0.00    +0.000 A 
ATOM      3  C   UNL     1       2.340   2.981  18.810  0.00  0.00    +0.000 A 
ATOM      4  N   UNL     1       3.240   2.164  19.367  0.00  0.00    +0.000 NA
ATOM      5  N   UNL     1       4.354   2.376  18.647  0.00  0.00    +0.000 N 
ATOM      6  H   UNL     1       5.192   1.863  18.898  0.00  0.00    +0.000 HD
ENDROOT
BRANCH   1  10
ATOM      7  C   UNL     1       7.068   4.973  14.976  0.00  0.00    +0.000 A 
ATOM      8  C   UNL     1       6.245   3.907  14.563  0.00  0.00    +0.000 A 
ATOM      9  C   UNL     1       5.343   3.322  15.449  0.00  0.00    +0.000 A 
ATOM     10  C   UNL     1       5.268   3.764  16.769  0.00  0.00    +0.000 A 
ATOM     11  C   UNL     1       6.169   4.738  17.207  0.00  0.00    +0.000 A 
ATOM     12  C   UNL     1       7.071   5.349  16.323  0.00  0.00    +0.000 A 
BRANCH   7  14
ATOM     13  C   UNL     1       7.829   5.092  12.744  0.00  0.00    +0.000 C 
ATOM     14  O   UNL     1       7.863   5.622  14.071  0.00  0.00    +0.000 OA
ENDBRANCH   7  14
BRANCH  12  15
ATOM     15  O   UNL     1       7.828   6.294  16.960  0.00  0.00    +0.000 OA
ATOM     16  C   UNL     1       7.200   7.474  17.435  0.00  0.00    +0.000 C 
ENDBRANCH  12  15
ENDBRANCH   1  10
BRANCH   3  17
ATOM     17  C   UNL     1       0.942   3.059  19.316  0.00  0.00    +0.000 C 
BRANCH  17  18
ATOM     18  C   UNL     1       0.794   4.093  20.437  0.00  0.00    +0.000 C 
BRANCH  18  19
ATOM     19  C   UNL     1       2.060   4.922  20.706  0.00  0.00    +0.000 C 
BRANCH  19  20
ATOM     20  C   UNL     1       2.048   6.331  20.102  0.00  0.00    +0.000 C 
BRANCH  20  21
ATOM     21  C   UNL     1       1.217   7.306  20.942  0.00  0.00    +0.000 C 
BRANCH  21  22
ATOM     22  C   UNL     1       1.679   8.767  20.857  0.00  0.00    +0.000 C 
ATOM     23  C   UNL     1       0.972   9.643  21.902  0.00  0.00    +0.000 C 
ATOM     24  C   UNL     1      -0.510   9.818  21.567  0.00  0.00    +0.000 C 
ATOM     25  S   UNL     1      -0.648  10.142  19.788  0.00  0.00    +0.000 S 
ATOM     26  S   UNL     1       1.246   9.553  19.270  0.00  0.00    +0.000 S 
ENDBRANCH  21  22
ENDBRANCH  20  21
ENDBRANCH  19  20
ENDBRANCH  18  19
ENDBRANCH  17  18
ENDBRANCH   3  17
TORSDOF 9
ENDMDL
