MODEL 1
REMARK VINA RESULT:      -8.7      0.000      0.000
REMARK  Name = 
REMARK  10 active torsions:
REMARK  status: ('A' for Active; 'I' for Inactive)
REMARK    1  A    between atoms: C_1  and  O_2
REMARK    2  A    between atoms: O_2  and  C_3
REMARK    3  A    between atoms: C_6  and  N_7
REMARK    4  A    between atoms: C_8  and  C_10
REMARK    5  A    between atoms: C_10  and  C_11
REMARK    6  A    between atoms: C_14  and  C_15
REMARK    7  A    between atoms: C_19  and  N_20
REMARK    8  A    between atoms: C_21  and  C_22
REMARK    9  A    between atoms: C_31  and  O_32
REMARK   10  A    between atoms: O_32  and  C_33
REMARK                            x       y       z     vdW  Elec       q    Type
REMARK                         _______ _______ _______ _____ _____    ______ ____
ROOT
ATOM      1  C   UNL     1       6.323   4.990  18.773  0.00  0.00    +0.000 C 
ATOM      2  C   UNL     1       7.446   5.423  19.727  0.00  0.00    +0.000 C 
ATOM      3  C   UNL     1       5.217   6.063  18.640  0.00  0.00    +0.000 C 
ATOM      4  C   UNL     1       4.083   5.405  19.336  0.00  0.00    +0.000 A 
ATOM      5  C   UNL     1       2.782   5.829  19.633  0.00  0.00    +0.000 A 
ATOM      6  C   UNL     1       2.007   4.895  20.344  0.00  0.00    +0.000 A 
ATOM      7  C   UNL     1       2.520   3.642  20.680  0.00  0.00    +0.000 A 
ATOM      8  N   UNL     1       3.752   3.223  20.351  0.00  0.00    +0.000 NA
ATOM      9  C   UNL     1       4.481   4.127  19.691  0.00  0.00    +0.000 A 
ATOM     10  O   UNL     1       5.755   3.777  19.298  0.00  0.00    +0.000 OA
ENDROOT
BRANCH   5  11
ATOM     11  C   UNL     1       2.199   7.158  19.286  0.00  0.00    +0.000 A 
ATOM     12  C   UNL     1       2.385   7.750  18.029  0.00  0.00    +0.000 A 
ATOM     13  C   UNL     1       1.933   9.041  17.754  0.00  0.00    +0.000 A 
ATOM     14  C   UNL     1       1.320   9.801  18.746  0.00  0.00    +0.000 A 
ATOM     15  C   UNL     1       1.116   9.268  20.014  0.00  0.00    +0.000 A 
ATOM     16  C   UNL     1       1.511   7.937  20.254  0.00  0.00    +0.000 A 
BRANCH  15  17
ATOM     17  N   UNL     1       0.579  10.014  21.094  0.00  0.00    +0.000 N 
ATOM     18  C   UNL     1      -0.342   9.568  22.028  0.00  0.00    +0.000 C 
ATOM     19  C   UNL     1      -0.796  10.640  22.987  0.00  0.00    +0.000 C 
ATOM     20  O   UNL     1      -0.790   8.430  22.134  0.00  0.00    +0.000 OA
ATOM     21  H   UNL     1       0.846  10.990  21.140  0.00  0.00    +0.000 HD
ENDBRANCH  15  17
ENDBRANCH   5  11
BRANCH   1  23
ATOM     22  N   UNL     1       6.081   4.884  16.331  0.00  0.00    +0.000 N 
ATOM     23  C   UNL     1       6.960   4.742  17.394  0.00  0.00    +0.000 C 
ATOM     24  O   UNL     1       8.137   4.395  17.313  0.00  0.00    +0.000 OA
ATOM     25  H   UNL     1       5.176   5.293  16.554  0.00  0.00    +0.000 HD
BRANCH  22  29
ATOM     26  C   UNL     1       6.903   4.018  12.264  0.00  0.00    +0.000 A 
ATOM     27  C   UNL     1       7.753   4.857  12.994  0.00  0.00    +0.000 A 
ATOM     28  C   UNL     1       7.499   5.146  14.336  0.00  0.00    +0.000 A 
ATOM     29  C   UNL     1       6.368   4.645  14.971  0.00  0.00    +0.000 A 
ATOM     30  C   UNL     1       5.483   3.859  14.225  0.00  0.00    +0.000 A 
ATOM     31  C   UNL     1       5.727   3.553  12.871  0.00  0.00    +0.000 A 
BRANCH  26  33
ATOM     32  C   UNL     1       7.614   2.326  10.773  0.00  0.00    +0.000 C 
ATOM     33  O   UNL     1       7.197   3.677  10.972  0.00  0.00    +0.000 OA
ENDBRANCH  26  33
BRANCH  31  34
ATOM     34  O   UNL     1       4.725   2.796  12.321  0.00  0.00    +0.000 OA
ATOM     35  C   UNL     1       3.977   3.324  11.236  0.00  0.00    +0.000 C 
ENDBRANCH  31  34
ENDBRANCH  22  29
ENDBRANCH   1  23
TORSDOF 6
ENDMDL
MODEL 2
REMARK VINA RESULT:      -8.4      4.320      7.983
REMARK  Name = 
REMARK  10 active torsions:
REMARK  status: ('A' for Active; 'I' for Inactive)
REMARK    1  A    between atoms: C_1  and  O_2
REMARK    2  A    between atoms: O_2  and  C_3
REMARK    3  A    between atoms: C_6  and  N_7
REMARK    4  A    between atoms: C_8  and  C_10
REMARK    5  A    between atoms: C_10  and  C_11
REMARK    6  A    between atoms: C_14  and  C_15
REMARK    7  A    between atoms: C_19  and  N_20
REMARK    8  A    between atoms: C_21  and  C_22
REMARK    9  A    between atoms: C_31  and  O_32
REMARK   10  A    between atoms: O_32  and  C_33
REMARK                            x       y       z     vdW  Elec       q    Type
REMARK                         _______ _______ _______ _____ _____    ______ ____
ROOT
ATOM      1  C   UNL     1       1.188  11.008  19.072  0.00  0.00    +0.000 C 
ATOM      2  C   UNL     1       2.114  12.094  18.503  0.00  0.00    +0.000 C 
ATOM      3  C   UNL     1      -0.290  11.229  18.676  0.00  0.00    +0.000 C 
ATOM      4  C   UNL     1      -0.892  11.602  19.980  0.00  0.00    +0.000 A 
ATOM      5  C   UNL     1      -2.188  11.984  20.348  0.00  0.00    +0.000 A 
ATOM      6  C   UNL     1      -2.347  12.286  21.714  0.00  0.00    +0.000 A 
ATOM      7  C   UNL     1      -1.280  12.169  22.605  0.00  0.00    +0.000 A 
ATOM      8  N   UNL     1      -0.052  11.756  22.254  0.00  0.00    +0.000 NA
ATOM      9  C   UNL     1       0.087  11.490  20.952  0.00  0.00    +0.000 A 
ATOM     10  O   UNL     1       1.312  11.044  20.505  0.00  0.00    +0.000 OA
ENDROOT
BRANCH   5  11
ATOM     11  C   UNL     1      -3.353  12.115  19.425  0.00  0.00    +0.000 A 
ATOM     12  C   UNL     1      -4.640  12.423  19.887  0.00  0.00    +0.000 A 
ATOM     13  C   UNL     1      -5.742  12.430  19.031  0.00  0.00    +0.000 A 
ATOM     14  C   UNL     1      -5.598  12.080  17.692  0.00  0.00    +0.000 A 
ATOM     15  C   UNL     1      -4.347  11.756  17.181  0.00  0.00    +0.000 A 
ATOM     16  C   UNL     1      -3.232  11.827  18.040  0.00  0.00    +0.000 A 
BRANCH  15  17
ATOM     17  N   UNL     1      -4.142  11.307  15.851  0.00  0.00    +0.000 N 
ATOM     18  C   UNL     1      -3.383  10.217  15.456  0.00  0.00    +0.000 C 
ATOM     19  C   UNL     1      -3.277  10.068  13.959  0.00  0.00    +0.000 C 
ATOM     20  O   UNL     1      -2.826   9.404  16.187  0.00  0.00    +0.000 OA
ATOM     21  H   UNL     1      -4.535  11.885  15.119  0.00  0.00    +0.000 HD
ENDBRANCH  15  17
ENDBRANCH   5  11
BRANCH   1  23
ATOM     22  N   UNL     1       1.772   8.656  19.473  0.00  0.00    +0.000 N 
ATOM     23  C   UNL     1       1.669   9.656  18.516  0.00  0.00    +0.000 C 
ATOM     24  O   UNL     1       1.973   9.551  17.330  0.00  0.00    +0.000 OA
ATOM     25  H   UNL     1       1.368   8.868  20.383  0.00  0.00    +0.000 HD
BRANCH  22  29
ATOM     26  C   UNL     1       3.274   4.722  18.993  0.00  0.00    +0.000 A 
ATOM     27  C   UNL     1       3.414   5.662  17.965  0.00  0.00    +0.000 A 
ATOM     28  C   UNL     1       2.930   6.964  18.111  0.00  0.00    +0.000 A 
ATOM     29  C   UNL     1       2.255   7.347  19.264  0.00  0.00    +0.000 A 
ATOM     30  C   UNL     1       2.058   6.391  20.266  0.00  0.00    +0.000 A 
ATOM     31  C   UNL     1       2.544   5.074  20.137  0.00  0.00    +0.000 A 
BRANCH  26  33
ATOM     32  C   UNL     1       3.195   2.622  17.909  0.00  0.00    +0.000 C 
ATOM     33  O   UNL     1       3.816   3.471  18.875  0.00  0.00    +0.000 OA
ENDBRANCH  26  33
BRANCH  31  34
ATOM     34  O   UNL     1       2.219   4.293  21.217  0.00  0.00    +0.000 OA
ATOM     35  C   UNL     1       1.273   3.247  21.051  0.00  0.00    +0.000 C 
ENDBRANCH  31  34
ENDBRANCH  22  29
ENDBRANCH   1  23
TORSDOF 6
ENDMDL
MODEL 3
REMARK VINA RESULT:      -8.4      3.855      7.821
REMARK  Name = 
REMARK  10 active torsions:
REMARK  status: ('A' for Active; 'I' for Inactive)
REMARK    1  A    between atoms: C_1  and  O_2
REMARK    2  A    between atoms: O_2  and  C_3
REMARK    3  A    between atoms: C_6  and  N_7
REMARK    4  A    between atoms: C_8  and  C_10
REMARK    5  A    between atoms: C_10  and  C_11
REMARK    6  A    between atoms: C_14  and  C_15
REMARK    7  A    between atoms: C_19  and  N_20
REMARK    8  A    between atoms: C_21  and  C_22
REMARK    9  A    between atoms: C_31  and  O_32
REMARK   10  A    between atoms: O_32  and  C_33
REMARK                            x       y       z     vdW  Elec       q    Type
REMARK                         _______ _______ _______ _____ _____    ______ ____
ROOT
ATOM      1  C   UNL     1       1.210  10.381  18.966  0.00  0.00    +0.000 C 
ATOM      2  C   UNL     1       2.206  11.218  18.149  0.00  0.00    +0.000 C 
ATOM      3  C   UNL     1      -0.259  10.673  18.578  0.00  0.00    +0.000 C 
ATOM      4  C   UNL     1      -0.750  11.372  19.791  0.00  0.00    +0.000 A 
ATOM      5  C   UNL     1      -1.980  11.961  20.111  0.00  0.00    +0.000 A 
ATOM      6  C   UNL     1      -2.035  12.556  21.385  0.00  0.00    +0.000 A 
ATOM      7  C   UNL     1      -0.938  12.512  22.246  0.00  0.00    +0.000 A 
ATOM      8  N   UNL     1       0.223  11.905  21.952  0.00  0.00    +0.000 NA
ATOM      9  C   UNL     1       0.265  11.360  20.734  0.00  0.00    +0.000 A 
ATOM     10  O   UNL     1       1.413  10.701  20.353  0.00  0.00    +0.000 OA
ENDROOT
BRANCH   5  11
ATOM     11  C   UNL     1      -3.174  12.021  19.219  0.00  0.00    +0.000 A 
ATOM     12  C   UNL     1      -4.460  12.289  19.709  0.00  0.00    +0.000 A 
ATOM     13  C   UNL     1      -5.584  12.230  18.886  0.00  0.00    +0.000 A 
ATOM     14  C   UNL     1      -5.463  11.853  17.551  0.00  0.00    +0.000 A 
ATOM     15  C   UNL     1      -4.214  11.567  17.012  0.00  0.00    +0.000 A 
ATOM     16  C   UNL     1      -3.080  11.704  17.838  0.00  0.00    +0.000 A 
BRANCH  15  17
ATOM     17  N   UNL     1      -4.028  11.094  15.689  0.00  0.00    +0.000 N 
ATOM     18  C   UNL     1      -3.141  10.110  15.281  0.00  0.00    +0.000 C 
ATOM     19  C   UNL     1      -3.107   9.911  13.787  0.00  0.00    +0.000 C 
ATOM     20  O   UNL     1      -2.423   9.422  16.001  0.00  0.00    +0.000 OA
ATOM     21  H   UNL     1      -4.547  11.574  14.965  0.00  0.00    +0.000 HD
ENDBRANCH  15  17
ENDBRANCH   5  11
BRANCH   1  23
ATOM     22  N   UNL     1       1.832   8.170  19.834  0.00  0.00    +0.000 N 
ATOM     23  C   UNL     1       1.523   8.899  18.695  0.00  0.00    +0.000 C 
ATOM     24  O   UNL     1       1.538   8.473  17.542  0.00  0.00    +0.000 OA
ATOM     25  H   UNL     1       1.657   8.636  20.722  0.00  0.00    +0.000 HD
BRANCH  22  29
ATOM     26  C   UNL     1       3.050   4.110  19.812  0.00  0.00    +0.000 A 
ATOM     27  C   UNL     1       2.002   4.529  20.640  0.00  0.00    +0.000 A 
ATOM     28  C   UNL     1       1.586   5.862  20.654  0.00  0.00    +0.000 A 
ATOM     29  C   UNL     1       2.231   6.817  19.878  0.00  0.00    +0.000 A 
ATOM     30  C   UNL     1       3.319   6.413  19.097  0.00  0.00    +0.000 A 
ATOM     31  C   UNL     1       3.749   5.070  19.068  0.00  0.00    +0.000 A 
BRANCH  26  33
ATOM     32  C   UNL     1       2.757   2.031  18.724  0.00  0.00    +0.000 C 
ATOM     33  O   UNL     1       3.404   2.790  19.746  0.00  0.00    +0.000 OA
ENDBRANCH  26  33
BRANCH  31  34
ATOM     34  O   UNL     1       4.846   4.895  18.262  0.00  0.00    +0.000 OA
ATOM     35  C   UNL     1       4.655   4.708  16.868  0.00  0.00    +0.000 C 
ENDBRANCH  31  34
ENDBRANCH  22  29
ENDBRANCH   1  23
TORSDOF 6
ENDMDL
MODEL 4
REMARK VINA RESULT:      -8.3      4.312      8.072
REMARK  Name = 
REMARK  10 active torsions:
REMARK  status: ('A' for Active; 'I' for Inactive)
REMARK    1  A    between atoms: C_1  and  O_2
REMARK    2  A    between atoms: O_2  and  C_3
REMARK    3  A    between atoms: C_6  and  N_7
REMARK    4  A    between atoms: C_8  and  C_10
REMARK    5  A    between atoms: C_10  and  C_11
REMARK    6  A    between atoms: C_14  and  C_15
REMARK    7  A    between atoms: C_19  and  N_20
REMARK    8  A    between atoms: C_21  and  C_22
REMARK    9  A    between atoms: C_31  and  O_32
REMARK   10  A    between atoms: O_32  and  C_33
REMARK                            x       y       z     vdW  Elec       q    Type
REMARK                         _______ _______ _______ _____ _____    ______ ____
ROOT
ATOM      1  C   UNL     1       0.982  10.341  19.495  0.00  0.00    +0.000 C 
ATOM      2  C   UNL     1       1.908  10.737  18.336  0.00  0.00    +0.000 C 
ATOM      3  C   UNL     1      -0.513  10.531  19.145  0.00  0.00    +0.000 C 
ATOM      4  C   UNL     1      -0.876  11.675  20.018  0.00  0.00    +0.000 A 
ATOM      5  C   UNL     1      -2.061  12.404  20.177  0.00  0.00    +0.000 A 
ATOM      6  C   UNL     1      -1.986  13.454  21.112  0.00  0.00    +0.000 A 
ATOM      7  C   UNL     1      -0.813  13.696  21.827  0.00  0.00    +0.000 A 
ATOM      8  N   UNL     1       0.306  12.964  21.704  0.00  0.00    +0.000 NA
ATOM      9  C   UNL     1       0.223  11.982  20.801  0.00  0.00    +0.000 A 
ATOM     10  O   UNL     1       1.321  11.169  20.621  0.00  0.00    +0.000 OA
ENDROOT
BRANCH   5  11
ATOM     11  C   UNL     1      -3.334  12.170  19.435  0.00  0.00    +0.000 A 
ATOM     12  C   UNL     1      -4.578  12.135  20.079  0.00  0.00    +0.000 A 
ATOM     13  C   UNL     1      -5.748  11.802  19.394  0.00  0.00    +0.000 A 
ATOM     14  C   UNL     1      -5.702  11.446  18.049  0.00  0.00    +0.000 A 
ATOM     15  C   UNL     1      -4.493  11.454  17.361  0.00  0.00    +0.000 A 
ATOM     16  C   UNL     1      -3.333  11.865  18.048  0.00  0.00    +0.000 A 
BRANCH  15  17
ATOM     17  N   UNL     1      -4.361  11.020  16.018  0.00  0.00    +0.000 N 
ATOM     18  C   UNL     1      -3.360  10.207  15.509  0.00  0.00    +0.000 C 
ATOM     19  C   UNL     1      -3.442  10.016  14.015  0.00  0.00    +0.000 C 
ATOM     20  O   UNL     1      -2.466   9.655  16.143  0.00  0.00    +0.000 OA
ATOM     21  H   UNL     1      -5.025  11.401  15.357  0.00  0.00    +0.000 HD
ENDBRANCH  15  17
ENDBRANCH   5  11
BRANCH   1  23
ATOM     22  N   UNL     1       2.152   8.251  18.951  0.00  0.00    +0.000 N 
ATOM     23  C   UNL     1       1.246   8.858  19.809  0.00  0.00    +0.000 C 
ATOM     24  O   UNL     1       0.634   8.302  20.719  0.00  0.00    +0.000 OA
ATOM     25  H   UNL     1       2.662   8.875  18.329  0.00  0.00    +0.000 HD
BRANCH  22  29
ATOM     26  C   UNL     1       3.320   4.180  19.110  0.00  0.00    +0.000 A 
ATOM     27  C   UNL     1       3.534   4.931  17.949  0.00  0.00    +0.000 A 
ATOM     28  C   UNL     1       3.161   6.276  17.884  0.00  0.00    +0.000 A 
ATOM     29  C   UNL     1       2.524   6.890  18.956  0.00  0.00    +0.000 A 
ATOM     30  C   UNL     1       2.251   6.123  20.094  0.00  0.00    +0.000 A 
ATOM     31  C   UNL     1       2.627   4.766  20.178  0.00  0.00    +0.000 A 
BRANCH  26  33
ATOM     32  C   UNL     1       3.251   2.001  18.194  0.00  0.00    +0.000 C 
ATOM     33  O   UNL     1       3.756   2.885  19.195  0.00  0.00    +0.000 OA
ENDBRANCH  26  33
BRANCH  31  34
ATOM     34  O   UNL     1       2.242   4.195  21.364  0.00  0.00    +0.000 OA
ATOM     35  C   UNL     1       1.359   3.083  21.339  0.00  0.00    +0.000 C 
ENDBRANCH  31  34
ENDBRANCH  22  29
ENDBRANCH   1  23
TORSDOF 6
ENDMDL
MODEL 5
REMARK VINA RESULT:      -8.2      4.767      9.927
REMARK  Name = 
REMARK  10 active torsions:
REMARK  status: ('A' for Active; 'I' for Inactive)
REMARK    1  A    between atoms: C_1  and  O_2
REMARK    2  A    between atoms: O_2  and  C_3
REMARK    3  A    between atoms: C_6  and  N_7
REMARK    4  A    between atoms: C_8  and  C_10
REMARK    5  A    between atoms: C_10  and  C_11
REMARK    6  A    between atoms: C_14  and  C_15
REMARK    7  A    between atoms: C_19  and  N_20
REMARK    8  A    between atoms: C_21  and  C_22
REMARK    9  A    between atoms: C_31  and  O_32
REMARK   10  A    between atoms: O_32  and  C_33
REMARK                            x       y       z     vdW  Elec       q    Type
REMARK                         _______ _______ _______ _____ _____    ______ ____
ROOT
ATOM      1  C   UNL     1      -0.289  11.903  18.993  0.00  0.00    +0.000 C 
ATOM      2  C   UNL     1      -1.563  11.853  18.135  0.00  0.00    +0.000 C 
ATOM      3  C   UNL     1       0.680  10.740  18.674  0.00  0.00    +0.000 C 
ATOM      4  C   UNL     1       0.581   9.927  19.911  0.00  0.00    +0.000 A 
ATOM      5  C   UNL     1       1.154   8.706  20.289  0.00  0.00    +0.000 A 
ATOM      6  C   UNL     1       0.781   8.250  21.567  0.00  0.00    +0.000 A 
ATOM      7  C   UNL     1      -0.072   9.001  22.377  0.00  0.00    +0.000 A 
ATOM      8  N   UNL     1      -0.581  10.193  22.028  0.00  0.00    +0.000 NA
ATOM      9  C   UNL     1      -0.230  10.604  20.806  0.00  0.00    +0.000 A 
ATOM     10  O   UNL     1      -0.694  11.826  20.371  0.00  0.00    +0.000 OA
ENDROOT
BRANCH   5  11
ATOM     11  C   UNL     1       2.073   7.880  19.452  0.00  0.00    +0.000 A 
ATOM     12  C   UNL     1       2.550   8.320  18.210  0.00  0.00    +0.000 A 
ATOM     13  C   UNL     1       3.314   7.494  17.385  0.00  0.00    +0.000 A 
ATOM     14  C   UNL     1       3.586   6.180  17.758  0.00  0.00    +0.000 A 
ATOM     15  C   UNL     1       3.130   5.687  18.975  0.00  0.00    +0.000 A 
ATOM     16  C   UNL     1       2.424   6.556  19.830  0.00  0.00    +0.000 A 
BRANCH  15  17
ATOM     17  N   UNL     1       3.295   4.337  19.377  0.00  0.00    +0.000 N 
ATOM     18  C   UNL     1       4.491   3.643  19.467  0.00  0.00    +0.000 C 
ATOM     19  C   UNL     1       4.318   2.187  19.822  0.00  0.00    +0.000 C 
ATOM     20  O   UNL     1       5.619   4.095  19.294  0.00  0.00    +0.000 OA
ATOM     21  H   UNL     1       2.445   3.814  19.548  0.00  0.00    +0.000 HD
ENDBRANCH  15  17
ENDBRANCH   5  11
BRANCH   1  23
ATOM     22  N   UNL     1       1.727  13.298  19.132  0.00  0.00    +0.000 N 
ATOM     23  C   UNL     1       0.409  13.243  18.703  0.00  0.00    +0.000 C 
ATOM     24  O   UNL     1      -0.217  14.164  18.184  0.00  0.00    +0.000 OA
ATOM     25  H   UNL     1       2.135  12.414  19.431  0.00  0.00    +0.000 HD
BRANCH  22  29
ATOM     26  C   UNL     1       4.414  16.571  18.951  0.00  0.00    +0.000 A 
ATOM     27  C   UNL     1       3.207  16.685  19.650  0.00  0.00    +0.000 A 
ATOM     28  C   UNL     1       2.315  15.613  19.724  0.00  0.00    +0.000 A 
ATOM     29  C   UNL     1       2.582  14.419  19.066  0.00  0.00    +0.000 A 
ATOM     30  C   UNL     1       3.757  14.324  18.313  0.00  0.00    +0.000 A 
ATOM     31  C   UNL     1       4.671  15.394  18.232  0.00  0.00    +0.000 A 
BRANCH  26  33
ATOM     32  C   UNL     1       6.085  17.748  20.140  0.00  0.00    +0.000 C 
ATOM     33  O   UNL     1       5.319  17.597  18.944  0.00  0.00    +0.000 OA
ENDBRANCH  26  33
BRANCH  31  34
ATOM     34  O   UNL     1       5.740  15.103  17.423  0.00  0.00    +0.000 OA
ATOM     35  C   UNL     1       6.770  14.261  17.918  0.00  0.00    +0.000 C 
ENDBRANCH  31  34
ENDBRANCH  22  29
ENDBRANCH   1  23
TORSDOF 6
ENDMDL
MODEL 6
REMARK VINA RESULT:      -8.2      4.560      7.229
REMARK  Name = 
REMARK  10 active torsions:
REMARK  status: ('A' for Active; 'I' for Inactive)
REMARK    1  A    between atoms: C_1  and  O_2
REMARK    2  A    between atoms: O_2  and  C_3
REMARK    3  A    between atoms: C_6  and  N_7
REMARK    4  A    between atoms: C_8  and  C_10
REMARK    5  A    between atoms: C_10  and  C_11
REMARK    6  A    between atoms: C_14  and  C_15
REMARK    7  A    between atoms: C_19  and  N_20
REMARK    8  A    between atoms: C_21  and  C_22
REMARK    9  A    between atoms: C_31  and  O_32
REMARK   10  A    between atoms: O_32  and  C_33
REMARK                            x       y       z     vdW  Elec       q    Type
REMARK                         _______ _______ _______ _____ _____    ______ ____
ROOT
ATOM      1  C   UNL     1       7.508   6.454  18.179  0.00  0.00    +0.000 C 
ATOM      2  C   UNL     1       8.620   5.947  19.109  0.00  0.00    +0.000 C 
ATOM      3  C   UNL     1       6.096   6.140  18.726  0.00  0.00    +0.000 C 
ATOM      4  C   UNL     1       5.629   5.112  17.762  0.00  0.00    +0.000 A 
ATOM      5  C   UNL     1       4.455   4.352  17.684  0.00  0.00    +0.000 A 
ATOM      6  C   UNL     1       4.409   3.449  16.606  0.00  0.00    +0.000 A 
ATOM      7  C   UNL     1       5.457   3.370  15.689  0.00  0.00    +0.000 A 
ATOM      8  N   UNL     1       6.559   4.134  15.742  0.00  0.00    +0.000 NA
ATOM      9  C   UNL     1       6.596   4.974  16.781  0.00  0.00    +0.000 A 
ATOM     10  O   UNL     1       7.684   5.810  16.905  0.00  0.00    +0.000 OA
ENDROOT
BRANCH   5  11
ATOM     11  C   UNL     1       3.313   4.414  18.642  0.00  0.00    +0.000 A 
ATOM     12  C   UNL     1       2.294   3.452  18.652  0.00  0.00    +0.000 A 
ATOM     13  C   UNL     1       1.173   3.581  19.472  0.00  0.00    +0.000 A 
ATOM     14  C   UNL     1       1.012   4.706  20.277  0.00  0.00    +0.000 A 
ATOM     15  C   UNL     1       1.987   5.697  20.301  0.00  0.00    +0.000 A 
ATOM     16  C   UNL     1       3.148   5.516  19.523  0.00  0.00    +0.000 A 
BRANCH  15  17
ATOM     17  N   UNL     1       1.848   6.906  21.028  0.00  0.00    +0.000 N 
ATOM     18  C   UNL     1       1.619   8.167  20.497  0.00  0.00    +0.000 C 
ATOM     19  C   UNL     1       1.628   9.266  21.530  0.00  0.00    +0.000 C 
ATOM     20  O   UNL     1       1.416   8.443  19.319  0.00  0.00    +0.000 OA
ATOM     21  H   UNL     1       2.001   6.848  22.026  0.00  0.00    +0.000 HD
ENDBRANCH  15  17
ENDBRANCH   5  11
BRANCH   1  23
ATOM     22  N   UNL     1       8.698   8.503  18.825  0.00  0.00    +0.000 N 
ATOM     23  C   UNL     1       7.676   7.978  18.048  0.00  0.00    +0.000 C 
ATOM     24  O   UNL     1       6.903   8.625  17.344  0.00  0.00    +0.000 OA
ATOM     25  H   UNL     1       9.322   7.824  19.257  0.00  0.00    +0.000 HD
BRANCH  22  29
ATOM     26  C   UNL     1       9.585  12.615  19.346  0.00  0.00    +0.000 A 
ATOM     27  C   UNL     1       9.521  12.063  18.061  0.00  0.00    +0.000 A 
ATOM     28  C   UNL     1       9.223  10.711  17.874  0.00  0.00    +0.000 A 
ATOM     29  C   UNL     1       9.028   9.868  18.961  0.00  0.00    +0.000 A 
ATOM     30  C   UNL     1       9.155  10.404  20.247  0.00  0.00    +0.000 A 
ATOM     31  C   UNL     1       9.450  11.767  20.454  0.00  0.00    +0.000 A 
BRANCH  26  33
ATOM     32  C   UNL     1      11.094  14.423  19.134  0.00  0.00    +0.000 C 
ATOM     33  O   UNL     1       9.802  13.955  19.521  0.00  0.00    +0.000 OA
ENDBRANCH  26  33
BRANCH  31  34
ATOM     34  O   UNL     1       9.557  12.078  21.786  0.00  0.00    +0.000 OA
ATOM     35  C   UNL     1       8.374  12.246  22.552  0.00  0.00    +0.000 C 
ENDBRANCH  31  34
ENDBRANCH  22  29
ENDBRANCH   1  23
TORSDOF 6
ENDMDL
MODEL 7
REMARK VINA RESULT:      -8.2      3.968      8.525
REMARK  Name = 
REMARK  10 active torsions:
REMARK  status: ('A' for Active; 'I' for Inactive)
REMARK    1  A    between atoms: C_1  and  O_2
REMARK    2  A    between atoms: O_2  and  C_3
REMARK    3  A    between atoms: C_6  and  N_7
REMARK    4  A    between atoms: C_8  and  C_10
REMARK    5  A    between atoms: C_10  and  C_11
REMARK    6  A    between atoms: C_14  and  C_15
REMARK    7  A    between atoms: C_19  and  N_20
REMARK    8  A    between atoms: C_21  and  C_22
REMARK    9  A    between atoms: C_31  and  O_32
REMARK   10  A    between atoms: O_32  and  C_33
REMARK                            x       y       z     vdW  Elec       q    Type
REMARK                         _______ _______ _______ _____ _____    ______ ____
ROOT
ATOM      1  C   UNL     1       0.382  11.027  20.460  0.00  0.00    +0.000 C 
ATOM      2  C   UNL     1       1.401  11.592  19.460  0.00  0.00    +0.000 C 
ATOM      3  C   UNL     1      -1.063  11.056  19.907  0.00  0.00    +0.000 C 
ATOM      4  C   UNL     1      -1.683  12.101  20.760  0.00  0.00    +0.000 A 
ATOM      5  C   UNL     1      -2.961  12.674  20.775  0.00  0.00    +0.000 A 
ATOM      6  C   UNL     1      -3.147  13.673  21.747  0.00  0.00    +0.000 A 
ATOM      7  C   UNL     1      -2.123  14.016  22.631  0.00  0.00    +0.000 A 
ATOM      8  N   UNL     1      -0.915  13.429  22.643  0.00  0.00    +0.000 NA
ATOM      9  C   UNL     1      -0.749  12.495  21.703  0.00  0.00    +0.000 A 
ATOM     10  O   UNL     1       0.456  11.829  21.652  0.00  0.00    +0.000 OA
ENDROOT
BRANCH   5  11
ATOM     11  C   UNL     1      -4.080  12.330  19.850  0.00  0.00    +0.000 A 
ATOM     12  C   UNL     1      -5.400  12.180  20.298  0.00  0.00    +0.000 A 
ATOM     13  C   UNL     1      -6.417  11.746  19.447  0.00  0.00    +0.000 A 
ATOM     14  C   UNL     1      -6.135  11.402  18.128  0.00  0.00    +0.000 A 
ATOM     15  C   UNL     1      -4.842  11.522  17.632  0.00  0.00    +0.000 A 
ATOM     16  C   UNL     1      -3.841  12.032  18.482  0.00  0.00    +0.000 A 
BRANCH  15  17
ATOM     17  N   UNL     1      -4.469  11.107  16.328  0.00  0.00    +0.000 N 
ATOM     18  C   UNL     1      -3.399  10.290  15.997  0.00  0.00    +0.000 C 
ATOM     19  C   UNL     1      -3.206  10.124  14.510  0.00  0.00    +0.000 C 
ATOM     20  O   UNL     1      -2.642   9.718  16.774  0.00  0.00    +0.000 OA
ATOM     21  H   UNL     1      -4.997  11.507  15.563  0.00  0.00    +0.000 HD
ENDBRANCH  15  17
ENDBRANCH   5  11
BRANCH   1  23
ATOM     22  N   UNL     1       1.466   8.952  19.717  0.00  0.00    +0.000 N 
ATOM     23  C   UNL     1       0.785   9.571  20.755  0.00  0.00    +0.000 C 
ATOM     24  O   UNL     1       0.452   9.043  21.814  0.00  0.00    +0.000 OA
ATOM     25  H   UNL     1       1.770   9.560  18.960  0.00  0.00    +0.000 HD
BRANCH  22  29
ATOM     26  C   UNL     1       2.700   4.906  19.456  0.00  0.00    +0.000 A 
ATOM     27  C   UNL     1       1.982   5.355  20.571  0.00  0.00    +0.000 A 
ATOM     28  C   UNL     1       1.563   6.684  20.668  0.00  0.00    +0.000 A 
ATOM     29  C   UNL     1       1.888   7.606  19.681  0.00  0.00    +0.000 A 
ATOM     30  C   UNL     1       2.660   7.174  18.597  0.00  0.00    +0.000 A 
ATOM     31  C   UNL     1       3.087   5.835  18.481  0.00  0.00    +0.000 A 
BRANCH  26  33
ATOM     32  C   UNL     1       1.965   2.699  19.031  0.00  0.00    +0.000 C 
ATOM     33  O   UNL     1       3.043   3.587  19.330  0.00  0.00    +0.000 OA
ENDBRANCH  26  33
BRANCH  31  34
ATOM     34  O   UNL     1       3.853   5.631  17.362  0.00  0.00    +0.000 OA
ATOM     35  C   UNL     1       4.682   6.683  16.892  0.00  0.00    +0.000 C 
ENDBRANCH  31  34
ENDBRANCH  22  29
ENDBRANCH   1  23
TORSDOF 6
ENDMDL
MODEL 8
REMARK VINA RESULT:      -8.1      4.008      8.082
REMARK  Name = 
REMARK  10 active torsions:
REMARK  status: ('A' for Active; 'I' for Inactive)
REMARK    1  A    between atoms: C_1  and  O_2
REMARK    2  A    between atoms: O_2  and  C_3
REMARK    3  A    between atoms: C_6  and  N_7
REMARK    4  A    between atoms: C_8  and  C_10
REMARK    5  A    between atoms: C_10  and  C_11
REMARK    6  A    between atoms: C_14  and  C_15
REMARK    7  A    between atoms: C_19  and  N_20
REMARK    8  A    between atoms: C_21  and  C_22
REMARK    9  A    between atoms: C_31  and  O_32
REMARK   10  A    between atoms: O_32  and  C_33
REMARK                            x       y       z     vdW  Elec       q    Type
REMARK                         _______ _______ _______ _____ _____    ______ ____
ROOT
ATOM      1  C   UNL     1       0.232   9.959  21.200  0.00  0.00    +0.000 C 
ATOM      2  C   UNL     1      -0.411  10.137  22.583  0.00  0.00    +0.000 C 
ATOM      3  C   UNL     1       0.943  11.242  20.712  0.00  0.00    +0.000 C 
ATOM      4  C   UNL     1       0.058  11.665  19.599  0.00  0.00    +0.000 A 
ATOM      5  C   UNL     1       0.075  12.775  18.745  0.00  0.00    +0.000 A 
ATOM      6  C   UNL     1      -0.981  12.820  17.816  0.00  0.00    +0.000 A 
ATOM      7  C   UNL     1      -1.933  11.803  17.760  0.00  0.00    +0.000 A 
ATOM      8  N   UNL     1      -1.918  10.717  18.550  0.00  0.00    +0.000 NA
ATOM      9  C   UNL     1      -0.919  10.697  19.437  0.00  0.00    +0.000 A 
ATOM     10  O   UNL     1      -0.816   9.610  20.278  0.00  0.00    +0.000 OA
ENDROOT
BRANCH   5  11
ATOM     11  C   UNL     1       1.079  13.878  18.773  0.00  0.00    +0.000 A 
ATOM     12  C   UNL     1       0.720  15.208  19.031  0.00  0.00    +0.000 A 
ATOM     13  C   UNL     1       1.647  16.248  18.941  0.00  0.00    +0.000 A 
ATOM     14  C   UNL     1       2.956  15.994  18.542  0.00  0.00    +0.000 A 
ATOM     15  C   UNL     1       3.366  14.694  18.264  0.00  0.00    +0.000 A 
ATOM     16  C   UNL     1       2.439  13.647  18.432  0.00  0.00    +0.000 A 
BRANCH  15  17
ATOM     17  N   UNL     1       4.656  14.376  17.770  0.00  0.00    +0.000 N 
ATOM     18  C   UNL     1       5.867  14.644  18.389  0.00  0.00    +0.000 C 
ATOM     19  C   UNL     1       7.067  14.275  17.553  0.00  0.00    +0.000 C 
ATOM     20  O   UNL     1       6.031  15.126  19.506  0.00  0.00    +0.000 OA
ATOM     21  H   UNL     1       4.694  13.976  16.840  0.00  0.00    +0.000 HD
ENDBRANCH  15  17
ENDBRANCH   5  11
BRANCH   1  23
ATOM     22  N   UNL     1       1.247   7.937  20.243  0.00  0.00    +0.000 N 
ATOM     23  C   UNL     1       1.260   8.819  21.314  0.00  0.00    +0.000 C 
ATOM     24  O   UNL     1       1.962   8.721  22.318  0.00  0.00    +0.000 OA
ATOM     25  H   UNL     1       0.695   8.224  19.437  0.00  0.00    +0.000 HD
BRANCH  22  29
ATOM     26  C   UNL     1       3.584   4.441  19.709  0.00  0.00    +0.000 A 
ATOM     27  C   UNL     1       2.518   4.447  20.617  0.00  0.00    +0.000 A 
ATOM     28  C   UNL     1       1.735   5.589  20.798  0.00  0.00    +0.000 A 
ATOM     29  C   UNL     1       2.022   6.765  20.116  0.00  0.00    +0.000 A 
ATOM     30  C   UNL     1       3.126   6.781  19.256  0.00  0.00    +0.000 A 
ATOM     31  C   UNL     1       3.924   5.635  19.057  0.00  0.00    +0.000 A 
BRANCH  26  33
ATOM     32  C   UNL     1       3.524   2.136  19.185  0.00  0.00    +0.000 C 
ATOM     33  O   UNL     1       4.300   3.298  19.479  0.00  0.00    +0.000 OA
ENDBRANCH  26  33
BRANCH  31  34
ATOM     34  O   UNL     1       4.967   5.872  18.200  0.00  0.00    +0.000 OA
ATOM     35  C   UNL     1       4.802   6.824  17.159  0.00  0.00    +0.000 C 
ENDBRANCH  31  34
ENDBRANCH  22  29
ENDBRANCH   1  23
TORSDOF 6
ENDMDL
MODEL 9
REMARK VINA RESULT:      -8.1      3.916      7.662
REMARK  Name = 
REMARK  10 active torsions:
REMARK  status: ('A' for Active; 'I' for Inactive)
REMARK    1  A    between atoms: C_1  and  O_2
REMARK    2  A    between atoms: O_2  and  C_3
REMARK    3  A    between atoms: C_6  and  N_7
REMARK    4  A    between atoms: C_8  and  C_10
REMARK    5  A    between atoms: C_10  and  C_11
REMARK    6  A    between atoms: C_14  and  C_15
REMARK    7  A    between atoms: C_19  and  N_20
REMARK    8  A    between atoms: C_21  and  C_22
REMARK    9  A    between atoms: C_31  and  O_32
REMARK   10  A    between atoms: O_32  and  C_33
REMARK                            x       y       z     vdW  Elec       q    Type
REMARK                         _______ _______ _______ _____ _____    ______ ____
ROOT
ATOM      1  C   UNL     1       1.093  10.519  19.258  0.00  0.00    +0.000 C 
ATOM      2  C   UNL     1       2.004  11.108  18.171  0.00  0.00    +0.000 C 
ATOM      3  C   UNL     1      -0.407  10.661  18.908  0.00  0.00    +0.000 C 
ATOM      4  C   UNL     1      -0.848  11.667  19.906  0.00  0.00    +0.000 A 
ATOM      5  C   UNL     1      -2.077  12.299  20.131  0.00  0.00    +0.000 A 
ATOM      6  C   UNL     1      -2.076  13.231  21.186  0.00  0.00    +0.000 A 
ATOM      7  C   UNL     1      -0.927  13.455  21.945  0.00  0.00    +0.000 A 
ATOM      8  N   UNL     1       0.235  12.811  21.754  0.00  0.00    +0.000 NA
ATOM      9  C   UNL     1       0.222  11.943  20.739  0.00  0.00    +0.000 A 
ATOM     10  O   UNL     1       1.369  11.224  20.481  0.00  0.00    +0.000 OA
ENDROOT
BRANCH   5  11
ATOM     11  C   UNL     1      -3.326  12.081  19.344  0.00  0.00    +0.000 A 
ATOM     12  C   UNL     1      -4.592  12.052  19.945  0.00  0.00    +0.000 A 
ATOM     13  C   UNL     1      -5.740  11.734  19.219  0.00  0.00    +0.000 A 
ATOM     14  C   UNL     1      -5.651  11.387  17.874  0.00  0.00    +0.000 A 
ATOM     15  C   UNL     1      -4.420  11.390  17.227  0.00  0.00    +0.000 A 
ATOM     16  C   UNL     1      -3.281  11.786  17.956  0.00  0.00    +0.000 A 
BRANCH  15  17
ATOM     17  N   UNL     1      -4.245  10.964  15.886  0.00  0.00    +0.000 N 
ATOM     18  C   UNL     1      -3.227  10.157  15.402  0.00  0.00    +0.000 C 
ATOM     19  C   UNL     1      -3.262   9.975  13.906  0.00  0.00    +0.000 C 
ATOM     20  O   UNL     1      -2.349   9.606  16.060  0.00  0.00    +0.000 OA
ATOM     21  H   UNL     1      -4.891  11.346  15.208  0.00  0.00    +0.000 HD
ENDBRANCH  15  17
ENDBRANCH   5  11
BRANCH   1  23
ATOM     22  N   UNL     1       2.138   8.507  18.313  0.00  0.00    +0.000 N 
ATOM     23  C   UNL     1       1.445   9.027  19.396  0.00  0.00    +0.000 C 
ATOM     24  O   UNL     1       1.067   8.394  20.380  0.00  0.00    +0.000 OA
ATOM     25  H   UNL     1       2.480   9.187  17.637  0.00  0.00    +0.000 HD
BRANCH  22  29
ATOM     26  C   UNL     1       3.391   4.510  17.670  0.00  0.00    +0.000 A 
ATOM     27  C   UNL     1       2.037   4.802  17.870  0.00  0.00    +0.000 A 
ATOM     28  C   UNL     1       1.608   6.115  18.077  0.00  0.00    +0.000 A 
ATOM     29  C   UNL     1       2.521   7.161  18.134  0.00  0.00    +0.000 A 
ATOM     30  C   UNL     1       3.881   6.864  17.998  0.00  0.00    +0.000 A 
ATOM     31  C   UNL     1       4.331   5.544  17.783  0.00  0.00    +0.000 A 
BRANCH  26  33
ATOM     32  C   UNL     1       3.384   2.240  18.332  0.00  0.00    +0.000 C 
ATOM     33  O   UNL     1       3.798   3.233  17.393  0.00  0.00    +0.000 OA
ENDBRANCH  26  33
BRANCH  31  34
ATOM     34  O   UNL     1       5.698   5.469  17.705  0.00  0.00    +0.000 OA
ATOM     35  C   UNL     1       6.393   6.381  16.868  0.00  0.00    +0.000 C 
ENDBRANCH  31  34
ENDBRANCH  22  29
ENDBRANCH   1  23
TORSDOF 6
ENDMDL
