MODEL 1
REMARK VINA RESULT:      -6.7      0.000      0.000
REMARK  Name = 
REMARK  10 active torsions:
REMARK  status: ('A' for Active; 'I' for Inactive)
REMARK    1  A    between atoms: C_1  and  O_2
REMARK    2  A    between atoms: O_2  and  C_3
REMARK    3  A    between atoms: C_7  and  O_8
REMARK    4  A    between atoms: O_8  and  C_9
REMARK    5  A    between atoms: C_10  and  C_11
REMARK    6  A    between atoms: C_15  and  C_16
REMARK    7  A    between atoms: C_16  and  C_17
REMARK    8  A    between atoms: C_17  and  N_18
REMARK    9  A    between atoms: N_18  and  C_19
REMARK   10  A    between atoms: N_18  and  C_20
REMARK                            x       y       z     vdW  Elec       q    Type
REMARK                         _______ _______ _______ _____ _____    ______ ____
ROOT
ATOM      1  C   UNL     1       5.166   4.743  17.718  0.00  0.00    +0.000 A 
ATOM      2  C   UNL     1       6.507   4.765  18.056  0.00  0.00    +0.000 A 
ATOM      3  N   UNL     1       7.482   4.698  17.125  0.00  0.00    +0.000 NA
ATOM      4  N   UNL     1       7.121   4.610  15.828  0.00  0.00    +0.000 NA
ATOM      5  C   UNL     1       5.807   4.579  15.512  0.00  0.00    +0.000 A 
ATOM      6  N   UNL     1       4.804   4.631  16.417  0.00  0.00    +0.000 NA
ENDROOT
BRANCH   1  12
ATOM      7  C   UNL     1       3.374   6.066  18.940  0.00  0.00    +0.000 A 
ATOM      8  C   UNL     1       2.300   6.137  19.840  0.00  0.00    +0.000 A 
ATOM      9  C   UNL     1       1.950   5.037  20.609  0.00  0.00    +0.000 A 
ATOM     10  C   UNL     1       2.643   3.843  20.455  0.00  0.00    +0.000 A 
ATOM     11  C   UNL     1       3.673   3.724  19.507  0.00  0.00    +0.000 A 
ATOM     12  C   UNL     1       4.074   4.845  18.729  0.00  0.00    +0.000 A 
BRANCH   7  14
ATOM     13  C   UNL     1       2.737   8.088  17.866  0.00  0.00    +0.000 C 
ATOM     14  O   UNL     1       3.766   7.162  18.205  0.00  0.00    +0.000 OA
ENDBRANCH   7  14
BRANCH  11  15
ATOM     15  O   UNL     1       4.320   2.531  19.282  0.00  0.00    +0.000 OA
ATOM     16  C   UNL     1       3.602   1.515  18.590  0.00  0.00    +0.000 C 
ENDBRANCH  11  15
ENDBRANCH   1  12
BRANCH   5  17
ATOM     17  C   UNL     1       5.448   4.377  14.067  0.00  0.00    +0.000 C 
BRANCH  17  18
ATOM     18  C   UNL     1       6.522   3.599  13.293  0.00  0.00    +0.000 C 
BRANCH  18  19
ATOM     19  N   UNL     1       6.132   3.291  11.895  0.00  0.00    +0.000 NA
ATOM     20  C   UNL     1       6.700   2.024  11.430  0.00  0.00    +0.000 C 
ATOM     21  C   UNL     1       4.671   3.238  11.777  0.00  0.00    +0.000 C 
ENDBRANCH  18  19
ENDBRANCH  17  18
ENDBRANCH   5  17
TORSDOF 6
ENDMDL
MODEL 2
REMARK VINA RESULT:      -6.7      0.080      2.745
REMARK  Name = 
REMARK  10 active torsions:
REMARK  status: ('A' for Active; 'I' for Inactive)
REMARK    1  A    between atoms: C_1  and  O_2
REMARK    2  A    between atoms: O_2  and  C_3
REMARK    3  A    between atoms: C_7  and  O_8
REMARK    4  A    between atoms: O_8  and  C_9
REMARK    5  A    between atoms: C_10  and  C_11
REMARK    6  A    between atoms: C_15  and  C_16
REMARK    7  A    between atoms: C_16  and  C_17
REMARK    8  A    between atoms: C_17  and  N_18
REMARK    9  A    between atoms: N_18  and  C_19
REMARK   10  A    between atoms: N_18  and  C_20
REMARK                            x       y       z     vdW  Elec       q    Type
REMARK                         _______ _______ _______ _____ _____    ______ ____
ROOT
ATOM      1  C   UNL     1       5.155   4.742  17.684  0.00  0.00    +0.000 A 
ATOM      2  C   UNL     1       6.493   4.793  18.026  0.00  0.00    +0.000 A 
ATOM      3  N   UNL     1       7.473   4.738  17.099  0.00  0.00    +0.000 NA
ATOM      4  N   UNL     1       7.117   4.634  15.801  0.00  0.00    +0.000 NA
ATOM      5  C   UNL     1       5.804   4.576  15.482  0.00  0.00    +0.000 A 
ATOM      6  N   UNL     1       4.798   4.614  16.384  0.00  0.00    +0.000 NA
ENDROOT
BRANCH   1  12
ATOM      7  C   UNL     1       3.685   3.706  19.481  0.00  0.00    +0.000 A 
ATOM      8  C   UNL     1       2.703   3.816  20.476  0.00  0.00    +0.000 A 
ATOM      9  C   UNL     1       2.010   5.004  20.657  0.00  0.00    +0.000 A 
ATOM     10  C   UNL     1       2.322   6.107  19.872  0.00  0.00    +0.000 A 
ATOM     11  C   UNL     1       3.354   6.046  18.920  0.00  0.00    +0.000 A 
ATOM     12  C   UNL     1       4.058   4.830  18.692  0.00  0.00    +0.000 A 
BRANCH   7  14
ATOM     13  C   UNL     1       3.610   1.515  18.564  0.00  0.00    +0.000 C 
ATOM     14  O   UNL     1       4.347   2.521  19.255  0.00  0.00    +0.000 OA
ENDBRANCH   7  14
BRANCH  11  15
ATOM     15  O   UNL     1       3.733   7.146  18.186  0.00  0.00    +0.000 OA
ATOM     16  C   UNL     1       2.719   8.084  17.839  0.00  0.00    +0.000 C 
ENDBRANCH  11  15
ENDBRANCH   1  12
BRANCH   5  17
ATOM     17  C   UNL     1       5.454   4.356  14.037  0.00  0.00    +0.000 C 
BRANCH  17  18
ATOM     18  C   UNL     1       6.613   3.753  13.231  0.00  0.00    +0.000 C 
BRANCH  18  19
ATOM     19  N   UNL     1       6.229   3.359  11.853  0.00  0.00    +0.000 NA
ATOM     20  C   UNL     1       6.873   2.112  11.435  0.00  0.00    +0.000 C 
ATOM     21  C   UNL     1       4.773   3.208  11.757  0.00  0.00    +0.000 C 
ENDBRANCH  18  19
ENDBRANCH  17  18
ENDBRANCH   5  17
TORSDOF 6
ENDMDL
MODEL 3
REMARK VINA RESULT:      -6.6      0.895      2.973
REMARK  Name = 
REMARK  10 active torsions:
REMARK  status: ('A' for Active; 'I' for Inactive)
REMARK    1  A    between atoms: C_1  and  O_2
REMARK    2  A    between atoms: O_2  and  C_3
REMARK    3  A    between atoms: C_7  and  O_8
REMARK    4  A    between atoms: O_8  and  C_9
REMARK    5  A    between atoms: C_10  and  C_11
REMARK    6  A    between atoms: C_15  and  C_16
REMARK    7  A    between atoms: C_16  and  C_17
REMARK    8  A    between atoms: C_17  and  N_18
REMARK    9  A    between atoms: N_18  and  C_19
REMARK   10  A    between atoms: N_18  and  C_20
REMARK                            x       y       z     vdW  Elec       q    Type
REMARK                         _______ _______ _______ _____ _____    ______ ____
ROOT
ATOM      1  C   UNL     1       5.398   4.594  17.978  0.00  0.00    +0.000 A 
ATOM      2  C   UNL     1       6.571   4.591  18.709  0.00  0.00    +0.000 A 
ATOM      3  N   UNL     1       7.785   4.606  18.117  0.00  0.00    +0.000 NA
ATOM      4  N   UNL     1       7.837   4.629  16.769  0.00  0.00    +0.000 NA
ATOM      5  C   UNL     1       6.681   4.623  16.067  0.00  0.00    +0.000 A 
ATOM      6  N   UNL     1       5.450   4.594  16.624  0.00  0.00    +0.000 NA
ENDROOT
BRANCH   1  12
ATOM      7  C   UNL     1       3.505   3.440  19.220  0.00  0.00    +0.000 A 
ATOM      8  C   UNL     1       2.267   3.477  19.879  0.00  0.00    +0.000 A 
ATOM      9  C   UNL     1       1.503   4.635  19.881  0.00  0.00    +0.000 A 
ATOM     10  C   UNL     1       1.988   5.779  19.260  0.00  0.00    +0.000 A 
ATOM     11  C   UNL     1       3.258   5.789  18.658  0.00  0.00    +0.000 A 
ATOM     12  C   UNL     1       4.048   4.607  18.613  0.00  0.00    +0.000 A 
BRANCH   7  14
ATOM     13  C   UNL     1       4.663   1.747  20.422  0.00  0.00    +0.000 C 
ATOM     14  O   UNL     1       4.253   2.286  19.166  0.00  0.00    +0.000 OA
ENDBRANCH   7  14
BRANCH  11  15
ATOM     15  O   UNL     1       3.792   6.931  18.106  0.00  0.00    +0.000 OA
ATOM     16  C   UNL     1       2.899   8.004  17.828  0.00  0.00    +0.000 C 
ENDBRANCH  11  15
ENDBRANCH   1  12
BRANCH   5  17
ATOM     17  C   UNL     1       6.783   4.545  14.569  0.00  0.00    +0.000 C 
BRANCH  17  18
ATOM     18  C   UNL     1       5.550   3.895  13.924  0.00  0.00    +0.000 C 
BRANCH  18  19
ATOM     19  N   UNL     1       5.842   3.250  12.620  0.00  0.00    +0.000 NA
ATOM     20  C   UNL     1       4.686   3.279  11.720  0.00  0.00    +0.000 C 
ATOM     21  C   UNL     1       6.977   3.912  11.970  0.00  0.00    +0.000 C 
ENDBRANCH  18  19
ENDBRANCH  17  18
ENDBRANCH   5  17
TORSDOF 6
ENDMDL
MODEL 4
REMARK VINA RESULT:      -6.6      1.073      1.408
REMARK  Name = 
REMARK  10 active torsions:
REMARK  status: ('A' for Active; 'I' for Inactive)
REMARK    1  A    between atoms: C_1  and  O_2
REMARK    2  A    between atoms: O_2  and  C_3
REMARK    3  A    between atoms: C_7  and  O_8
REMARK    4  A    between atoms: O_8  and  C_9
REMARK    5  A    between atoms: C_10  and  C_11
REMARK    6  A    between atoms: C_15  and  C_16
REMARK    7  A    between atoms: C_16  and  C_17
REMARK    8  A    between atoms: C_17  and  N_18
REMARK    9  A    between atoms: N_18  and  C_19
REMARK   10  A    between atoms: N_18  and  C_20
REMARK                            x       y       z     vdW  Elec       q    Type
REMARK                         _______ _______ _______ _____ _____    ______ ____
ROOT
ATOM      1  C   UNL     1       5.030   4.852  18.681  0.00  0.00    +0.000 A 
ATOM      2  C   UNL     1       6.235   5.028  19.334  0.00  0.00    +0.000 A 
ATOM      3  N   UNL     1       7.376   5.312  18.670  0.00  0.00    +0.000 NA
ATOM      4  N   UNL     1       7.320   5.429  17.327  0.00  0.00    +0.000 NA
ATOM      5  C   UNL     1       6.136   5.245  16.700  0.00  0.00    +0.000 A 
ATOM      6  N   UNL     1       4.978   4.945  17.330  0.00  0.00    +0.000 NA
ENDROOT
BRANCH   1  12
ATOM      7  C   UNL     1       2.846   5.608  19.737  0.00  0.00    +0.000 A 
ATOM      8  C   UNL     1       1.615   5.324  20.347  0.00  0.00    +0.000 A 
ATOM      9  C   UNL     1       1.290   4.026  20.712  0.00  0.00    +0.000 A 
ATOM     10  C   UNL     1       2.176   2.992  20.433  0.00  0.00    +0.000 A 
ATOM     11  C   UNL     1       3.382   3.240  19.755  0.00  0.00    +0.000 A 
ATOM     12  C   UNL     1       3.754   4.566  19.399  0.00  0.00    +0.000 A 
BRANCH   7  14
ATOM     13  C   UNL     1       2.421   7.528  18.403  0.00  0.00    +0.000 C 
ATOM     14  O   UNL     1       3.204   6.897  19.413  0.00  0.00    +0.000 OA
ENDBRANCH   7  14
BRANCH  11  15
ATOM     15  O   UNL     1       4.238   2.223  19.398  0.00  0.00    +0.000 OA
ATOM     16  C   UNL     1       3.778   1.288  18.428  0.00  0.00    +0.000 C 
ENDBRANCH  11  15
ENDBRANCH   1  12
BRANCH   5  17
ATOM     17  C   UNL     1       6.137   5.281  15.198  0.00  0.00    +0.000 C 
BRANCH  17  18
ATOM     18  C   UNL     1       5.835   3.912  14.572  0.00  0.00    +0.000 C 
BRANCH  18  19
ATOM     19  N   UNL     1       6.550   3.680  13.292  0.00  0.00    +0.000 NA
ATOM     20  C   UNL     1       5.633   3.342  12.201  0.00  0.00    +0.000 C 
ATOM     21  C   UNL     1       7.325   4.869  12.923  0.00  0.00    +0.000 C 
ENDBRANCH  18  19
ENDBRANCH  17  18
ENDBRANCH   5  17
TORSDOF 6
ENDMDL
MODEL 5
REMARK VINA RESULT:      -6.6      1.106      3.054
REMARK  Name = 
REMARK  10 active torsions:
REMARK  status: ('A' for Active; 'I' for Inactive)
REMARK    1  A    between atoms: C_1  and  O_2
REMARK    2  A    between atoms: O_2  and  C_3
REMARK    3  A    between atoms: C_7  and  O_8
REMARK    4  A    between atoms: O_8  and  C_9
REMARK    5  A    between atoms: C_10  and  C_11
REMARK    6  A    between atoms: C_15  and  C_16
REMARK    7  A    between atoms: C_16  and  C_17
REMARK    8  A    between atoms: C_17  and  N_18
REMARK    9  A    between atoms: N_18  and  C_19
REMARK   10  A    between atoms: N_18  and  C_20
REMARK                            x       y       z     vdW  Elec       q    Type
REMARK                         _______ _______ _______ _____ _____    ______ ____
ROOT
ATOM      1  C   UNL     1       4.889   4.864  18.701  0.00  0.00    +0.000 A 
ATOM      2  C   UNL     1       6.107   4.990  19.342  0.00  0.00    +0.000 A 
ATOM      3  N   UNL     1       7.242   5.289  18.674  0.00  0.00    +0.000 NA
ATOM      4  N   UNL     1       7.166   5.472  17.339  0.00  0.00    +0.000 NA
ATOM      5  C   UNL     1       5.970   5.337  16.724  0.00  0.00    +0.000 A 
ATOM      6  N   UNL     1       4.817   5.024  17.358  0.00  0.00    +0.000 NA
ENDROOT
BRANCH   1  12
ATOM      7  C   UNL     1       3.269   3.231  19.781  0.00  0.00    +0.000 A 
ATOM      8  C   UNL     1       2.111   2.962  20.526  0.00  0.00    +0.000 A 
ATOM      9  C   UNL     1       1.234   3.983  20.859  0.00  0.00    +0.000 A 
ATOM     10  C   UNL     1       1.528   5.290  20.488  0.00  0.00    +0.000 A 
ATOM     11  C   UNL     1       2.719   5.595  19.808  0.00  0.00    +0.000 A 
ATOM     12  C   UNL     1       3.620   4.563  19.425  0.00  0.00    +0.000 A 
BRANCH   7  14
ATOM     13  C   UNL     1       3.650   1.355  18.373  0.00  0.00    +0.000 C 
ATOM     14  O   UNL     1       4.125   2.222  19.400  0.00  0.00    +0.000 OA
ENDBRANCH   7  14
BRANCH  11  15
ATOM     15  O   UNL     1       3.069   6.890  19.500  0.00  0.00    +0.000 OA
ATOM     16  C   UNL     1       2.291   7.563  18.515  0.00  0.00    +0.000 C 
ENDBRANCH  11  15
ENDBRANCH   1  12
BRANCH   5  17
ATOM     17  C   UNL     1       5.947   5.446  15.225  0.00  0.00    +0.000 C 
BRANCH  17  18
ATOM     18  C   UNL     1       5.574   4.123  14.540  0.00  0.00    +0.000 C 
BRANCH  18  19
ATOM     19  N   UNL     1       6.491   3.757  13.432  0.00  0.00    +0.000 NA
ATOM     20  C   UNL     1       5.766   3.330  12.233  0.00  0.00    +0.000 C 
ATOM     21  C   UNL     1       7.357   4.891  13.095  0.00  0.00    +0.000 C 
ENDBRANCH  18  19
ENDBRANCH  17  18
ENDBRANCH   5  17
TORSDOF 6
ENDMDL
MODEL 6
REMARK VINA RESULT:      -6.6      1.262      1.561
REMARK  Name = 
REMARK  10 active torsions:
REMARK  status: ('A' for Active; 'I' for Inactive)
REMARK    1  A    between atoms: C_1  and  O_2
REMARK    2  A    between atoms: O_2  and  C_3
REMARK    3  A    between atoms: C_7  and  O_8
REMARK    4  A    between atoms: O_8  and  C_9
REMARK    5  A    between atoms: C_10  and  C_11
REMARK    6  A    between atoms: C_15  and  C_16
REMARK    7  A    between atoms: C_16  and  C_17
REMARK    8  A    between atoms: C_17  and  N_18
REMARK    9  A    between atoms: N_18  and  C_19
REMARK   10  A    between atoms: N_18  and  C_20
REMARK                            x       y       z     vdW  Elec       q    Type
REMARK                         _______ _______ _______ _____ _____    ______ ____
ROOT
ATOM      1  C   UNL     1       5.251   4.716  18.211  0.00  0.00    +0.000 A 
ATOM      2  C   UNL     1       6.210   5.359  18.972  0.00  0.00    +0.000 A 
ATOM      3  N   UNL     1       7.370   5.801  18.441  0.00  0.00    +0.000 NA
ATOM      4  N   UNL     1       7.584   5.603  17.123  0.00  0.00    +0.000 NA
ATOM      5  C   UNL     1       6.641   4.965  16.393  0.00  0.00    +0.000 A 
ATOM      6  N   UNL     1       5.476   4.497  16.893  0.00  0.00    +0.000 NA
ENDROOT
BRANCH   1  12
ATOM      7  C   UNL     1       2.740   4.953  18.525  0.00  0.00    +0.000 A 
ATOM      8  C   UNL     1       1.511   4.467  18.996  0.00  0.00    +0.000 A 
ATOM      9  C   UNL     1       1.458   3.330  19.789  0.00  0.00    +0.000 A 
ATOM     10  C   UNL     1       2.630   2.644  20.083  0.00  0.00    +0.000 A 
ATOM     11  C   UNL     1       3.864   3.067  19.562  0.00  0.00    +0.000 A 
ATOM     12  C   UNL     1       3.951   4.248  18.773  0.00  0.00    +0.000 A 
BRANCH   7  14
ATOM     13  C   UNL     1       2.623   7.327  18.492  0.00  0.00    +0.000 C 
ATOM     14  O   UNL     1       2.816   6.107  17.779  0.00  0.00    +0.000 OA
ENDBRANCH   7  14
BRANCH  11  15
ATOM     15  O   UNL     1       5.025   2.359  19.776  0.00  0.00    +0.000 OA
ATOM     16  C   UNL     1       5.045   1.447  20.868  0.00  0.00    +0.000 C 
ENDBRANCH  11  15
ENDBRANCH   1  12
BRANCH   5  17
ATOM     17  C   UNL     1       6.963   4.674  14.954  0.00  0.00    +0.000 C 
BRANCH  17  18
ATOM     18  C   UNL     1       5.777   4.060  14.195  0.00  0.00    +0.000 C 
BRANCH  18  19
ATOM     19  N   UNL     1       6.159   3.470  12.887  0.00  0.00    +0.000 NA
ATOM     20  C   UNL     1       5.005   3.292  12.004  0.00  0.00    +0.000 C 
ATOM     21  C   UNL     1       7.153   4.318  12.220  0.00  0.00    +0.000 C 
ENDBRANCH  18  19
ENDBRANCH  17  18
ENDBRANCH   5  17
TORSDOF 6
ENDMDL
MODEL 7
REMARK VINA RESULT:      -6.5      0.995      2.940
REMARK  Name = 
REMARK  10 active torsions:
REMARK  status: ('A' for Active; 'I' for Inactive)
REMARK    1  A    between atoms: C_1  and  O_2
REMARK    2  A    between atoms: O_2  and  C_3
REMARK    3  A    between atoms: C_7  and  O_8
REMARK    4  A    between atoms: O_8  and  C_9
REMARK    5  A    between atoms: C_10  and  C_11
REMARK    6  A    between atoms: C_15  and  C_16
REMARK    7  A    between atoms: C_16  and  C_17
REMARK    8  A    between atoms: C_17  and  N_18
REMARK    9  A    between atoms: N_18  and  C_19
REMARK   10  A    between atoms: N_18  and  C_20
REMARK                            x       y       z     vdW  Elec       q    Type
REMARK                         _______ _______ _______ _____ _____    ______ ____
ROOT
ATOM      1  C   UNL     1       5.395   5.529  17.409  0.00  0.00    +0.000 A 
ATOM      2  C   UNL     1       6.469   6.381  17.583  0.00  0.00    +0.000 A 
ATOM      3  N   UNL     1       7.487   6.441  16.697  0.00  0.00    +0.000 NA
ATOM      4  N   UNL     1       7.437   5.641  15.612  0.00  0.00    +0.000 NA
ATOM      5  C   UNL     1       6.383   4.806  15.460  0.00  0.00    +0.000 A 
ATOM      6  N   UNL     1       5.355   4.709  16.332  0.00  0.00    +0.000 NA
ENDROOT
BRANCH   1  12
ATOM      7  C   UNL     1       4.095   4.383  19.268  0.00  0.00    +0.000 A 
ATOM      8  C   UNL     1       3.054   4.369  20.209  0.00  0.00    +0.000 A 
ATOM      9  C   UNL     1       2.098   5.373  20.220  0.00  0.00    +0.000 A 
ATOM     10  C   UNL     1       2.197   6.425  19.317  0.00  0.00    +0.000 A 
ATOM     11  C   UNL     1       3.271   6.502  18.415  0.00  0.00    +0.000 A 
ATOM     12  C   UNL     1       4.247   5.468  18.361  0.00  0.00    +0.000 A 
BRANCH   7  14
ATOM     13  C   UNL     1       4.705   2.188  19.944  0.00  0.00    +0.000 C 
ATOM     14  O   UNL     1       5.024   3.369  19.211  0.00  0.00    +0.000 OA
ENDBRANCH   7  14
BRANCH  11  15
ATOM     15  O   UNL     1       3.432   7.573  17.566  0.00  0.00    +0.000 OA
ATOM     16  C   UNL     1       2.549   8.678  17.729  0.00  0.00    +0.000 C 
ENDBRANCH  11  15
ENDBRANCH   1  12
BRANCH   5  17
ATOM     17  C   UNL     1       6.416   3.859  14.293  0.00  0.00    +0.000 C 
BRANCH  17  18
ATOM     18  C   UNL     1       5.140   3.926  13.440  0.00  0.00    +0.000 C 
BRANCH  18  19
ATOM     19  N   UNL     1       5.357   3.524  12.028  0.00  0.00    +0.000 NA
ATOM     20  C   UNL     1       6.184   2.321  11.917  0.00  0.00    +0.000 C 
ATOM     21  C   UNL     1       4.070   3.289  11.366  0.00  0.00    +0.000 C 
ENDBRANCH  18  19
ENDBRANCH  17  18
ENDBRANCH   5  17
TORSDOF 6
ENDMDL
MODEL 8
REMARK VINA RESULT:      -6.4      1.005      2.990
REMARK  Name = 
REMARK  10 active torsions:
REMARK  status: ('A' for Active; 'I' for Inactive)
REMARK    1  A    between atoms: C_1  and  O_2
REMARK    2  A    between atoms: O_2  and  C_3
REMARK    3  A    between atoms: C_7  and  O_8
REMARK    4  A    between atoms: O_8  and  C_9
REMARK    5  A    between atoms: C_10  and  C_11
REMARK    6  A    between atoms: C_15  and  C_16
REMARK    7  A    between atoms: C_16  and  C_17
REMARK    8  A    between atoms: C_17  and  N_18
REMARK    9  A    between atoms: N_18  and  C_19
REMARK   10  A    between atoms: N_18  and  C_20
REMARK                            x       y       z     vdW  Elec       q    Type
REMARK                         _______ _______ _______ _____ _____    ______ ____
ROOT
ATOM      1  C   UNL     1       5.158   5.687  17.771  0.00  0.00    +0.000 A 
ATOM      2  C   UNL     1       6.439   6.022  18.170  0.00  0.00    +0.000 A 
ATOM      3  N   UNL     1       7.470   6.075  17.301  0.00  0.00    +0.000 NA
ATOM      4  N   UNL     1       7.227   5.791  16.004  0.00  0.00    +0.000 NA
ATOM      5  C   UNL     1       5.972   5.456  15.629  0.00  0.00    +0.000 A 
ATOM      6  N   UNL     1       4.918   5.380  16.473  0.00  0.00    +0.000 NA
ENDROOT
BRANCH   1  12
ATOM      7  C   UNL     1       3.804   4.562  19.603  0.00  0.00    +0.000 A 
ATOM      8  C   UNL     1       2.754   4.570  20.534  0.00  0.00    +0.000 A 
ATOM      9  C   UNL     1       1.830   5.604  20.548  0.00  0.00    +0.000 A 
ATOM     10  C   UNL     1       1.972   6.662  19.658  0.00  0.00    +0.000 A 
ATOM     11  C   UNL     1       3.057   6.716  18.767  0.00  0.00    +0.000 A 
ATOM     12  C   UNL     1       4.000   5.652  18.710  0.00  0.00    +0.000 A 
BRANCH   7  14
ATOM     13  C   UNL     1       4.138   2.209  19.561  0.00  0.00    +0.000 C 
ATOM     14  O   UNL     1       4.701   3.519  19.543  0.00  0.00    +0.000 OA
ENDBRANCH   7  14
BRANCH  11  15
ATOM     15  O   UNL     1       3.260   7.791  17.933  0.00  0.00    +0.000 OA
ATOM     16  C   UNL     1       2.258   8.802  17.909  0.00  0.00    +0.000 C 
ENDBRANCH  11  15
ENDBRANCH   1  12
BRANCH   5  17
ATOM     17  C   UNL     1       5.764   5.048  14.197  0.00  0.00    +0.000 C 
BRANCH  17  18
ATOM     18  C   UNL     1       6.224   3.610  13.919  0.00  0.00    +0.000 C 
BRANCH  18  19
ATOM     19  N   UNL     1       6.271   3.278  12.473  0.00  0.00    +0.000 NA
ATOM     20  C   UNL     1       4.938   3.272  11.865  0.00  0.00    +0.000 C 
ATOM     21  C   UNL     1       7.124   4.235  11.761  0.00  0.00    +0.000 C 
ENDBRANCH  18  19
ENDBRANCH  17  18
ENDBRANCH   5  17
TORSDOF 6
ENDMDL
MODEL 9
REMARK VINA RESULT:      -6.4      1.071      1.302
REMARK  Name = 
REMARK  10 active torsions:
REMARK  status: ('A' for Active; 'I' for Inactive)
REMARK    1  A    between atoms: C_1  and  O_2
REMARK    2  A    between atoms: O_2  and  C_3
REMARK    3  A    between atoms: C_7  and  O_8
REMARK    4  A    between atoms: O_8  and  C_9
REMARK    5  A    between atoms: C_10  and  C_11
REMARK    6  A    between atoms: C_15  and  C_16
REMARK    7  A    between atoms: C_16  and  C_17
REMARK    8  A    between atoms: C_17  and  N_18
REMARK    9  A    between atoms: N_18  and  C_19
REMARK   10  A    between atoms: N_18  and  C_20
REMARK                            x       y       z     vdW  Elec       q    Type
REMARK                         _______ _______ _______ _____ _____    ______ ____
ROOT
ATOM      1  C   UNL     1       5.465   5.684  17.686  0.00  0.00    +0.000 A 
ATOM      2  C   UNL     1       6.541   6.508  17.959  0.00  0.00    +0.000 A 
ATOM      3  N   UNL     1       7.607   6.592  17.134  0.00  0.00    +0.000 NA
ATOM      4  N   UNL     1       7.606   5.843  16.011  0.00  0.00    +0.000 NA
ATOM      5  C   UNL     1       6.551   5.034  15.763  0.00  0.00    +0.000 A 
ATOM      6  N   UNL     1       5.474   4.915  16.571  0.00  0.00    +0.000 NA
ENDROOT
BRANCH   1  12
ATOM      7  C   UNL     1       3.253   6.600  18.538  0.00  0.00    +0.000 A 
ATOM      8  C   UNL     1       2.093   6.477  19.318  0.00  0.00    +0.000 A 
ATOM      9  C   UNL     1       1.944   5.419  20.202  0.00  0.00    +0.000 A 
ATOM     10  C   UNL     1       2.936   4.449  20.284  0.00  0.00    +0.000 A 
ATOM     11  C   UNL     1       4.073   4.508  19.460  0.00  0.00    +0.000 A 
ATOM     12  C   UNL     1       4.265   5.600  18.568  0.00  0.00    +0.000 A 
BRANCH   7  14
ATOM     13  C   UNL     1       2.356   8.595  17.609  0.00  0.00    +0.000 C 
ATOM     14  O   UNL     1       3.438   7.670  17.692  0.00  0.00    +0.000 OA
ENDBRANCH   7  14
BRANCH  11  15
ATOM     15  O   UNL     1       5.029   3.519  19.468  0.00  0.00    +0.000 OA
ATOM     16  C   UNL     1       4.583   2.177  19.631  0.00  0.00    +0.000 C 
ENDBRANCH  11  15
ENDBRANCH   1  12
BRANCH   5  17
ATOM     17  C   UNL     1       6.635   4.141  14.556  0.00  0.00    +0.000 C 
BRANCH  17  18
ATOM     18  C   UNL     1       5.321   4.093  13.763  0.00  0.00    +0.000 C 
BRANCH  18  19
ATOM     19  N   UNL     1       5.399   3.239  12.551  0.00  0.00    +0.000 NA
ATOM     20  C   UNL     1       4.284   3.482  11.633  0.00  0.00    +0.000 C 
ATOM     21  C   UNL     1       6.664   3.471  11.848  0.00  0.00    +0.000 C 
ENDBRANCH  18  19
ENDBRANCH  17  18
ENDBRANCH   5  17
TORSDOF 6
ENDMDL
