MODEL 1
REMARK VINA RESULT:      -6.1      0.000      0.000
REMARK  Name = 
REMARK  8 active torsions:
REMARK  status: ('A' for Active; 'I' for Inactive)
REMARK    1  A    between atoms: C_1  and  N_2
REMARK    2  A    between atoms: N_2  and  C_3
REMARK    3  A    between atoms: N_2  and  C_4
REMARK    4  A    between atoms: N_2  and  C_5
REMARK    5  A    between atoms: C_5  and  C_6
REMARK    6  A    between atoms: C_6  and  C_7
REMARK    7  A    between atoms: C_7  and  S_8
REMARK    8  A    between atoms: S_8  and  C_9
REMARK                            x       y       z     vdW  Elec       q    Type
REMARK                         _______ _______ _______ _____ _____    ______ ____
ROOT
ATOM      1  C   UNL     1       6.881   4.834  16.257  0.00  0.00    +0.000 A 
ATOM      2  N   UNL     1       7.596   5.503  15.384  0.00  0.00    +0.000 NA
ATOM      3  C   UNL     1       7.260   4.941  14.170  0.00  0.00    +0.000 A 
ATOM      4  C   UNL     1       7.758   5.206  12.886  0.00  0.00    +0.000 A 
ATOM      5  C   UNL     1       7.242   4.482  11.802  0.00  0.00    +0.000 A 
ATOM      6  C   UNL     1       6.245   3.519  11.989  0.00  0.00    +0.000 A 
ATOM      7  C   UNL     1       5.742   3.234  13.261  0.00  0.00    +0.000 A 
ATOM      8  C   UNL     1       6.283   3.959  14.323  0.00  0.00    +0.000 A 
ATOM      9  N   UNL     1       6.068   3.912  15.674  0.00  0.00    +0.000 N 
ATOM     10  H   UNL     1       5.448   3.281  16.164  0.00  0.00    +0.000 HD
ENDROOT
BRANCH   1  11
ATOM     11  S   UNL     1       6.919   4.967  17.970  0.00  0.00    +0.000 S 
BRANCH  11  12
ATOM     12  C   UNL     1       5.169   5.288  18.344  0.00  0.00    +0.000 C 
BRANCH  12  13
ATOM     13  C   UNL     1       4.613   4.020  18.995  0.00  0.00    +0.000 C 
BRANCH  13  14
ATOM     14  C   UNL     1       3.293   4.272  19.721  0.00  0.00    +0.000 C 
BRANCH  14  16
ATOM     15  C   UNL     1       0.940   3.510  20.067  0.00  0.00    +0.000 C 
ATOM     16  N   UNL     1       2.097   3.532  19.064  0.00  0.00    +0.000 N 
ATOM     17  C   UNL     1       2.452   2.087  18.723  0.00  0.00    +0.000 C 
ATOM     18  C   UNL     1       1.613   4.249  17.806  0.00  0.00    +0.000 C 
ENDBRANCH  14  16
ENDBRANCH  13  14
ENDBRANCH  12  13
ENDBRANCH  11  12
ENDBRANCH   1  11
TORSDOF 5
ENDMDL
MODEL 2
REMARK VINA RESULT:      -6.1      0.585      1.772
REMARK  Name = 
REMARK  8 active torsions:
REMARK  status: ('A' for Active; 'I' for Inactive)
REMARK    1  A    between atoms: C_1  and  N_2
REMARK    2  A    between atoms: N_2  and  C_3
REMARK    3  A    between atoms: N_2  and  C_4
REMARK    4  A    between atoms: N_2  and  C_5
REMARK    5  A    between atoms: C_5  and  C_6
REMARK    6  A    between atoms: C_6  and  C_7
REMARK    7  A    between atoms: C_7  and  S_8
REMARK    8  A    between atoms: S_8  and  C_9
REMARK                            x       y       z     vdW  Elec       q    Type
REMARK                         _______ _______ _______ _____ _____    ______ ____
ROOT
ATOM      1  C   UNL     1       6.486   5.164  16.275  0.00  0.00    +0.000 A 
ATOM      2  N   UNL     1       5.676   4.282  15.739  0.00  0.00    +0.000 NA
ATOM      3  C   UNL     1       6.086   4.200  14.425  0.00  0.00    +0.000 A 
ATOM      4  C   UNL     1       5.550   3.467  13.357  0.00  0.00    +0.000 A 
ATOM      5  C   UNL     1       6.164   3.561  12.100  0.00  0.00    +0.000 A 
ATOM      6  C   UNL     1       7.293   4.363  11.910  0.00  0.00    +0.000 A 
ATOM      7  C   UNL     1       7.839   5.108  12.959  0.00  0.00    +0.000 A 
ATOM      8  C   UNL     1       7.200   5.007  14.195  0.00  0.00    +0.000 A 
ATOM      9  N   UNL     1       7.425   5.615  15.401  0.00  0.00    +0.000 N 
ATOM     10  H   UNL     1       8.134   6.306  15.603  0.00  0.00    +0.000 HD
ENDROOT
BRANCH   1  11
ATOM     11  S   UNL     1       6.435   5.806  17.868  0.00  0.00    +0.000 S 
BRANCH  11  12
ATOM     12  C   UNL     1       5.611   4.461  18.772  0.00  0.00    +0.000 C 
BRANCH  12  13
ATOM     13  C   UNL     1       4.196   4.943  19.095  0.00  0.00    +0.000 C 
BRANCH  13  14
ATOM     14  C   UNL     1       3.333   3.842  19.709  0.00  0.00    +0.000 C 
BRANCH  14  16
ATOM     15  C   UNL     1       1.823   4.526  17.841  0.00  0.00    +0.000 C 
ATOM     16  N   UNL     1       2.211   3.358  18.753  0.00  0.00    +0.000 N 
ATOM     17  C   UNL     1       0.966   2.928  19.524  0.00  0.00    +0.000 C 
ATOM     18  C   UNL     1       2.682   2.208  17.866  0.00  0.00    +0.000 C 
ENDBRANCH  14  16
ENDBRANCH  13  14
ENDBRANCH  12  13
ENDBRANCH  11  12
ENDBRANCH   1  11
TORSDOF 5
ENDMDL
MODEL 3
REMARK VINA RESULT:      -6.1      0.994      2.050
REMARK  Name = 
REMARK  8 active torsions:
REMARK  status: ('A' for Active; 'I' for Inactive)
REMARK    1  A    between atoms: C_1  and  N_2
REMARK    2  A    between atoms: N_2  and  C_3
REMARK    3  A    between atoms: N_2  and  C_4
REMARK    4  A    between atoms: N_2  and  C_5
REMARK    5  A    between atoms: C_5  and  C_6
REMARK    6  A    between atoms: C_6  and  C_7
REMARK    7  A    between atoms: C_7  and  S_8
REMARK    8  A    between atoms: S_8  and  C_9
REMARK                            x       y       z     vdW  Elec       q    Type
REMARK                         _______ _______ _______ _____ _____    ______ ____
ROOT
ATOM      1  C   UNL     1       6.055   5.036  16.279  0.00  0.00    +0.000 A 
ATOM      2  N   UNL     1       5.353   4.151  15.611  0.00  0.00    +0.000 NA
ATOM      3  C   UNL     1       5.929   4.139  14.358  0.00  0.00    +0.000 A 
ATOM      4  C   UNL     1       5.561   3.433  13.204  0.00  0.00    +0.000 A 
ATOM      5  C   UNL     1       6.324   3.601  12.040  0.00  0.00    +0.000 A 
ATOM      6  C   UNL     1       7.437   4.449  12.026  0.00  0.00    +0.000 A 
ATOM      7  C   UNL     1       7.816   5.167  13.163  0.00  0.00    +0.000 A 
ATOM      8  C   UNL     1       7.031   4.991  14.303  0.00  0.00    +0.000 A 
ATOM      9  N   UNL     1       7.078   5.555  15.549  0.00  0.00    +0.000 N 
ATOM     10  H   UNL     1       7.728   6.261  15.867  0.00  0.00    +0.000 HD
ENDROOT
BRANCH   1  11
ATOM     11  S   UNL     1       5.778   5.608  17.876  0.00  0.00    +0.000 S 
BRANCH  11  12
ATOM     12  C   UNL     1       4.145   6.385  17.702  0.00  0.00    +0.000 C 
BRANCH  12  13
ATOM     13  C   UNL     1       3.186   5.618  18.615  0.00  0.00    +0.000 C 
BRANCH  13  14
ATOM     14  C   UNL     1       2.453   4.499  17.878  0.00  0.00    +0.000 C 
BRANCH  14  16
ATOM     15  C   UNL     1       3.308   2.153  17.927  0.00  0.00    +0.000 C 
ATOM     16  N   UNL     1       2.436   3.167  18.674  0.00  0.00    +0.000 N 
ATOM     17  C   UNL     1       1.026   2.592  18.775  0.00  0.00    +0.000 C 
ATOM     18  C   UNL     1       3.016   3.341  20.076  0.00  0.00    +0.000 C 
ENDBRANCH  14  16
ENDBRANCH  13  14
ENDBRANCH  12  13
ENDBRANCH  11  12
ENDBRANCH   1  11
TORSDOF 5
ENDMDL
MODEL 4
REMARK VINA RESULT:      -6.1      0.866      1.092
REMARK  Name = 
REMARK  8 active torsions:
REMARK  status: ('A' for Active; 'I' for Inactive)
REMARK    1  A    between atoms: C_1  and  N_2
REMARK    2  A    between atoms: N_2  and  C_3
REMARK    3  A    between atoms: N_2  and  C_4
REMARK    4  A    between atoms: N_2  and  C_5
REMARK    5  A    between atoms: C_5  and  C_6
REMARK    6  A    between atoms: C_6  and  C_7
REMARK    7  A    between atoms: C_7  and  S_8
REMARK    8  A    between atoms: S_8  and  C_9
REMARK                            x       y       z     vdW  Elec       q    Type
REMARK                         _______ _______ _______ _____ _____    ______ ____
ROOT
ATOM      1  C   UNL     1       6.572   4.804  16.311  0.00  0.00    +0.000 A 
ATOM      2  N   UNL     1       7.397   5.458  15.528  0.00  0.00    +0.000 NA
ATOM      3  C   UNL     1       7.164   4.931  14.275  0.00  0.00    +0.000 A 
ATOM      4  C   UNL     1       7.798   5.198  13.053  0.00  0.00    +0.000 A 
ATOM      5  C   UNL     1       7.366   4.515  11.908  0.00  0.00    +0.000 A 
ATOM      6  C   UNL     1       6.319   3.590  11.974  0.00  0.00    +0.000 A 
ATOM      7  C   UNL     1       5.680   3.304  13.183  0.00  0.00    +0.000 A 
ATOM      8  C   UNL     1       6.139   3.988  14.309  0.00  0.00    +0.000 A 
ATOM      9  N   UNL     1       5.787   3.926  15.631  0.00  0.00    +0.000 N 
ATOM     10  H   UNL     1       5.097   3.313  16.042  0.00  0.00    +0.000 HD
ENDROOT
BRANCH   1  11
ATOM     11  S   UNL     1       6.443   4.905  18.021  0.00  0.00    +0.000 S 
BRANCH  11  12
ATOM     12  C   UNL     1       4.731   5.485  18.219  0.00  0.00    +0.000 C 
BRANCH  12  13
ATOM     13  C   UNL     1       4.238   4.965  19.570  0.00  0.00    +0.000 C 
BRANCH  13  14
ATOM     14  C   UNL     1       3.457   3.659  19.440  0.00  0.00    +0.000 C 
BRANCH  14  16
ATOM     15  C   UNL     1       2.309   2.910  21.528  0.00  0.00    +0.000 C 
ATOM     16  N   UNL     1       2.115   3.683  20.219  0.00  0.00    +0.000 N 
ATOM     17  C   UNL     1       0.998   3.003  19.432  0.00  0.00    +0.000 C 
ATOM     18  C   UNL     1       1.694   5.107  20.574  0.00  0.00    +0.000 C 
ENDBRANCH  14  16
ENDBRANCH  13  14
ENDBRANCH  12  13
ENDBRANCH  11  12
ENDBRANCH   1  11
TORSDOF 5
ENDMDL
MODEL 5
REMARK VINA RESULT:      -6.0      0.739      1.734
REMARK  Name = 
REMARK  8 active torsions:
REMARK  status: ('A' for Active; 'I' for Inactive)
REMARK    1  A    between atoms: C_1  and  N_2
REMARK    2  A    between atoms: N_2  and  C_3
REMARK    3  A    between atoms: N_2  and  C_4
REMARK    4  A    between atoms: N_2  and  C_5
REMARK    5  A    between atoms: C_5  and  C_6
REMARK    6  A    between atoms: C_6  and  C_7
REMARK    7  A    between atoms: C_7  and  S_8
REMARK    8  A    between atoms: S_8  and  C_9
REMARK                            x       y       z     vdW  Elec       q    Type
REMARK                         _______ _______ _______ _____ _____    ______ ____
ROOT
ATOM      1  C   UNL     1       6.671   4.990  16.277  0.00  0.00    +0.000 A 
ATOM      2  N   UNL     1       5.920   4.052  15.751  0.00  0.00    +0.000 NA
ATOM      3  C   UNL     1       6.267   4.049  14.416  0.00  0.00    +0.000 A 
ATOM      4  C   UNL     1       5.747   3.299  13.352  0.00  0.00    +0.000 A 
ATOM      5  C   UNL     1       6.282   3.490  12.070  0.00  0.00    +0.000 A 
ATOM      6  C   UNL     1       7.320   4.402  11.852  0.00  0.00    +0.000 A 
ATOM      7  C   UNL     1       7.847   5.164  12.899  0.00  0.00    +0.000 A 
ATOM      8  C   UNL     1       7.286   4.964  14.160  0.00  0.00    +0.000 A 
ATOM      9  N   UNL     1       7.516   5.555  15.374  0.00  0.00    +0.000 N 
ATOM     10  H   UNL     1       8.166   6.304  15.565  0.00  0.00    +0.000 HD
ENDROOT
BRANCH   1  11
ATOM     11  S   UNL     1       6.643   5.576  17.892  0.00  0.00    +0.000 S 
BRANCH  11  12
ATOM     12  C   UNL     1       4.879   5.959  18.106  0.00  0.00    +0.000 C 
BRANCH  12  13
ATOM     13  C   UNL     1       4.429   5.277  19.400  0.00  0.00    +0.000 C 
BRANCH  13  14
ATOM     14  C   UNL     1       3.811   3.903  19.147  0.00  0.00    +0.000 C 
BRANCH  14  16
ATOM     15  C   UNL     1       2.006   2.588  20.265  0.00  0.00    +0.000 C 
ATOM     16  N   UNL     1       2.293   3.862  19.463  0.00  0.00    +0.000 N 
ATOM     17  C   UNL     1       1.457   3.813  18.187  0.00  0.00    +0.000 C 
ATOM     18  C   UNL     1       1.860   5.055  20.310  0.00  0.00    +0.000 C 
ENDBRANCH  14  16
ENDBRANCH  13  14
ENDBRANCH  12  13
ENDBRANCH  11  12
ENDBRANCH   1  11
TORSDOF 5
ENDMDL
MODEL 6
REMARK VINA RESULT:      -6.0      0.911      1.726
REMARK  Name = 
REMARK  8 active torsions:
REMARK  status: ('A' for Active; 'I' for Inactive)
REMARK    1  A    between atoms: C_1  and  N_2
REMARK    2  A    between atoms: N_2  and  C_3
REMARK    3  A    between atoms: N_2  and  C_4
REMARK    4  A    between atoms: N_2  and  C_5
REMARK    5  A    between atoms: C_5  and  C_6
REMARK    6  A    between atoms: C_6  and  C_7
REMARK    7  A    between atoms: C_7  and  S_8
REMARK    8  A    between atoms: S_8  and  C_9
REMARK                            x       y       z     vdW  Elec       q    Type
REMARK                         _______ _______ _______ _____ _____    ______ ____
ROOT
ATOM      1  C   UNL     1       6.312   4.949  16.284  0.00  0.00    +0.000 A 
ATOM      2  N   UNL     1       5.598   4.039  15.664  0.00  0.00    +0.000 NA
ATOM      3  C   UNL     1       6.081   4.054  14.371  0.00  0.00    +0.000 A 
ATOM      4  C   UNL     1       5.656   3.338  13.243  0.00  0.00    +0.000 A 
ATOM      5  C   UNL     1       6.324   3.539  12.027  0.00  0.00    +0.000 A 
ATOM      6  C   UNL     1       7.399   4.430  11.937  0.00  0.00    +0.000 A 
ATOM      7  C   UNL     1       7.833   5.158  13.047  0.00  0.00    +0.000 A 
ATOM      8  C   UNL     1       7.141   4.949  14.240  0.00  0.00    +0.000 A 
ATOM      9  N   UNL     1       7.258   5.510  15.484  0.00  0.00    +0.000 N 
ATOM     10  H   UNL     1       7.901   6.240  15.757  0.00  0.00    +0.000 HD
ENDROOT
BRANCH   1  11
ATOM     11  S   UNL     1       6.132   5.505  17.900  0.00  0.00    +0.000 S 
BRANCH  11  12
ATOM     12  C   UNL     1       4.646   6.542  17.760  0.00  0.00    +0.000 C 
BRANCH  12  13
ATOM     13  C   UNL     1       3.472   5.711  18.282  0.00  0.00    +0.000 C 
BRANCH  13  14
ATOM     14  C   UNL     1       3.929   4.546  19.157  0.00  0.00    +0.000 C 
BRANCH  14  16
ATOM     15  C   UNL     1       2.830   2.747  20.497  0.00  0.00    +0.000 C 
ATOM     16  N   UNL     1       2.967   3.331  19.087  0.00  0.00    +0.000 N 
ATOM     17  C   UNL     1       3.513   2.235  18.175  0.00  0.00    +0.000 C 
ATOM     18  C   UNL     1       1.574   3.740  18.613  0.00  0.00    +0.000 C 
ENDBRANCH  14  16
ENDBRANCH  13  14
ENDBRANCH  12  13
ENDBRANCH  11  12
ENDBRANCH   1  11
TORSDOF 5
ENDMDL
MODEL 7
REMARK VINA RESULT:      -6.0      0.958      1.466
REMARK  Name = 
REMARK  8 active torsions:
REMARK  status: ('A' for Active; 'I' for Inactive)
REMARK    1  A    between atoms: C_1  and  N_2
REMARK    2  A    between atoms: N_2  and  C_3
REMARK    3  A    between atoms: N_2  and  C_4
REMARK    4  A    between atoms: N_2  and  C_5
REMARK    5  A    between atoms: C_5  and  C_6
REMARK    6  A    between atoms: C_6  and  C_7
REMARK    7  A    between atoms: C_7  and  S_8
REMARK    8  A    between atoms: S_8  and  C_9
REMARK                            x       y       z     vdW  Elec       q    Type
REMARK                         _______ _______ _______ _____ _____    ______ ____
ROOT
ATOM      1  C   UNL     1       6.270   4.975  16.283  0.00  0.00    +0.000 A 
ATOM      2  N   UNL     1       7.208   5.530  15.553  0.00  0.00    +0.000 NA
ATOM      3  C   UNL     1       7.043   4.969  14.304  0.00  0.00    +0.000 A 
ATOM      4  C   UNL     1       7.799   5.134  13.135  0.00  0.00    +0.000 A 
ATOM      5  C   UNL     1       7.414   4.437  11.981  0.00  0.00    +0.000 A 
ATOM      6  C   UNL     1       6.295   3.598  11.987  0.00  0.00    +0.000 A 
ATOM      7  C   UNL     1       5.533   3.414  13.144  0.00  0.00    +0.000 A 
ATOM      8  C   UNL     1       5.947   4.109  14.281  0.00  0.00    +0.000 A 
ATOM      9  N   UNL     1       5.479   4.131  15.567  0.00  0.00    +0.000 N 
ATOM     10  H   UNL     1       4.710   3.590  15.938  0.00  0.00    +0.000 HD
ENDROOT
BRANCH   1  11
ATOM     11  S   UNL     1       6.002   5.160  17.970  0.00  0.00    +0.000 S 
BRANCH  11  12
ATOM     12  C   UNL     1       4.516   6.205  17.986  0.00  0.00    +0.000 C 
BRANCH  12  13
ATOM     13  C   UNL     1       3.495   5.516  18.894  0.00  0.00    +0.000 C 
BRANCH  13  14
ATOM     14  C   UNL     1       3.188   4.089  18.443  0.00  0.00    +0.000 C 
BRANCH  14  16
ATOM     15  C   UNL     1       1.887   2.094  19.196  0.00  0.00    +0.000 C 
ATOM     16  N   UNL     1       2.930   3.128  19.633  0.00  0.00    +0.000 N 
ATOM     17  C   UNL     1       2.376   3.872  20.845  0.00  0.00    +0.000 C 
ATOM     18  C   UNL     1       4.196   2.374  20.034  0.00  0.00    +0.000 C 
ENDBRANCH  14  16
ENDBRANCH  13  14
ENDBRANCH  12  13
ENDBRANCH  11  12
ENDBRANCH   1  11
TORSDOF 5
ENDMDL
MODEL 8
REMARK VINA RESULT:      -6.0      0.902      1.151
REMARK  Name = 
REMARK  8 active torsions:
REMARK  status: ('A' for Active; 'I' for Inactive)
REMARK    1  A    between atoms: C_1  and  N_2
REMARK    2  A    between atoms: N_2  and  C_3
REMARK    3  A    between atoms: N_2  and  C_4
REMARK    4  A    between atoms: N_2  and  C_5
REMARK    5  A    between atoms: C_5  and  C_6
REMARK    6  A    between atoms: C_6  and  C_7
REMARK    7  A    between atoms: C_7  and  S_8
REMARK    8  A    between atoms: S_8  and  C_9
REMARK                            x       y       z     vdW  Elec       q    Type
REMARK                         _______ _______ _______ _____ _____    ______ ____
ROOT
ATOM      1  C   UNL     1       6.453   4.779  16.252  0.00  0.00    +0.000 A 
ATOM      2  N   UNL     1       7.326   5.431  15.522  0.00  0.00    +0.000 NA
ATOM      3  C   UNL     1       7.149   4.925  14.250  0.00  0.00    +0.000 A 
ATOM      4  C   UNL     1       7.849   5.199  13.066  0.00  0.00    +0.000 A 
ATOM      5  C   UNL     1       7.466   4.538  11.891  0.00  0.00    +0.000 A 
ATOM      6  C   UNL     1       6.404   3.628  11.891  0.00  0.00    +0.000 A 
ATOM      7  C   UNL     1       5.699   3.336  13.061  0.00  0.00    +0.000 A 
ATOM      8  C   UNL     1       6.110   3.997  14.219  0.00  0.00    +0.000 A 
ATOM      9  N   UNL     1       5.691   3.923  15.520  0.00  0.00    +0.000 N 
ATOM     10  H   UNL     1       4.972   3.314  15.887  0.00  0.00    +0.000 HD
ENDROOT
BRANCH   1  11
ATOM     11  S   UNL     1       6.238   4.859  17.955  0.00  0.00    +0.000 S 
BRANCH  11  12
ATOM     12  C   UNL     1       4.894   6.075  18.091  0.00  0.00    +0.000 C 
BRANCH  12  13
ATOM     13  C   UNL     1       3.798   5.435  18.944  0.00  0.00    +0.000 C 
BRANCH  13  14
ATOM     14  C   UNL     1       3.387   4.058  18.424  0.00  0.00    +0.000 C 
BRANCH  14  16
ATOM     15  C   UNL     1       2.489   3.868  20.747  0.00  0.00    +0.000 C 
ATOM     16  N   UNL     1       3.043   3.065  19.565  0.00  0.00    +0.000 N 
ATOM     17  C   UNL     1       4.280   2.313  20.046  0.00  0.00    +0.000 C 
ATOM     18  C   UNL     1       1.972   2.064  19.138  0.00  0.00    +0.000 C 
ENDBRANCH  14  16
ENDBRANCH  13  14
ENDBRANCH  12  13
ENDBRANCH  11  12
ENDBRANCH   1  11
TORSDOF 5
ENDMDL
MODEL 9
REMARK VINA RESULT:      -6.0      3.236      4.217
REMARK  Name = 
REMARK  8 active torsions:
REMARK  status: ('A' for Active; 'I' for Inactive)
REMARK    1  A    between atoms: C_1  and  N_2
REMARK    2  A    between atoms: N_2  and  C_3
REMARK    3  A    between atoms: N_2  and  C_4
REMARK    4  A    between atoms: N_2  and  C_5
REMARK    5  A    between atoms: C_5  and  C_6
REMARK    6  A    between atoms: C_6  and  C_7
REMARK    7  A    between atoms: C_7  and  S_8
REMARK    8  A    between atoms: S_8  and  C_9
REMARK                            x       y       z     vdW  Elec       q    Type
REMARK                         _______ _______ _______ _____ _____    ______ ____
ROOT
ATOM      1  C   UNL     1       4.914   4.032  17.579  0.00  0.00    +0.000 A 
ATOM      2  N   UNL     1       4.973   5.096  16.813  0.00  0.00    +0.000 NA
ATOM      3  C   UNL     1       6.017   5.831  17.335  0.00  0.00    +0.000 A 
ATOM      4  C   UNL     1       6.503   7.094  16.967  0.00  0.00    +0.000 A 
ATOM      5  C   UNL     1       7.591   7.627  17.671  0.00  0.00    +0.000 A 
ATOM      6  C   UNL     1       8.190   6.916  18.716  0.00  0.00    +0.000 A 
ATOM      7  C   UNL     1       7.717   5.660  19.103  0.00  0.00    +0.000 A 
ATOM      8  C   UNL     1       6.624   5.159  18.395  0.00  0.00    +0.000 A 
ATOM      9  N   UNL     1       5.887   4.013  18.528  0.00  0.00    +0.000 N 
ATOM     10  H   UNL     1       6.012   3.295  19.229  0.00  0.00    +0.000 HD
ENDROOT
BRANCH   1  11
ATOM     11  S   UNL     1       3.753   2.767  17.532  0.00  0.00    +0.000 S 
BRANCH  11  12
ATOM     12  C   UNL     1       2.231   3.689  17.161  0.00  0.00    +0.000 C 
BRANCH  12  13
ATOM     13  C   UNL     1       1.381   3.676  18.433  0.00  0.00    +0.000 C 
BRANCH  13  14
ATOM     14  C   UNL     1       1.770   2.543  19.380  0.00  0.00    +0.000 C 
BRANCH  14  16
ATOM     15  C   UNL     1       3.631   2.457  21.042  0.00  0.00    +0.000 C 
ATOM     16  N   UNL     1       2.249   3.055  20.764  0.00  0.00    +0.000 N 
ATOM     17  C   UNL     1       1.309   2.611  21.882  0.00  0.00    +0.000 C 
ATOM     18  C   UNL     1       2.384   4.576  20.786  0.00  0.00    +0.000 C 
ENDBRANCH  14  16
ENDBRANCH  13  14
ENDBRANCH  12  13
ENDBRANCH  11  12
ENDBRANCH   1  11
TORSDOF 5
ENDMDL
