MODEL 1
REMARK VINA RESULT:      -8.1      0.000      0.000
REMARK  Name = 
REMARK  4 active torsions:
REMARK  status: ('A' for Active; 'I' for Inactive)
REMARK    1  A    between atoms: C_2  and  C_3
REMARK    2  A    between atoms: C_2  and  C_9
REMARK    3  A    between atoms: C_14  and  O_15
REMARK    4  A    between atoms: O_15  and  C_16
REMARK                            x       y       z     vdW  Elec       q    Type
REMARK                         _______ _______ _______ _____ _____    ______ ____
ROOT
ATOM      1  C   UNL     1       5.242   5.167  17.696  0.00  0.00    +0.000 C 
ATOM      2  C   UNL     1       5.274   5.289  19.213  0.00  0.00    +0.000 C 
ATOM      3  O   UNL     1       3.965   5.552  19.722  0.00  0.00    +0.000 OA
ATOM      4  C   UNL     1       3.341   6.611  19.117  0.00  0.00    +0.000 A 
ATOM      5  C   UNL     1       2.247   7.137  19.799  0.00  0.00    +0.000 A 
ATOM      6  C   UNL     1       1.615   8.287  19.325  0.00  0.00    +0.000 A 
ATOM      7  C   UNL     1       2.011   8.837  18.104  0.00  0.00    +0.000 A 
ATOM      8  C   UNL     1       3.066   8.266  17.383  0.00  0.00    +0.000 A 
ATOM      9  C   UNL     1       3.741   7.147  17.885  0.00  0.00    +0.000 A 
ATOM     10  C   UNL     1       4.891   6.539  17.121  0.00  0.00    +0.000 C 
ENDROOT
BRANCH   1  12
ATOM     11  O   UNL     1       7.443   4.260  18.001  0.00  0.00    +0.000 OA
ATOM     12  C   UNL     1       6.581   4.641  17.206  0.00  0.00    +0.000 C 
BRANCH  12  13
ATOM     13  C   UNL     1       6.731   4.578  15.762  0.00  0.00    +0.000 A 
ATOM     14  N   UNL     1       7.583   5.280  15.037  0.00  0.00    +0.000 NA
ATOM     15  C   UNL     1       7.307   4.898  13.746  0.00  0.00    +0.000 A 
ATOM     16  C   UNL     1       6.280   3.985  13.738  0.00  0.00    +0.000 A 
ATOM     17  I   UNL     1       5.439   3.128  12.103  0.00  0.00    +0.000 I 
ATOM     18  O   UNL     1       5.906   3.759  15.031  0.00  0.00    +0.000 OA
ENDBRANCH  12  13
ENDBRANCH   1  12
BRANCH   6  19
ATOM     19  O   UNL     1       0.575   8.916  19.975  0.00  0.00    +0.000 OA
BRANCH  19  20
ATOM     20  C   UNL     1       0.202  10.182  19.577  0.00  0.00    +0.000 A 
ATOM     21  C   UNL     1       0.879  11.348  19.949  0.00  0.00    +0.000 A 
ATOM     22  C   UNL     1       0.406  12.594  19.540  0.00  0.00    +0.000 A 
ATOM     23  C   UNL     1      -0.710  12.676  18.708  0.00  0.00    +0.000 A 
ATOM     24  C   UNL     1      -1.348  11.512  18.280  0.00  0.00    +0.000 A 
ATOM     25  C   UNL     1      -0.893  10.266  18.715  0.00  0.00    +0.000 A 
ENDBRANCH  19  20
ENDBRANCH   6  19
TORSDOF 4
ENDMDL
MODEL 2
REMARK VINA RESULT:      -8.1      4.150      8.824
REMARK  Name = 
REMARK  4 active torsions:
REMARK  status: ('A' for Active; 'I' for Inactive)
REMARK    1  A    between atoms: C_2  and  C_3
REMARK    2  A    between atoms: C_2  and  C_9
REMARK    3  A    between atoms: C_14  and  O_15
REMARK    4  A    between atoms: O_15  and  C_16
REMARK                            x       y       z     vdW  Elec       q    Type
REMARK                         _______ _______ _______ _____ _____    ______ ____
ROOT
ATOM      1  C   UNL     1       0.848   9.998  18.882  0.00  0.00    +0.000 C 
ATOM      2  C   UNL     1       2.093  10.044  18.008  0.00  0.00    +0.000 C 
ATOM      3  O   UNL     1       2.343   8.763  17.424  0.00  0.00    +0.000 OA
ATOM      4  C   UNL     1       2.368   7.739  18.333  0.00  0.00    +0.000 A 
ATOM      5  C   UNL     1       2.957   6.556  17.892  0.00  0.00    +0.000 A 
ATOM      6  C   UNL     1       3.135   5.493  18.778  0.00  0.00    +0.000 A 
ATOM      7  C   UNL     1       2.616   5.579  20.072  0.00  0.00    +0.000 A 
ATOM      8  C   UNL     1       1.962   6.742  20.493  0.00  0.00    +0.000 A 
ATOM      9  C   UNL     1       1.833   7.833  19.625  0.00  0.00    +0.000 A 
ATOM     10  C   UNL     1       1.146   9.097  20.080  0.00  0.00    +0.000 C 
ENDROOT
BRANCH   1  12
ATOM     11  O   UNL     1       1.322  12.244  19.581  0.00  0.00    +0.000 OA
ATOM     12  C   UNL     1       0.463  11.413  19.281  0.00  0.00    +0.000 C 
BRANCH  12  13
ATOM     13  C   UNL     1      -0.959  11.706  19.230  0.00  0.00    +0.000 A 
ATOM     14  N   UNL     1      -1.663  12.319  20.166  0.00  0.00    +0.000 NA
ATOM     15  C   UNL     1      -2.944  12.313  19.669  0.00  0.00    +0.000 A 
ATOM     16  C   UNL     1      -2.970  11.678  18.451  0.00  0.00    +0.000 A 
ATOM     17  I   UNL     1      -4.607  11.344  17.298  0.00  0.00    +0.000 I 
ATOM     18  O   UNL     1      -1.697  11.291  18.148  0.00  0.00    +0.000 OA
ENDBRANCH  12  13
ENDBRANCH   1  12
BRANCH   6  19
ATOM     19  O   UNL     1       3.773   4.316  18.447  0.00  0.00    +0.000 OA
BRANCH  19  20
ATOM     20  C   UNL     1       4.924   4.368  17.689  0.00  0.00    +0.000 A 
ATOM     21  C   UNL     1       6.184   4.687  18.204  0.00  0.00    +0.000 A 
ATOM     22  C   UNL     1       7.289   4.763  17.357  0.00  0.00    +0.000 A 
ATOM     23  C   UNL     1       7.150   4.463  16.003  0.00  0.00    +0.000 A 
ATOM     24  C   UNL     1       5.908   4.079  15.497  0.00  0.00    +0.000 A 
ATOM     25  C   UNL     1       4.795   4.033  16.340  0.00  0.00    +0.000 A 
ENDBRANCH  19  20
ENDBRANCH   6  19
TORSDOF 4
ENDMDL
MODEL 3
REMARK VINA RESULT:      -8.0      4.949      9.084
REMARK  Name = 
REMARK  4 active torsions:
REMARK  status: ('A' for Active; 'I' for Inactive)
REMARK    1  A    between atoms: C_2  and  C_3
REMARK    2  A    between atoms: C_2  and  C_9
REMARK    3  A    between atoms: C_14  and  O_15
REMARK    4  A    between atoms: O_15  and  C_16
REMARK                            x       y       z     vdW  Elec       q    Type
REMARK                         _______ _______ _______ _____ _____    ______ ____
ROOT
ATOM      1  C   UNL     1      -0.043  11.412  19.625  0.00  0.00    +0.000 C 
ATOM      2  C   UNL     1      -0.724  10.343  20.466  0.00  0.00    +0.000 C 
ATOM      3  O   UNL     1       0.239   9.419  20.978  0.00  0.00    +0.000 OA
ATOM      4  C   UNL     1       1.065   8.895  20.018  0.00  0.00    +0.000 A 
ATOM      5  C   UNL     1       1.759   7.744  20.383  0.00  0.00    +0.000 A 
ATOM      6  C   UNL     1       2.535   7.069  19.440  0.00  0.00    +0.000 A 
ATOM      7  C   UNL     1       2.703   7.617  18.167  0.00  0.00    +0.000 A 
ATOM      8  C   UNL     1       2.060   8.811  17.822  0.00  0.00    +0.000 A 
ATOM      9  C   UNL     1       1.234   9.461  18.747  0.00  0.00    +0.000 A 
ATOM     10  C   UNL     1       0.523  10.738  18.375  0.00  0.00    +0.000 C 
ENDROOT
BRANCH   1  12
ATOM     11  O   UNL     1      -0.787  13.693  19.556  0.00  0.00    +0.000 OA
ATOM     12  C   UNL     1      -1.042  12.513  19.307  0.00  0.00    +0.000 C 
BRANCH  12  13
ATOM     13  C   UNL     1      -2.264  12.072  18.656  0.00  0.00    +0.000 A 
ATOM     14  N   UNL     1      -2.373  11.655  17.406  0.00  0.00    +0.000 NA
ATOM     15  C   UNL     1      -3.716  11.399  17.263  0.00  0.00    +0.000 A 
ATOM     16  C   UNL     1      -4.374  11.687  18.434  0.00  0.00    +0.000 A 
ATOM     17  I   UNL     1      -6.370  11.538  18.766  0.00  0.00    +0.000 I 
ATOM     18  O   UNL     1      -3.451  12.110  19.345  0.00  0.00    +0.000 OA
ENDBRANCH  12  13
ENDBRANCH   1  12
BRANCH   6  19
ATOM     19  O   UNL     1       3.195   5.886  19.694  0.00  0.00    +0.000 OA
BRANCH  19  20
ATOM     20  C   UNL     1       2.550   4.692  19.449  0.00  0.00    +0.000 A 
ATOM     21  C   UNL     1       2.642   3.989  18.244  0.00  0.00    +0.000 A 
ATOM     22  C   UNL     1       1.917   2.812  18.062  0.00  0.00    +0.000 A 
ATOM     23  C   UNL     1       1.146   2.301  19.104  0.00  0.00    +0.000 A 
ATOM     24  C   UNL     1       1.104   2.964  20.331  0.00  0.00    +0.000 A 
ATOM     25  C   UNL     1       1.805   4.160  20.503  0.00  0.00    +0.000 A 
ENDBRANCH  19  20
ENDBRANCH   6  19
TORSDOF 4
ENDMDL
MODEL 4
REMARK VINA RESULT:      -8.0      4.705      8.695
REMARK  Name = 
REMARK  4 active torsions:
REMARK  status: ('A' for Active; 'I' for Inactive)
REMARK    1  A    between atoms: C_2  and  C_3
REMARK    2  A    between atoms: C_2  and  C_9
REMARK    3  A    between atoms: C_14  and  O_15
REMARK    4  A    between atoms: O_15  and  C_16
REMARK                            x       y       z     vdW  Elec       q    Type
REMARK                         _______ _______ _______ _____ _____    ______ ____
ROOT
ATOM      1  C   UNL     1       0.116  11.276  19.705  0.00  0.00    +0.000 C 
ATOM      2  C   UNL     1      -0.610  10.207  20.509  0.00  0.00    +0.000 C 
ATOM      3  O   UNL     1       0.321   9.259  21.037  0.00  0.00    +0.000 OA
ATOM      4  C   UNL     1       1.167   8.735  20.096  0.00  0.00    +0.000 A 
ATOM      5  C   UNL     1       1.830   7.566  20.465  0.00  0.00    +0.000 A 
ATOM      6  C   UNL     1       2.624   6.891  19.537  0.00  0.00    +0.000 A 
ATOM      7  C   UNL     1       2.841   7.454  18.278  0.00  0.00    +0.000 A 
ATOM      8  C   UNL     1       2.230   8.664  17.931  0.00  0.00    +0.000 A 
ATOM      9  C   UNL     1       1.386   9.315  18.839  0.00  0.00    +0.000 A 
ATOM     10  C   UNL     1       0.710  10.609  18.464  0.00  0.00    +0.000 C 
ENDROOT
BRANCH   1  12
ATOM     11  O   UNL     1      -0.634  13.555  19.736  0.00  0.00    +0.000 OA
ATOM     12  C   UNL     1      -0.853  12.398  19.372  0.00  0.00    +0.000 C 
BRANCH  12  13
ATOM     13  C   UNL     1      -1.999  12.010  18.567  0.00  0.00    +0.000 A 
ATOM     14  N   UNL     1      -3.265  12.056  18.941  0.00  0.00    +0.000 NA
ATOM     15  C   UNL     1      -3.946  11.551  17.859  0.00  0.00    +0.000 A 
ATOM     16  C   UNL     1      -3.057  11.200  16.871  0.00  0.00    +0.000 A 
ATOM     17  I   UNL     1      -3.512  10.361  15.080  0.00  0.00    +0.000 I 
ATOM     18  O   UNL     1      -1.800  11.501  17.307  0.00  0.00    +0.000 OA
ENDBRANCH  12  13
ENDBRANCH   1  12
BRANCH   6  19
ATOM     19  O   UNL     1       3.255   5.693  19.795  0.00  0.00    +0.000 OA
BRANCH  19  20
ATOM     20  C   UNL     1       2.524   4.525  19.739  0.00  0.00    +0.000 A 
ATOM     21  C   UNL     1       2.211   3.856  18.551  0.00  0.00    +0.000 A 
ATOM     22  C   UNL     1       1.425   2.705  18.581  0.00  0.00    +0.000 A 
ATOM     23  C   UNL     1       1.000   2.183  19.802  0.00  0.00    +0.000 A 
ATOM     24  C   UNL     1       1.367   2.809  20.994  0.00  0.00    +0.000 A 
ATOM     25  C   UNL     1       2.128   3.980  20.962  0.00  0.00    +0.000 A 
ENDBRANCH  19  20
ENDBRANCH   6  19
TORSDOF 4
ENDMDL
MODEL 5
REMARK VINA RESULT:      -7.9      4.409      8.722
REMARK  Name = 
REMARK  4 active torsions:
REMARK  status: ('A' for Active; 'I' for Inactive)
REMARK    1  A    between atoms: C_2  and  C_3
REMARK    2  A    between atoms: C_2  and  C_9
REMARK    3  A    between atoms: C_14  and  O_15
REMARK    4  A    between atoms: O_15  and  C_16
REMARK                            x       y       z     vdW  Elec       q    Type
REMARK                         _______ _______ _______ _____ _____    ______ ____
ROOT
ATOM      1  C   UNL     1       0.107  11.196  19.833  0.00  0.00    +0.000 C 
ATOM      2  C   UNL     1      -0.560  10.112  20.668  0.00  0.00    +0.000 C 
ATOM      3  O   UNL     1       0.413   9.181  21.149  0.00  0.00    +0.000 OA
ATOM      4  C   UNL     1       1.222   8.674  20.167  0.00  0.00    +0.000 A 
ATOM      5  C   UNL     1       1.924   7.518  20.501  0.00  0.00    +0.000 A 
ATOM      6  C   UNL     1       2.685   6.859  19.534  0.00  0.00    +0.000 A 
ATOM      7  C   UNL     1       2.832   7.428  18.268  0.00  0.00    +0.000 A 
ATOM      8  C   UNL     1       2.182   8.627  17.953  0.00  0.00    +0.000 A 
ATOM      9  C   UNL     1       1.371   9.260  18.903  0.00  0.00    +0.000 A 
ATOM     10  C   UNL     1       0.653  10.543  18.564  0.00  0.00    +0.000 C 
ENDROOT
BRANCH   1  12
ATOM     11  O   UNL     1      -0.732  13.439  19.993  0.00  0.00    +0.000 OA
ATOM     12  C   UNL     1      -0.898  12.300  19.551  0.00  0.00    +0.000 C 
BRANCH  12  13
ATOM     13  C   UNL     1      -2.010  11.922  18.695  0.00  0.00    +0.000 A 
ATOM     14  N   UNL     1      -3.289  11.939  19.027  0.00  0.00    +0.000 NA
ATOM     15  C   UNL     1      -3.925  11.460  17.907  0.00  0.00    +0.000 A 
ATOM     16  C   UNL     1      -2.998  11.155  16.938  0.00  0.00    +0.000 A 
ATOM     17  I   UNL     1      -3.380  10.369  15.107  0.00  0.00    +0.000 I 
ATOM     18  O   UNL     1      -1.761  11.458  17.426  0.00  0.00    +0.000 OA
ENDBRANCH  12  13
ENDBRANCH   1  12
BRANCH   6  19
ATOM     19  O   UNL     1       3.350   5.673  19.758  0.00  0.00    +0.000 OA
BRANCH  19  20
ATOM     20  C   UNL     1       2.893   4.523  19.148  0.00  0.00    +0.000 A 
ATOM     21  C   UNL     1       1.600   4.015  19.308  0.00  0.00    +0.000 A 
ATOM     22  C   UNL     1       1.236   2.819  18.692  0.00  0.00    +0.000 A 
ATOM     23  C   UNL     1       2.142   2.157  17.865  0.00  0.00    +0.000 A 
ATOM     24  C   UNL     1       3.411   2.695  17.649  0.00  0.00    +0.000 A 
ATOM     25  C   UNL     1       3.786   3.877  18.291  0.00  0.00    +0.000 A 
ENDBRANCH  19  20
ENDBRANCH   6  19
TORSDOF 4
ENDMDL
MODEL 6
REMARK VINA RESULT:      -7.9      4.265      8.934
REMARK  Name = 
REMARK  4 active torsions:
REMARK  status: ('A' for Active; 'I' for Inactive)
REMARK    1  A    between atoms: C_2  and  C_3
REMARK    2  A    between atoms: C_2  and  C_9
REMARK    3  A    between atoms: C_14  and  O_15
REMARK    4  A    between atoms: O_15  and  C_16
REMARK                            x       y       z     vdW  Elec       q    Type
REMARK                         _______ _______ _______ _____ _____    ______ ____
ROOT
ATOM      1  C   UNL     1       0.750  10.284  18.635  0.00  0.00    +0.000 C 
ATOM      2  C   UNL     1       2.079  10.272  17.894  0.00  0.00    +0.000 C 
ATOM      3  O   UNL     1       2.378   8.956  17.423  0.00  0.00    +0.000 OA
ATOM      4  C   UNL     1       2.301   7.992  18.393  0.00  0.00    +0.000 A 
ATOM      5  C   UNL     1       2.923   6.783  18.094  0.00  0.00    +0.000 A 
ATOM      6  C   UNL     1       3.001   5.779  19.060  0.00  0.00    +0.000 A 
ATOM      7  C   UNL     1       2.351   5.950  20.284  0.00  0.00    +0.000 A 
ATOM      8  C   UNL     1       1.666   7.139  20.560  0.00  0.00    +0.000 A 
ATOM      9  C   UNL     1       1.636   8.171  19.614  0.00  0.00    +0.000 A 
ATOM     10  C   UNL     1       0.915   9.462  19.913  0.00  0.00    +0.000 C 
ENDROOT
BRANCH   1  12
ATOM     11  O   UNL     1       1.167  12.632  18.902  0.00  0.00    +0.000 OA
ATOM     12  C   UNL     1       0.336  11.722  18.900  0.00  0.00    +0.000 C 
BRANCH  12  13
ATOM     13  C   UNL     1      -1.089  11.931  19.094  0.00  0.00    +0.000 A 
ATOM     14  N   UNL     1      -1.659  12.476  20.154  0.00  0.00    +0.000 NA
ATOM     15  C   UNL     1      -3.003  12.408  19.876  0.00  0.00    +0.000 A 
ATOM     16  C   UNL     1      -3.197  11.805  18.656  0.00  0.00    +0.000 A 
ATOM     17  I   UNL     1      -4.981  11.405  17.776  0.00  0.00    +0.000 I 
ATOM     18  O   UNL     1      -1.973  11.503  18.134  0.00  0.00    +0.000 OA
ENDBRANCH  12  13
ENDBRANCH   1  12
BRANCH   6  19
ATOM     19  O   UNL     1       3.660   4.584  18.873  0.00  0.00    +0.000 OA
BRANCH  19  20
ATOM     20  C   UNL     1       4.829   4.570  18.141  0.00  0.00    +0.000 A 
ATOM     21  C   UNL     1       4.909   4.163  16.806  0.00  0.00    +0.000 A 
ATOM     22  C   UNL     1       6.141   4.134  16.154  0.00  0.00    +0.000 A 
ATOM     23  C   UNL     1       7.289   4.568  16.815  0.00  0.00    +0.000 A 
ATOM     24  C   UNL     1       7.203   5.038  18.126  0.00  0.00    +0.000 A 
ATOM     25  C   UNL     1       5.974   5.038  18.789  0.00  0.00    +0.000 A 
ENDBRANCH  19  20
ENDBRANCH   6  19
TORSDOF 4
ENDMDL
MODEL 7
REMARK VINA RESULT:      -7.9      4.094      8.800
REMARK  Name = 
REMARK  4 active torsions:
REMARK  status: ('A' for Active; 'I' for Inactive)
REMARK    1  A    between atoms: C_2  and  C_3
REMARK    2  A    between atoms: C_2  and  C_9
REMARK    3  A    between atoms: C_14  and  O_15
REMARK    4  A    between atoms: O_15  and  C_16
REMARK                            x       y       z     vdW  Elec       q    Type
REMARK                         _______ _______ _______ _____ _____    ______ ____
ROOT
ATOM      1  C   UNL     1       0.775   9.233  19.881  0.00  0.00    +0.000 C 
ATOM      2  C   UNL     1       1.869   9.496  18.857  0.00  0.00    +0.000 C 
ATOM      3  O   UNL     1       2.089   8.336  18.050  0.00  0.00    +0.000 OA
ATOM      4  C   UNL     1       2.302   7.193  18.775  0.00  0.00    +0.000 A 
ATOM      5  C   UNL     1       2.874   6.134  18.075  0.00  0.00    +0.000 A 
ATOM      6  C   UNL     1       3.237   4.967  18.749  0.00  0.00    +0.000 A 
ATOM      7  C   UNL     1       2.917   4.825  20.101  0.00  0.00    +0.000 A 
ATOM      8  C   UNL     1       2.279   5.863  20.788  0.00  0.00    +0.000 A 
ATOM      9  C   UNL     1       1.966   7.058  20.129  0.00  0.00    +0.000 A 
ATOM     10  C   UNL     1       1.295   8.188  20.869  0.00  0.00    +0.000 C 
ENDROOT
BRANCH   1  12
ATOM     11  O   UNL     1       1.082  11.032  21.439  0.00  0.00    +0.000 OA
ATOM     12  C   UNL     1       0.386  10.542  20.548  0.00  0.00    +0.000 C 
BRANCH  12  13
ATOM     13  C   UNL     1      -0.814  11.172  20.023  0.00  0.00    +0.000 A 
ATOM     14  N   UNL     1      -1.392  12.262  20.497  0.00  0.00    +0.000 NA
ATOM     15  C   UNL     1      -2.497  12.421  19.696  0.00  0.00    +0.000 A 
ATOM     16  C   UNL     1      -2.554  11.407  18.771  0.00  0.00    +0.000 A 
ATOM     17  I   UNL     1      -3.999  11.125  17.374  0.00  0.00    +0.000 I 
ATOM     18  O   UNL     1      -1.470  10.600  18.960  0.00  0.00    +0.000 OA
ENDBRANCH  12  13
ENDBRANCH   1  12
BRANCH   6  19
ATOM     19  O   UNL     1       3.874   3.901  18.151  0.00  0.00    +0.000 OA
BRANCH  19  20
ATOM     20  C   UNL     1       4.959   4.141  17.333  0.00  0.00    +0.000 A 
ATOM     21  C   UNL     1       4.909   4.088  15.936  0.00  0.00    +0.000 A 
ATOM     22  C   UNL     1       6.065   4.297  15.185  0.00  0.00    +0.000 A 
ATOM     23  C   UNL     1       7.261   4.620  15.824  0.00  0.00    +0.000 A 
ATOM     24  C   UNL     1       7.300   4.740  17.214  0.00  0.00    +0.000 A 
ATOM     25  C   UNL     1       6.149   4.500  17.967  0.00  0.00    +0.000 A 
ENDBRANCH  19  20
ENDBRANCH   6  19
TORSDOF 4
ENDMDL
MODEL 8
REMARK VINA RESULT:      -7.9      1.814      2.547
REMARK  Name = 
REMARK  4 active torsions:
REMARK  status: ('A' for Active; 'I' for Inactive)
REMARK    1  A    between atoms: C_2  and  C_3
REMARK    2  A    between atoms: C_2  and  C_9
REMARK    3  A    between atoms: C_14  and  O_15
REMARK    4  A    between atoms: O_15  and  C_16
REMARK                            x       y       z     vdW  Elec       q    Type
REMARK                         _______ _______ _______ _____ _____    ______ ____
ROOT
ATOM      1  C   UNL     1       2.919   4.917  18.883  0.00  0.00    +0.000 C 
ATOM      2  C   UNL     1       2.975   5.374  20.333  0.00  0.00    +0.000 C 
ATOM      3  O   UNL     1       1.932   6.313  20.603  0.00  0.00    +0.000 OA
ATOM      4  C   UNL     1       1.886   7.356  19.717  0.00  0.00    +0.000 A 
ATOM      5  C   UNL     1       1.151   8.466  20.130  0.00  0.00    +0.000 A 
ATOM      6  C   UNL     1       1.139   9.623  19.351  0.00  0.00    +0.000 A 
ATOM      7  C   UNL     1       1.769   9.622  18.105  0.00  0.00    +0.000 A 
ATOM      8  C   UNL     1       2.449   8.483  17.659  0.00  0.00    +0.000 A 
ATOM      9  C   UNL     1       2.513   7.339  18.464  0.00  0.00    +0.000 A 
ATOM     10  C   UNL     1       3.260   6.115  17.997  0.00  0.00    +0.000 C 
ENDROOT
BRANCH   1  12
ATOM     11  O   UNL     1       3.605   2.633  19.154  0.00  0.00    +0.000 OA
ATOM     12  C   UNL     1       3.866   3.744  18.689  0.00  0.00    +0.000 C 
BRANCH  12  13
ATOM     13  C   UNL     1       5.045   4.026  17.886  0.00  0.00    +0.000 A 
ATOM     14  N   UNL     1       6.233   4.376  18.345  0.00  0.00    +0.000 NA
ATOM     15  C   UNL     1       6.980   4.567  17.208  0.00  0.00    +0.000 A 
ATOM     16  C   UNL     1       6.205   4.339  16.096  0.00  0.00    +0.000 A 
ATOM     17  I   UNL     1       6.785   4.523  14.160  0.00  0.00    +0.000 I 
ATOM     18  O   UNL     1       4.958   3.977  16.517  0.00  0.00    +0.000 OA
ENDBRANCH  12  13
ENDBRANCH   1  12
BRANCH   6  19
ATOM     19  O   UNL     1       0.501  10.789  19.718  0.00  0.00    +0.000 OA
BRANCH  19  20
ATOM     20  C   UNL     1      -0.795  11.005  19.298  0.00  0.00    +0.000 A 
ATOM     21  C   UNL     1      -1.423  10.262  18.293  0.00  0.00    +0.000 A 
ATOM     22  C   UNL     1      -2.721  10.579  17.895  0.00  0.00    +0.000 A 
ATOM     23  C   UNL     1      -3.418  11.600  18.540  0.00  0.00    +0.000 A 
ATOM     24  C   UNL     1      -2.819  12.298  19.589  0.00  0.00    +0.000 A 
ATOM     25  C   UNL     1      -1.508  12.002  19.967  0.00  0.00    +0.000 A 
ENDBRANCH  19  20
ENDBRANCH   6  19
TORSDOF 4
ENDMDL
MODEL 9
REMARK VINA RESULT:      -7.8      3.962      8.554
REMARK  Name = 
REMARK  4 active torsions:
REMARK  status: ('A' for Active; 'I' for Inactive)
REMARK    1  A    between atoms: C_2  and  C_3
REMARK    2  A    between atoms: C_2  and  C_9
REMARK    3  A    between atoms: C_14  and  O_15
REMARK    4  A    between atoms: O_15  and  C_16
REMARK                            x       y       z     vdW  Elec       q    Type
REMARK                         _______ _______ _______ _____ _____    ______ ____
ROOT
ATOM      1  C   UNL     1       0.644  10.175  18.759  0.00  0.00    +0.000 C 
ATOM      2  C   UNL     1       1.931  10.196  17.947  0.00  0.00    +0.000 C 
ATOM      3  O   UNL     1       2.234   8.890  17.453  0.00  0.00    +0.000 OA
ATOM      4  C   UNL     1       2.232   7.921  18.421  0.00  0.00    +0.000 A 
ATOM      5  C   UNL     1       2.866   6.728  18.082  0.00  0.00    +0.000 A 
ATOM      6  C   UNL     1       3.019   5.722  19.037  0.00  0.00    +0.000 A 
ATOM      7  C   UNL     1       2.434   5.873  20.296  0.00  0.00    +0.000 A 
ATOM      8  C   UNL     1       1.738   7.044  20.614  0.00  0.00    +0.000 A 
ATOM      9  C   UNL     1       1.632   8.079  19.678  0.00  0.00    +0.000 A 
ATOM     10  C   UNL     1       0.899   9.351  20.022  0.00  0.00    +0.000 C 
ENDROOT
BRANCH   1  12
ATOM     11  O   UNL     1      -0.981  11.903  19.119  0.00  0.00    +0.000 OA
ATOM     12  C   UNL     1       0.213  11.601  19.054  0.00  0.00    +0.000 C 
BRANCH  12  13
ATOM     13  C   UNL     1       1.296  12.539  19.298  0.00  0.00    +0.000 A 
ATOM     14  N   UNL     1       1.913  12.733  20.451  0.00  0.00    +0.000 NA
ATOM     15  C   UNL     1       2.813  13.734  20.176  0.00  0.00    +0.000 A 
ATOM     16  C   UNL     1       2.696  14.121  18.862  0.00  0.00    +0.000 A 
ATOM     17  I   UNL     1       3.746  15.589  17.937  0.00  0.00    +0.000 I 
ATOM     18  O   UNL     1       1.731  13.351  18.280  0.00  0.00    +0.000 OA
ENDBRANCH  12  13
ENDBRANCH   1  12
BRANCH   6  19
ATOM     19  O   UNL     1       3.695   4.543  18.808  0.00  0.00    +0.000 OA
BRANCH  19  20
ATOM     20  C   UNL     1       4.901   4.580  18.140  0.00  0.00    +0.000 A 
ATOM     21  C   UNL     1       5.065   4.199  16.804  0.00  0.00    +0.000 A 
ATOM     22  C   UNL     1       6.330   4.222  16.219  0.00  0.00    +0.000 A 
ATOM     23  C   UNL     1       7.426   4.683  16.947  0.00  0.00    +0.000 A 
ATOM     24  C   UNL     1       7.255   5.127  18.258  0.00  0.00    +0.000 A 
ATOM     25  C   UNL     1       5.994   5.075  18.855  0.00  0.00    +0.000 A 
ENDBRANCH  19  20
ENDBRANCH   6  19
TORSDOF 4
ENDMDL
