MODEL 1
REMARK VINA RESULT:      -8.2      0.000      0.000
REMARK  Name = 
REMARK  6 active torsions:
REMARK  status: ('A' for Active; 'I' for Inactive)
REMARK    1  A    between atoms: C_4  and  N_5
REMARK    2  A    between atoms: N_5  and  C_6
REMARK    3  A    between atoms: C_6  and  C_7
REMARK    4  A    between atoms: C_7  and  C_8
REMARK    5  A    between atoms: C_8  and  N_9
REMARK    6  A    between atoms: N_9  and  C_10
REMARK                            x       y       z     vdW  Elec       q    Type
REMARK                         _______ _______ _______ _____ _____    ______ ____
ROOT
ATOM      1  C   UNL     1       6.106   3.864  15.327  0.00  0.00    +0.000 C 
ENDROOT
BRANCH   1   2
ATOM      2  N   UNL     1       7.315   4.627  15.527  0.00  0.00    +0.000 N 
ATOM      3  H   UNL     1       8.153   4.437  14.988  0.00  0.00    +0.000 HD
BRANCH   2   7
ATOM      4  N   UNL     1       8.112   5.202  20.240  0.00  0.00    +0.000 N 
ATOM      5  C   UNL     1       7.930   5.702  18.948  0.00  0.00    +0.000 A 
ATOM      6  C   UNL     1       7.747   4.838  17.899  0.00  0.00    +0.000 A 
ATOM      7  C   UNL     1       7.533   5.390  16.654  0.00  0.00    +0.000 A 
ATOM      8  N   UNL     1       7.494   6.717  16.483  0.00  0.00    +0.000 NA
ATOM      9  C   UNL     1       7.678   7.480  17.566  0.00  0.00    +0.000 A 
ATOM     10  N   UNL     1       7.595   8.851  17.403  0.00  0.00    +0.000 N 
ATOM     11  N   UNL     1       7.884   7.027  18.805  0.00  0.00    +0.000 NA
ATOM     12  H   UNL     1       8.849   4.510  20.286  0.00  0.00    +0.000 HD
ATOM     13  H   UNL     1       8.288   5.992  20.855  0.00  0.00    +0.000 HD
ATOM     14  H   UNL     1       7.017   9.054  16.601  0.00  0.00    +0.000 HD
ATOM     15  H   UNL     1       7.323   9.270  18.283  0.00  0.00    +0.000 HD
ENDBRANCH   2   7
ENDBRANCH   1   2
BRANCH   1  16
ATOM     16  C   UNL     1       4.913   4.495  16.032  0.00  0.00    +0.000 C 
BRANCH  16  17
ATOM     17  C   UNL     1       4.396   3.518  17.089  0.00  0.00    +0.000 C 
BRANCH  17  18
ATOM     18  N   UNL     1       2.936   3.493  17.145  0.00  0.00    +0.000 N 
ATOM     19  H   UNL     1       2.571   2.715  16.607  0.00  0.00    +0.000 HD
BRANCH  18  20
ATOM     20  C   UNL     1       2.297   3.609  18.401  0.00  0.00    +0.000 A 
ATOM     21  C   UNL     1       1.913   2.471  19.120  0.00  0.00    +0.000 A 
ATOM     22  C   UNL     1       1.375   2.610  20.381  0.00  0.00    +0.000 A 
ATOM     23  N   UNL     1       1.197   3.792  20.992  0.00  0.00    +0.000 NA
ATOM     24  C   UNL     1       1.580   4.897  20.339  0.00  0.00    +0.000 A 
ATOM     25  C   UNL     1       1.399   6.103  20.996  0.00  0.00    +0.000 A 
ATOM     26  C   UNL     1       1.757   7.310  20.405  0.00  0.00    +0.000 A 
ATOM     27 CL   UNL     1       1.513   8.786  21.253  0.00  0.00    +0.000 Cl
ATOM     28  C   UNL     1       2.309   7.327  19.134  0.00  0.00    +0.000 A 
ATOM     29  C   UNL     1       2.507   6.123  18.458  0.00  0.00    +0.000 A 
ATOM     30  C   UNL     1       2.147   4.878  19.039  0.00  0.00    +0.000 A 
ENDBRANCH  18  20
ENDBRANCH  17  18
ENDBRANCH  16  17
ENDBRANCH   1  16
TORSDOF 6
ENDMDL
MODEL 2
REMARK VINA RESULT:      -8.2      2.265      4.113
REMARK  Name = 
REMARK  6 active torsions:
REMARK  status: ('A' for Active; 'I' for Inactive)
REMARK    1  A    between atoms: C_4  and  N_5
REMARK    2  A    between atoms: N_5  and  C_6
REMARK    3  A    between atoms: C_6  and  C_7
REMARK    4  A    between atoms: C_7  and  C_8
REMARK    5  A    between atoms: C_8  and  N_9
REMARK    6  A    between atoms: N_9  and  C_10
REMARK                            x       y       z     vdW  Elec       q    Type
REMARK                         _______ _______ _______ _____ _____    ______ ____
ROOT
ATOM      1  C   UNL     1       3.939   2.799  19.336  0.00  0.00    +0.000 C 
ENDROOT
BRANCH   1   2
ATOM      2  N   UNL     1       4.101   3.672  18.198  0.00  0.00    +0.000 N 
ATOM      3  H   UNL     1       3.428   3.677  17.438  0.00  0.00    +0.000 HD
BRANCH   2   7
ATOM      4  N   UNL     1       7.471   5.217  15.125  0.00  0.00    +0.000 N 
ATOM      5  C   UNL     1       6.959   5.046  16.414  0.00  0.00    +0.000 A 
ATOM      6  C   UNL     1       5.735   4.452  16.593  0.00  0.00    +0.000 A 
ATOM      7  C   UNL     1       5.301   4.275  17.889  0.00  0.00    +0.000 A 
ATOM      8  N   UNL     1       6.053   4.656  18.929  0.00  0.00    +0.000 NA
ATOM      9  C   UNL     1       7.233   5.221  18.657  0.00  0.00    +0.000 A 
ATOM     10  N   UNL     1       8.033   5.577  19.727  0.00  0.00    +0.000 N 
ATOM     11  N   UNL     1       7.730   5.424  17.434  0.00  0.00    +0.000 NA
ATOM     12  H   UNL     1       6.816   5.682  14.509  0.00  0.00    +0.000 HD
ATOM     13  H   UNL     1       8.348   5.722  15.206  0.00  0.00    +0.000 HD
ATOM     14  H   UNL     1       7.798   5.000  20.522  0.00  0.00    +0.000 HD
ATOM     15  H   UNL     1       9.000   5.576  19.430  0.00  0.00    +0.000 HD
ENDBRANCH   2   7
ENDBRANCH   1   2
BRANCH   1  16
ATOM     16  C   UNL     1       2.997   3.390  20.376  0.00  0.00    +0.000 C 
BRANCH  16  17
ATOM     17  C   UNL     1       2.252   4.568  19.748  0.00  0.00    +0.000 C 
BRANCH  17  18
ATOM     18  N   UNL     1       2.606   5.838  20.376  0.00  0.00    +0.000 N 
ATOM     19  H   UNL     1       3.549   5.802  20.749  0.00  0.00    +0.000 HD
BRANCH  18  20
ATOM     20  C   UNL     1       2.367   7.042  19.673  0.00  0.00    +0.000 A 
ATOM     21  C   UNL     1       2.781   7.193  18.344  0.00  0.00    +0.000 A 
ATOM     22  C   UNL     1       2.454   8.339  17.654  0.00  0.00    +0.000 A 
ATOM     23  N   UNL     1       1.736   9.347  18.175  0.00  0.00    +0.000 NA
ATOM     24  C   UNL     1       1.303   9.219  19.436  0.00  0.00    +0.000 A 
ATOM     25  C   UNL     1       0.553  10.266  19.947  0.00  0.00    +0.000 A 
ATOM     26  C   UNL     1       0.061  10.237  21.247  0.00  0.00    +0.000 A 
ATOM     27 CL   UNL     1      -0.864  11.558  21.843  0.00  0.00    +0.000 Cl
ATOM     28  C   UNL     1       0.313   9.146  22.063  0.00  0.00    +0.000 A 
ATOM     29  C   UNL     1       1.059   8.077  21.566  0.00  0.00    +0.000 A 
ATOM     30  C   UNL     1       1.576   8.085  20.243  0.00  0.00    +0.000 A 
ENDBRANCH  18  20
ENDBRANCH  17  18
ENDBRANCH  16  17
ENDBRANCH   1  16
TORSDOF 6
ENDMDL
MODEL 3
REMARK VINA RESULT:      -8.0      1.097      1.200
REMARK  Name = 
REMARK  6 active torsions:
REMARK  status: ('A' for Active; 'I' for Inactive)
REMARK    1  A    between atoms: C_4  and  N_5
REMARK    2  A    between atoms: N_5  and  C_6
REMARK    3  A    between atoms: C_6  and  C_7
REMARK    4  A    between atoms: C_7  and  C_8
REMARK    5  A    between atoms: C_8  and  N_9
REMARK    6  A    between atoms: N_9  and  C_10
REMARK                            x       y       z     vdW  Elec       q    Type
REMARK                         _______ _______ _______ _____ _____    ______ ____
ROOT
ATOM      1  C   UNL     1       6.130   5.274  14.965  0.00  0.00    +0.000 C 
ENDROOT
BRANCH   1   2
ATOM      2  N   UNL     1       5.811   6.225  16.004  0.00  0.00    +0.000 N 
ATOM      3  H   UNL     1       5.031   6.866  15.909  0.00  0.00    +0.000 HD
BRANCH   2   7
ATOM      4  N   UNL     1       8.338   5.362  20.011  0.00  0.00    +0.000 N 
ATOM      5  C   UNL     1       7.958   6.177  18.941  0.00  0.00    +0.000 A 
ATOM      6  C   UNL     1       7.074   5.709  18.002  0.00  0.00    +0.000 A 
ATOM      7  C   UNL     1       6.707   6.572  16.993  0.00  0.00    +0.000 A 
ATOM      8  N   UNL     1       7.184   7.821  16.942  0.00  0.00    +0.000 NA
ATOM      9  C   UNL     1       8.036   8.191  17.904  0.00  0.00    +0.000 A 
ATOM     10  N   UNL     1       8.499   9.494  17.882  0.00  0.00    +0.000 N 
ATOM     11  N   UNL     1       8.438   7.421  18.918  0.00  0.00    +0.000 NA
ATOM     12  H   UNL     1       8.673   4.457  19.706  0.00  0.00    +0.000 HD
ATOM     13  H   UNL     1       9.034   5.867  20.552  0.00  0.00    +0.000 HD
ATOM     14  H   UNL     1       7.828  10.075  17.400  0.00  0.00    +0.000 HD
ATOM     15  H   UNL     1       8.753   9.768  18.822  0.00  0.00    +0.000 HD
ENDBRANCH   2   7
ENDBRANCH   1   2
BRANCH   1  16
ATOM     16  C   UNL     1       5.901   3.839  15.420  0.00  0.00    +0.000 C 
BRANCH  16  17
ATOM     17  C   UNL     1       4.531   3.751  16.094  0.00  0.00    +0.000 C 
BRANCH  17  18
ATOM     18  N   UNL     1       4.625   3.251  17.463  0.00  0.00    +0.000 N 
ATOM     19  H   UNL     1       5.381   3.710  17.960  0.00  0.00    +0.000 HD
BRANCH  18  20
ATOM     20  C   UNL     1       3.450   3.176  18.247  0.00  0.00    +0.000 A 
ATOM     21  C   UNL     1       2.821   1.948  18.484  0.00  0.00    +0.000 A 
ATOM     22  C   UNL     1       1.733   1.891  19.326  0.00  0.00    +0.000 A 
ATOM     23  N   UNL     1       1.223   2.956  19.964  0.00  0.00    +0.000 NA
ATOM     24  C   UNL     1       1.820   4.140  19.778  0.00  0.00    +0.000 A 
ATOM     25  C   UNL     1       1.285   5.222  20.457  0.00  0.00    +0.000 A 
ATOM     26  C   UNL     1       1.826   6.497  20.329  0.00  0.00    +0.000 A 
ATOM     27 CL   UNL     1       1.129   7.814  21.187  0.00  0.00    +0.000 Cl
ATOM     28  C   UNL     1       2.924   6.709  19.512  0.00  0.00    +0.000 A 
ATOM     29  C   UNL     1       3.485   5.632  18.824  0.00  0.00    +0.000 A 
ATOM     30  C   UNL     1       2.948   4.321  18.936  0.00  0.00    +0.000 A 
ENDBRANCH  18  20
ENDBRANCH  17  18
ENDBRANCH  16  17
ENDBRANCH   1  16
TORSDOF 6
ENDMDL
MODEL 4
REMARK VINA RESULT:      -8.0      2.444      4.389
REMARK  Name = 
REMARK  6 active torsions:
REMARK  status: ('A' for Active; 'I' for Inactive)
REMARK    1  A    between atoms: C_4  and  N_5
REMARK    2  A    between atoms: N_5  and  C_6
REMARK    3  A    between atoms: C_6  and  C_7
REMARK    4  A    between atoms: C_7  and  C_8
REMARK    5  A    between atoms: C_8  and  N_9
REMARK    6  A    between atoms: N_9  and  C_10
REMARK                            x       y       z     vdW  Elec       q    Type
REMARK                         _______ _______ _______ _____ _____    ______ ____
ROOT
ATOM      1  C   UNL     1       3.267   3.984  18.304  0.00  0.00    +0.000 C 
ENDROOT
BRANCH   1   2
ATOM      2  N   UNL     1       4.644   3.582  18.134  0.00  0.00    +0.000 N 
ATOM      3  H   UNL     1       5.114   3.009  18.826  0.00  0.00    +0.000 HD
BRANCH   2   7
ATOM      4  N   UNL     1       7.680   7.090  16.845  0.00  0.00    +0.000 N 
ATOM      5  C   UNL     1       6.987   5.903  16.596  0.00  0.00    +0.000 A 
ATOM      6  C   UNL     1       6.185   5.360  17.568  0.00  0.00    +0.000 A 
ATOM      7  C   UNL     1       5.496   4.209  17.251  0.00  0.00    +0.000 A 
ATOM      8  N   UNL     1       5.598   3.654  16.037  0.00  0.00    +0.000 NA
ATOM      9  C   UNL     1       6.400   4.257  15.153  0.00  0.00    +0.000 A 
ATOM     10  N   UNL     1       6.476   3.713  13.884  0.00  0.00    +0.000 N 
ATOM     11  N   UNL     1       7.096   5.374  15.377  0.00  0.00    +0.000 NA
ATOM     12  H   UNL     1       8.224   7.048  17.698  0.00  0.00    +0.000 HD
ATOM     13  H   UNL     1       8.255   7.289  16.032  0.00  0.00    +0.000 HD
ATOM     14  H   UNL     1       5.626   3.201  13.692  0.00  0.00    +0.000 HD
ATOM     15  H   UNL     1       6.731   4.441  13.229  0.00  0.00    +0.000 HD
ENDBRANCH   2   7
ENDBRANCH   1   2
BRANCH   1  16
ATOM     16  C   UNL     1       2.819   3.875  19.755  0.00  0.00    +0.000 C 
BRANCH  16  17
ATOM     17  C   UNL     1       1.901   5.056  20.073  0.00  0.00    +0.000 C 
BRANCH  17  18
ATOM     18  N   UNL     1       2.652   6.291  20.290  0.00  0.00    +0.000 N 
ATOM     19  H   UNL     1       3.642   6.139  20.130  0.00  0.00    +0.000 HD
BRANCH  18  20
ATOM     20  C   UNL     1       2.199   7.484  19.681  0.00  0.00    +0.000 A 
ATOM     21  C   UNL     1       2.377   7.705  18.310  0.00  0.00    +0.000 A 
ATOM     22  C   UNL     1       1.845   8.833  17.727  0.00  0.00    +0.000 A 
ATOM     23  N   UNL     1       1.139   9.759  18.394  0.00  0.00    +0.000 NA
ATOM     24  C   UNL     1       0.929   9.562  19.702  0.00  0.00    +0.000 A 
ATOM     25  C   UNL     1       0.186  10.523  20.366  0.00  0.00    +0.000 A 
ATOM     26  C   UNL     1      -0.085  10.418  21.727  0.00  0.00    +0.000 A 
ATOM     27 CL   UNL     1      -1.009  11.635  22.514  0.00  0.00    +0.000 Cl
ATOM     28  C   UNL     1       0.389   9.335  22.449  0.00  0.00    +0.000 A 
ATOM     29  C   UNL     1       1.133   8.350  21.798  0.00  0.00    +0.000 A 
ATOM     30  C   UNL     1       1.426   8.437  20.410  0.00  0.00    +0.000 A 
ENDBRANCH  18  20
ENDBRANCH  17  18
ENDBRANCH  16  17
ENDBRANCH   1  16
TORSDOF 6
ENDMDL
MODEL 5
REMARK VINA RESULT:      -7.9      2.570      4.433
REMARK  Name = 
REMARK  6 active torsions:
REMARK  status: ('A' for Active; 'I' for Inactive)
REMARK    1  A    between atoms: C_4  and  N_5
REMARK    2  A    between atoms: N_5  and  C_6
REMARK    3  A    between atoms: C_6  and  C_7
REMARK    4  A    between atoms: C_7  and  C_8
REMARK    5  A    between atoms: C_8  and  N_9
REMARK    6  A    between atoms: N_9  and  C_10
REMARK                            x       y       z     vdW  Elec       q    Type
REMARK                         _______ _______ _______ _____ _____    ______ ____
ROOT
ATOM      1  C   UNL     1       4.409   4.648  19.380  0.00  0.00    +0.000 C 
ENDROOT
BRANCH   1   2
ATOM      2  N   UNL     1       4.995   3.808  18.361  0.00  0.00    +0.000 N 
ATOM      3  H   UNL     1       5.165   2.822  18.525  0.00  0.00    +0.000 HD
BRANCH   2   7
ATOM      4  N   UNL     1       6.503   3.692  13.790  0.00  0.00    +0.000 N 
ATOM      5  C   UNL     1       6.414   4.296  15.046  0.00  0.00    +0.000 A 
ATOM      6  C   UNL     1       5.688   3.698  16.045  0.00  0.00    +0.000 A 
ATOM      7  C   UNL     1       5.670   4.322  17.274  0.00  0.00    +0.000 A 
ATOM      8  N   UNL     1       6.345   5.458  17.484  0.00  0.00    +0.000 NA
ATOM      9  C   UNL     1       7.028   5.965  16.452  0.00  0.00    +0.000 A 
ATOM     10  N   UNL     1       7.763   7.115  16.674  0.00  0.00    +0.000 N 
ATOM     11  N   UNL     1       7.103   5.422  15.234  0.00  0.00    +0.000 NA
ATOM     12  H   UNL     1       5.595   3.461  13.407  0.00  0.00    +0.000 HD
ATOM     13  H   UNL     1       7.029   4.315  13.183  0.00  0.00    +0.000 HD
ATOM     14  H   UNL     1       8.001   7.171  17.654  0.00  0.00    +0.000 HD
ATOM     15  H   UNL     1       8.528   7.149  16.014  0.00  0.00    +0.000 HD
ENDBRANCH   2   7
ENDBRANCH   1   2
BRANCH   1  16
ATOM     16  C   UNL     1       3.123   4.052  19.935  0.00  0.00    +0.000 C 
BRANCH  16  17
ATOM     17  C   UNL     1       2.017   5.105  19.847  0.00  0.00    +0.000 C 
BRANCH  17  18
ATOM     18  N   UNL     1       2.411   6.367  20.469  0.00  0.00    +0.000 N 
ATOM     19  H   UNL     1       3.394   6.351  20.716  0.00  0.00    +0.000 HD
BRANCH  18  20
ATOM     20  C   UNL     1       2.046   7.582  19.845  0.00  0.00    +0.000 A 
ATOM     21  C   UNL     1       2.283   7.790  18.481  0.00  0.00    +0.000 A 
ATOM     22  C   UNL     1       1.834   8.945  17.880  0.00  0.00    +0.000 A 
ATOM     23  N   UNL     1       1.157   9.910  18.522  0.00  0.00    +0.000 NA
ATOM     24  C   UNL     1       0.893   9.727  19.823  0.00  0.00    +0.000 A 
ATOM     25  C   UNL     1       0.181  10.729  20.461  0.00  0.00    +0.000 A 
ATOM     26  C   UNL     1      -0.141  10.641  21.811  0.00  0.00    +0.000 A 
ATOM     27 CL   UNL     1      -1.023  11.909  22.566  0.00  0.00    +0.000 Cl
ATOM     28  C   UNL     1       0.248   9.535  22.549  0.00  0.00    +0.000 A 
ATOM     29  C   UNL     1       0.958   8.509  21.924  0.00  0.00    +0.000 A 
ATOM     30  C   UNL     1       1.302   8.578  20.547  0.00  0.00    +0.000 A 
ENDBRANCH  18  20
ENDBRANCH  17  18
ENDBRANCH  16  17
ENDBRANCH   1  16
TORSDOF 6
ENDMDL
MODEL 6
REMARK VINA RESULT:      -7.7      3.133      5.003
REMARK  Name = 
REMARK  6 active torsions:
REMARK  status: ('A' for Active; 'I' for Inactive)
REMARK    1  A    between atoms: C_4  and  N_5
REMARK    2  A    between atoms: N_5  and  C_6
REMARK    3  A    between atoms: C_6  and  C_7
REMARK    4  A    between atoms: C_7  and  C_8
REMARK    5  A    between atoms: C_8  and  N_9
REMARK    6  A    between atoms: N_9  and  C_10
REMARK                            x       y       z     vdW  Elec       q    Type
REMARK                         _______ _______ _______ _____ _____    ______ ____
ROOT
ATOM      1  C   UNL     1       3.144   4.098  19.257  0.00  0.00    +0.000 C 
ENDROOT
BRANCH   1   2
ATOM      2  N   UNL     1       3.635   4.557  17.979  0.00  0.00    +0.000 N 
ATOM      3  H   UNL     1       3.095   4.426  17.130  0.00  0.00    +0.000 HD
BRANCH   2   7
ATOM      4  N   UNL     1       7.473   5.282  15.164  0.00  0.00    +0.000 N 
ATOM      5  C   UNL     1       6.848   5.234  16.412  0.00  0.00    +0.000 A 
ATOM      6  C   UNL     1       5.511   4.938  16.499  0.00  0.00    +0.000 A 
ATOM      7  C   UNL     1       4.960   4.867  17.761  0.00  0.00    +0.000 A 
ATOM      8  N   UNL     1       5.705   5.065  18.854  0.00  0.00    +0.000 NA
ATOM      9  C   UNL     1       7.000   5.343  18.671  0.00  0.00    +0.000 A 
ATOM     10  N   UNL     1       7.785   5.506  19.798  0.00  0.00    +0.000 N 
ATOM     11  N   UNL     1       7.613   5.425  17.487  0.00  0.00    +0.000 NA
ATOM     12  H   UNL     1       6.986   5.885  14.512  0.00  0.00    +0.000 HD
ATOM     13  H   UNL     1       8.435   5.572  15.311  0.00  0.00    +0.000 HD
ATOM     14  H   UNL     1       7.369   5.000  20.567  0.00  0.00    +0.000 HD
ATOM     15  H   UNL     1       8.744   5.282  19.566  0.00  0.00    +0.000 HD
ENDBRANCH   2   7
ENDBRANCH   1   2
BRANCH   1  16
ATOM     16  C   UNL     1       2.061   5.014  19.812  0.00  0.00    +0.000 C 
BRANCH  16  17
ATOM     17  C   UNL     1       2.616   6.437  19.888  0.00  0.00    +0.000 C 
BRANCH  17  18
ATOM     18  N   UNL     1       1.804   7.296  20.746  0.00  0.00    +0.000 N 
ATOM     19  H   UNL     1       2.238   7.404  21.657  0.00  0.00    +0.000 HD
BRANCH  18  20
ATOM     20  C   UNL     1       1.339   8.531  20.237  0.00  0.00    +0.000 A 
ATOM     21  C   UNL     1       1.560   8.887  18.901  0.00  0.00    +0.000 A 
ATOM     22  C   UNL     1       1.017  10.053  18.408  0.00  0.00    +0.000 A 
ATOM     23  N   UNL     1       0.261  10.892  19.132  0.00  0.00    +0.000 NA
ATOM     24  C   UNL     1       0.010  10.564  20.407  0.00  0.00    +0.000 A 
ATOM     25  C   UNL     1      -0.784  11.438  21.130  0.00  0.00    +0.000 A 
ATOM     26  C   UNL     1      -1.100  11.196  22.463  0.00  0.00    +0.000 A 
ATOM     27 CL   UNL     1      -2.086  12.308  23.326  0.00  0.00    +0.000 Cl
ATOM     28  C   UNL     1      -0.621  10.061  23.096  0.00  0.00    +0.000 A 
ATOM     29  C   UNL     1       0.174   9.162  22.384  0.00  0.00    +0.000 A 
ATOM     30  C   UNL     1       0.513   9.390  21.023  0.00  0.00    +0.000 A 
ENDBRANCH  18  20
ENDBRANCH  17  18
ENDBRANCH  16  17
ENDBRANCH   1  16
TORSDOF 6
ENDMDL
MODEL 7
REMARK VINA RESULT:      -7.6      3.301      5.664
REMARK  Name = 
REMARK  6 active torsions:
REMARK  status: ('A' for Active; 'I' for Inactive)
REMARK    1  A    between atoms: C_4  and  N_5
REMARK    2  A    between atoms: N_5  and  C_6
REMARK    3  A    between atoms: C_6  and  C_7
REMARK    4  A    between atoms: C_7  and  C_8
REMARK    5  A    between atoms: C_8  and  N_9
REMARK    6  A    between atoms: N_9  and  C_10
REMARK                            x       y       z     vdW  Elec       q    Type
REMARK                         _______ _______ _______ _____ _____    ______ ____
ROOT
ATOM      1  C   UNL     1       8.239   8.471  17.667  0.00  0.00    +0.000 C 
ENDROOT
BRANCH   1   2
ATOM      2  N   UNL     1       8.830   8.958  18.891  0.00  0.00    +0.000 N 
ATOM      3  H   UNL     1       8.808   8.407  19.743  0.00  0.00    +0.000 HD
BRANCH   2   7
ATOM      4  N   UNL     1       9.819  13.417  17.366  0.00  0.00    +0.000 N 
ATOM      5  C   UNL     1       9.612  12.474  18.376  0.00  0.00    +0.000 A 
ATOM      6  C   UNL     1       9.287  11.181  18.052  0.00  0.00    +0.000 A 
ATOM      7  C   UNL     1       9.135  10.288  19.090  0.00  0.00    +0.000 A 
ATOM      8  N   UNL     1       9.311  10.668  20.362  0.00  0.00    +0.000 NA
ATOM      9  C   UNL     1       9.631  11.947  20.580  0.00  0.00    +0.000 A 
ATOM     10  N   UNL     1       9.857  12.335  21.888  0.00  0.00    +0.000 N 
ATOM     11  N   UNL     1       9.803  12.873  19.634  0.00  0.00    +0.000 NA
ATOM     12  H   UNL     1       9.049  13.454  16.709  0.00  0.00    +0.000 HD
ATOM     13  H   UNL     1       9.988  14.314  17.811  0.00  0.00    +0.000 HD
ATOM     14  H   UNL     1      10.143  11.530  22.427  0.00  0.00    +0.000 HD
ATOM     15  H   UNL     1      10.477  13.134  21.892  0.00  0.00    +0.000 HD
ENDBRANCH   2   7
ENDBRANCH   1   2
BRANCH   1  16
ATOM     16  C   UNL     1       7.310   7.290  17.917  0.00  0.00    +0.000 C 
BRANCH  16  17
ATOM     17  C   UNL     1       7.995   6.325  18.885  0.00  0.00    +0.000 C 
BRANCH  17  18
ATOM     18  N   UNL     1       7.774   4.929  18.515  0.00  0.00    +0.000 N 
ATOM     19  H   UNL     1       7.664   4.353  19.343  0.00  0.00    +0.000 HD
BRANCH  18  20
ATOM     20  C   UNL     1       6.804   4.625  17.532  0.00  0.00    +0.000 A 
ATOM     21  C   UNL     1       7.165   4.486  16.186  0.00  0.00    +0.000 A 
ATOM     22  C   UNL     1       6.218   4.100  15.263  0.00  0.00    +0.000 A 
ATOM     23  N   UNL     1       4.939   3.829  15.571  0.00  0.00    +0.000 NA
ATOM     24  C   UNL     1       4.572   3.928  16.855  0.00  0.00    +0.000 A 
ATOM     25  C   UNL     1       3.252   3.629  17.150  0.00  0.00    +0.000 A 
ATOM     26  C   UNL     1       2.765   3.706  18.451  0.00  0.00    +0.000 A 
ATOM     27 CL   UNL     1       1.119   3.331  18.774  0.00  0.00    +0.000 Cl
ATOM     28  C   UNL     1       3.604   4.085  19.487  0.00  0.00    +0.000 A 
ATOM     29  C   UNL     1       4.940   4.382  19.214  0.00  0.00    +0.000 A 
ATOM     30  C   UNL     1       5.459   4.314  17.893  0.00  0.00    +0.000 A 
ENDBRANCH  18  20
ENDBRANCH  17  18
ENDBRANCH  16  17
ENDBRANCH   1  16
TORSDOF 6
ENDMDL
MODEL 8
REMARK VINA RESULT:      -7.4      3.412      4.956
REMARK  Name = 
REMARK  6 active torsions:
REMARK  status: ('A' for Active; 'I' for Inactive)
REMARK    1  A    between atoms: C_4  and  N_5
REMARK    2  A    between atoms: N_5  and  C_6
REMARK    3  A    between atoms: C_6  and  C_7
REMARK    4  A    between atoms: C_7  and  C_8
REMARK    5  A    between atoms: C_8  and  N_9
REMARK    6  A    between atoms: N_9  and  C_10
REMARK                            x       y       z     vdW  Elec       q    Type
REMARK                         _______ _______ _______ _____ _____    ______ ____
ROOT
ATOM      1  C   UNL     1       8.089   8.473  17.872  0.00  0.00    +0.000 C 
ENDROOT
BRANCH   1   2
ATOM      2  N   UNL     1       8.936   9.006  18.913  0.00  0.00    +0.000 N 
ATOM      3  H   UNL     1       9.230   8.434  19.697  0.00  0.00    +0.000 HD
BRANCH   2   7
ATOM      4  N   UNL     1       9.919  12.867  21.616  0.00  0.00    +0.000 N 
ATOM      5  C   UNL     1       9.591  12.261  20.401  0.00  0.00    +0.000 A 
ATOM      6  C   UNL     1       9.473  10.897  20.325  0.00  0.00    +0.000 A 
ATOM      7  C   UNL     1       9.108  10.360  19.109  0.00  0.00    +0.000 A 
ATOM      8  N   UNL     1       8.869  11.143  18.050  0.00  0.00    +0.000 NA
ATOM      9  C   UNL     1       9.005  12.462  18.221  0.00  0.00    +0.000 A 
ATOM     10  N   UNL     1       8.716  13.279  17.143  0.00  0.00    +0.000 N 
ATOM     11  N   UNL     1       9.347  13.062  19.363  0.00  0.00    +0.000 NA
ATOM     12  H   UNL     1      10.750  12.467  22.035  0.00  0.00    +0.000 HD
ATOM     13  H   UNL     1      10.015  13.865  21.448  0.00  0.00    +0.000 HD
ATOM     14  H   UNL     1       8.068  12.803  16.531  0.00  0.00    +0.000 HD
ATOM     15  H   UNL     1       8.439  14.189  17.486  0.00  0.00    +0.000 HD
ENDBRANCH   2   7
ENDBRANCH   1   2
BRANCH   1  16
ATOM     16  C   UNL     1       7.793   6.995  18.082  0.00  0.00    +0.000 C 
BRANCH  16  17
ATOM     17  C   UNL     1       6.839   6.525  16.984  0.00  0.00    +0.000 C 
BRANCH  17  18
ATOM     18  N   UNL     1       5.892   5.525  17.471  0.00  0.00    +0.000 N 
ATOM     19  H   UNL     1       6.359   4.853  18.070  0.00  0.00    +0.000 HD
BRANCH  18  20
ATOM     20  C   UNL     1       4.663   5.955  18.023  0.00  0.00    +0.000 A 
ATOM     21  C   UNL     1       4.086   7.170  17.632  0.00  0.00    +0.000 A 
ATOM     22  C   UNL     1       2.845   7.521  18.116  0.00  0.00    +0.000 A 
ATOM     23  N   UNL     1       2.123   6.757  18.950  0.00  0.00    +0.000 NA
ATOM     24  C   UNL     1       2.638   5.577  19.321  0.00  0.00    +0.000 A 
ATOM     25  C   UNL     1       1.868   4.801  20.171  0.00  0.00    +0.000 A 
ATOM     26  C   UNL     1       2.312   3.562  20.620  0.00  0.00    +0.000 A 
ATOM     27 CL   UNL     1       1.327   2.630  21.677  0.00  0.00    +0.000 Cl
ATOM     28  C   UNL     1       3.546   3.077  20.219  0.00  0.00    +0.000 A 
ATOM     29  C   UNL     1       4.334   3.839  19.356  0.00  0.00    +0.000 A 
ATOM     30  C   UNL     1       3.904   5.109  18.886  0.00  0.00    +0.000 A 
ENDBRANCH  18  20
ENDBRANCH  17  18
ENDBRANCH  16  17
ENDBRANCH   1  16
TORSDOF 6
ENDMDL
MODEL 9
REMARK VINA RESULT:      -7.4      5.003      7.881
REMARK  Name = 
REMARK  6 active torsions:
REMARK  status: ('A' for Active; 'I' for Inactive)
REMARK    1  A    between atoms: C_4  and  N_5
REMARK    2  A    between atoms: N_5  and  C_6
REMARK    3  A    between atoms: C_6  and  C_7
REMARK    4  A    between atoms: C_7  and  C_8
REMARK    5  A    between atoms: C_8  and  N_9
REMARK    6  A    between atoms: N_9  and  C_10
REMARK                            x       y       z     vdW  Elec       q    Type
REMARK                         _______ _______ _______ _____ _____    ______ ____
ROOT
ATOM      1  C   UNL     1       0.545   9.901  20.777  0.00  0.00    +0.000 C 
ENDROOT
BRANCH   1   2
ATOM      2  N   UNL     1       0.324   9.822  19.352  0.00  0.00    +0.000 N 
ATOM      3  H   UNL     1       1.086   9.625  18.711  0.00  0.00    +0.000 HD
BRANCH   2   7
ATOM      4  N   UNL     1      -2.773  10.248  15.690  0.00  0.00    +0.000 N 
ATOM      5  C   UNL     1      -2.333  10.560  16.979  0.00  0.00    +0.000 A 
ATOM      6  C   UNL     1      -1.208   9.959  17.484  0.00  0.00    +0.000 A 
ATOM      7  C   UNL     1      -0.801  10.337  18.746  0.00  0.00    +0.000 A 
ATOM      8  N   UNL     1      -1.473  11.261  19.442  0.00  0.00    +0.000 NA
ATOM      9  C   UNL     1      -2.556  11.795  18.866  0.00  0.00    +0.000 A 
ATOM     10  N   UNL     1      -3.229  12.782  19.562  0.00  0.00    +0.000 N 
ATOM     11  N   UNL     1      -3.013  11.491  17.649  0.00  0.00    +0.000 NA
ATOM     12  H   UNL     1      -2.871   9.250  15.546  0.00  0.00    +0.000 HD
ATOM     13  H   UNL     1      -3.643  10.747  15.531  0.00  0.00    +0.000 HD
ATOM     14  H   UNL     1      -2.588  13.233  20.200  0.00  0.00    +0.000 HD
ATOM     15  H   UNL     1      -3.714  13.376  18.903  0.00  0.00    +0.000 HD
ENDBRANCH   2   7
ENDBRANCH   1   2
BRANCH   1  16
ATOM     16  C   UNL     1       0.881   8.541  21.375  0.00  0.00    +0.000 C 
BRANCH  16  17
ATOM     17  C   UNL     1       1.565   7.691  20.305  0.00  0.00    +0.000 C 
BRANCH  17  18
ATOM     18  N   UNL     1       2.148   6.473  20.862  0.00  0.00    +0.000 N 
ATOM     19  H   UNL     1       1.860   6.348  21.827  0.00  0.00    +0.000 HD
BRANCH  18  20
ATOM     20  C   UNL     1       2.055   5.269  20.127  0.00  0.00    +0.000 A 
ATOM     21  C   UNL     1       1.046   4.337  20.398  0.00  0.00    +0.000 A 
ATOM     22  C   UNL     1       0.922   3.216  19.607  0.00  0.00    +0.000 A 
ATOM     23  N   UNL     1       1.715   2.950  18.557  0.00  0.00    +0.000 NA
ATOM     24  C   UNL     1       2.673   3.837  18.257  0.00  0.00    +0.000 A 
ATOM     25  C   UNL     1       3.469   3.547  17.161  0.00  0.00    +0.000 A 
ATOM     26  C   UNL     1       4.496   4.398  16.767  0.00  0.00    +0.000 A 
ATOM     27 CL   UNL     1       5.464   4.000  15.403  0.00  0.00    +0.000 Cl
ATOM     28  C   UNL     1       4.742   5.565  17.472  0.00  0.00    +0.000 A 
ATOM     29  C   UNL     1       3.947   5.881  18.574  0.00  0.00    +0.000 A 
ATOM     30  C   UNL     1       2.894   5.026  18.998  0.00  0.00    +0.000 A 
ENDBRANCH  18  20
ENDBRANCH  17  18
ENDBRANCH  16  17
ENDBRANCH   1  16
TORSDOF 6
ENDMDL
