MODEL 1
REMARK VINA RESULT:      -9.0      0.000      0.000
REMARK  Name = 
REMARK  9 active torsions:
REMARK  status: ('A' for Active; 'I' for Inactive)
REMARK    1  A    between atoms: C_1  and  C_2
REMARK    2  A    between atoms: N_7  and  C_8
REMARK    3  A    between atoms: N_11  and  C_12
REMARK    4  A    between atoms: C_15  and  N_16
REMARK    5  A    between atoms: C_23  and  O_25
REMARK    6  A    between atoms: O_25  and  C_26
REMARK    7  A    between atoms: C_26  and  C_27
REMARK    8  A    between atoms: C_26  and  C_28
REMARK    9  A    between atoms: C_26  and  C_29
REMARK                            x       y       z     vdW  Elec       q    Type
REMARK                         _______ _______ _______ _____ _____    ______ ____
ROOT
ATOM      1  C   UNL     1       2.881   7.245  18.541  0.00  0.00    +0.000 A 
ATOM      2  C   UNL     1       2.181   7.471  19.740  0.00  0.00    +0.000 A 
ATOM      3  C   UNL     1       1.453   8.661  20.008  0.00  0.00    +0.000 A 
ATOM      4  C   UNL     1       1.402   9.690  19.068  0.00  0.00    +0.000 A 
ATOM      5  C   UNL     1       2.034   9.452  17.860  0.00  0.00    +0.000 A 
ATOM      6  C   UNL     1       2.740   8.266  17.588  0.00  0.00    +0.000 A 
ENDROOT
BRANCH   4   7
ATOM      7  N   UNL     1       0.726  10.930  19.300  0.00  0.00    +0.000 N 
ATOM      8  C   UNL     1       0.312  11.759  18.168  0.00  0.00    +0.000 C 
ATOM      9  C   UNL     1      -0.193  13.043  18.808  0.00  0.00    +0.000 C 
ATOM     10  C   UNL     1      -0.839  12.531  20.103  0.00  0.00    +0.000 C 
ATOM     11  C   UNL     1      -2.043  11.634  19.782  0.00  0.00    +0.000 C 
ATOM     12  C   UNL     1      -3.360  12.420  19.777  0.00  0.00    +0.000 C 
ATOM     13  N   UNL     1      -3.724  13.501  20.655  0.00  0.00    +0.000 N 
ATOM     14  C   UNL     1      -4.826  13.099  21.445  0.00  0.00    +0.000 C 
ATOM     15  O   UNL     1      -5.499  12.108  21.179  0.00  0.00    +0.000 OA
ATOM     16  C   UNL     1      -2.631  14.381  21.072  0.00  0.00    +0.000 C 
ATOM     17  C   UNL     1      -1.208  13.687  21.114  0.00  0.00    +0.000 C 
ATOM     18  C   UNL     1       0.222  11.503  20.539  0.00  0.00    +0.000 C 
ATOM     19  O   UNL     1       0.458  11.149  21.692  0.00  0.00    +0.000 OA
BRANCH  14  20
ATOM     20  O   UNL     1      -4.952  13.811  22.569  0.00  0.00    +0.000 OA
BRANCH  20  21
ATOM     21  C   UNL     1      -4.589  13.249  23.851  0.00  0.00    +0.000 C 
ATOM     22  C   UNL     1      -3.426  12.246  23.753  0.00  0.00    +0.000 C 
ATOM     23  C   UNL     1      -4.127  14.514  24.571  0.00  0.00    +0.000 C 
ATOM     24  C   UNL     1      -5.766  12.617  24.610  0.00  0.00    +0.000 C 
ENDBRANCH  20  21
ENDBRANCH  14  20
ENDBRANCH   4   7
BRANCH   1  28
ATOM     25  C   UNL     1       4.250   3.828  18.599  0.00  0.00    +0.000 C 
ATOM     26  C   UNL     1       4.286   4.224  17.101  0.00  0.00    +0.000 C 
ATOM     27  C   UNL     1       4.279   5.761  17.051  0.00  0.00    +0.000 C 
ATOM     28  N   UNL     1       3.676   6.150  18.312  0.00  0.00    +0.000 N 
ATOM     29  C   UNL     1       4.094   5.189  19.336  0.00  0.00    +0.000 C 
BRANCH  25  36
ATOM     30  C   UNL     1       4.649   1.750  20.846  0.00  0.00    +0.000 C 
ATOM     31  C   UNL     1       3.292   2.164  20.273  0.00  0.00    +0.000 C 
ATOM     32  C   UNL     1       2.534   3.071  21.255  0.00  0.00    +0.000 C 
ATOM     33  C   UNL     1       1.137   3.434  20.747  0.00  0.00    +0.000 C 
ATOM     34  C   UNL     1       1.062   3.737  19.252  0.00  0.00    +0.000 C 
ATOM     35  C   UNL     1       1.950   2.829  18.405  0.00  0.00    +0.000 C 
ATOM     36  N   UNL     1       3.334   2.690  18.890  0.00  0.00    +0.000 NA
ENDBRANCH  25  36
ENDBRANCH   1  28
TORSDOF 5
ENDMDL
MODEL 2
REMARK VINA RESULT:      -8.9      1.435      2.995
REMARK  Name = 
REMARK  9 active torsions:
REMARK  status: ('A' for Active; 'I' for Inactive)
REMARK    1  A    between atoms: C_1  and  C_2
REMARK    2  A    between atoms: N_7  and  C_8
REMARK    3  A    between atoms: N_11  and  C_12
REMARK    4  A    between atoms: C_15  and  N_16
REMARK    5  A    between atoms: C_23  and  O_25
REMARK    6  A    between atoms: O_25  and  C_26
REMARK    7  A    between atoms: C_26  and  C_27
REMARK    8  A    between atoms: C_26  and  C_28
REMARK    9  A    between atoms: C_26  and  C_29
REMARK                            x       y       z     vdW  Elec       q    Type
REMARK                         _______ _______ _______ _____ _____    ______ ____
ROOT
ATOM      1  C   UNL     1       2.587   6.361  18.978  0.00  0.00    +0.000 A 
ATOM      2  C   UNL     1       2.018   6.720  20.213  0.00  0.00    +0.000 A 
ATOM      3  C   UNL     1       1.527   8.023  20.499  0.00  0.00    +0.000 A 
ATOM      4  C   UNL     1       1.593   9.033  19.541  0.00  0.00    +0.000 A 
ATOM      5  C   UNL     1       2.093   8.674  18.301  0.00  0.00    +0.000 A 
ATOM      6  C   UNL     1       2.563   7.380  18.013  0.00  0.00    +0.000 A 
ENDROOT
BRANCH   4   7
ATOM      7  N   UNL     1       1.159  10.375  19.786  0.00  0.00    +0.000 N 
ATOM      8  C   UNL     1       1.089  11.333  18.682  0.00  0.00    +0.000 C 
ATOM      9  C   UNL     1       0.772  12.659  19.356  0.00  0.00    +0.000 C 
ATOM     10  C   UNL     1      -0.143  12.228  20.512  0.00  0.00    +0.000 C 
ATOM     11  C   UNL     1      -1.447  11.628  19.967  0.00  0.00    +0.000 C 
ATOM     12  C   UNL     1      -2.561  12.677  19.858  0.00  0.00    +0.000 C 
ATOM     13  N   UNL     1      -2.817  13.762  20.769  0.00  0.00    +0.000 N 
ATOM     14  C   UNL     1      -4.079  13.564  21.376  0.00  0.00    +0.000 C 
ATOM     15  O   UNL     1      -4.896  12.755  20.945  0.00  0.00    +0.000 OA
ATOM     16  C   UNL     1      -1.638  14.364  21.393  0.00  0.00    +0.000 C 
ATOM     17  C   UNL     1      -0.408  13.380  21.559  0.00  0.00    +0.000 C 
ATOM     18  C   UNL     1       0.612  10.975  20.993  0.00  0.00    +0.000 C 
ATOM     19  O   UNL     1       0.605  10.518  22.134  0.00  0.00    +0.000 OA
BRANCH  14  20
ATOM     20  O   UNL     1      -4.215  14.224  22.529  0.00  0.00    +0.000 OA
BRANCH  20  21
ATOM     21  C   UNL     1      -4.096  13.540  23.798  0.00  0.00    +0.000 C 
ATOM     22  C   UNL     1      -3.476  14.423  24.895  0.00  0.00    +0.000 C 
ATOM     23  C   UNL     1      -5.572  13.290  24.101  0.00  0.00    +0.000 C 
ATOM     24  C   UNL     1      -3.347  12.201  23.715  0.00  0.00    +0.000 C 
ENDBRANCH  20  21
ENDBRANCH  14  20
ENDBRANCH   4   7
BRANCH   1  28
ATOM     25  C   UNL     1       4.767   3.725  17.619  0.00  0.00    +0.000 C 
ATOM     26  C   UNL     1       4.746   3.449  19.144  0.00  0.00    +0.000 C 
ATOM     27  C   UNL     1       3.469   4.107  19.694  0.00  0.00    +0.000 C 
ATOM     28  N   UNL     1       3.163   5.142  18.725  0.00  0.00    +0.000 N 
ATOM     29  C   UNL     1       3.538   4.652  17.396  0.00  0.00    +0.000 C 
BRANCH  25  36
ATOM     30  C   UNL     1       5.466   4.199  14.651  0.00  0.00    +0.000 C 
ATOM     31  C   UNL     1       6.187   4.854  15.831  0.00  0.00    +0.000 C 
ATOM     32  C   UNL     1       5.791   6.332  15.968  0.00  0.00    +0.000 C 
ATOM     33  C   UNL     1       6.559   7.036  17.088  0.00  0.00    +0.000 C 
ATOM     34  C   UNL     1       6.749   6.200  18.353  0.00  0.00    +0.000 C 
ATOM     35  C   UNL     1       7.029   4.727  18.069  0.00  0.00    +0.000 C 
ATOM     36  N   UNL     1       6.114   4.099  17.102  0.00  0.00    +0.000 NA
ENDBRANCH  25  36
ENDBRANCH   1  28
TORSDOF 5
ENDMDL
MODEL 3
REMARK VINA RESULT:      -8.8      1.561      2.038
REMARK  Name = 
REMARK  9 active torsions:
REMARK  status: ('A' for Active; 'I' for Inactive)
REMARK    1  A    between atoms: C_1  and  C_2
REMARK    2  A    between atoms: N_7  and  C_8
REMARK    3  A    between atoms: N_11  and  C_12
REMARK    4  A    between atoms: C_15  and  N_16
REMARK    5  A    between atoms: C_23  and  O_25
REMARK    6  A    between atoms: O_25  and  C_26
REMARK    7  A    between atoms: C_26  and  C_27
REMARK    8  A    between atoms: C_26  and  C_28
REMARK    9  A    between atoms: C_26  and  C_29
REMARK                            x       y       z     vdW  Elec       q    Type
REMARK                         _______ _______ _______ _____ _____    ______ ____
ROOT
ATOM      1  C   UNL     1       2.666   7.550  18.700  0.00  0.00    +0.000 A 
ATOM      2  C   UNL     1       1.977   7.776  19.905  0.00  0.00    +0.000 A 
ATOM      3  C   UNL     1       1.028   8.819  20.079  0.00  0.00    +0.000 A 
ATOM      4  C   UNL     1       0.733   9.693  19.034  0.00  0.00    +0.000 A 
ATOM      5  C   UNL     1       1.357   9.440  17.825  0.00  0.00    +0.000 A 
ATOM      6  C   UNL     1       2.283   8.396  17.648  0.00  0.00    +0.000 A 
ENDROOT
BRANCH   4   7
ATOM      7  N   UNL     1      -0.177  10.790  19.164  0.00  0.00    +0.000 N 
ATOM      8  C   UNL     1      -1.563  10.647  18.716  0.00  0.00    +0.000 C 
ATOM      9  C   UNL     1      -2.145  12.046  18.846  0.00  0.00    +0.000 C 
ATOM     10  C   UNL     1      -1.432  12.583  20.097  0.00  0.00    +0.000 C 
ATOM     11  C   UNL     1      -1.833  11.765  21.332  0.00  0.00    +0.000 C 
ATOM     12  C   UNL     1      -3.009  12.400  22.084  0.00  0.00    +0.000 C 
ATOM     13  N   UNL     1      -3.255  13.806  22.277  0.00  0.00    +0.000 N 
ATOM     14  C   UNL     1      -3.175  14.101  23.657  0.00  0.00    +0.000 C 
ATOM     15  O   UNL     1      -3.188  13.226  24.519  0.00  0.00    +0.000 OA
ATOM     16  C   UNL     1      -2.849  14.681  21.176  0.00  0.00    +0.000 C 
ATOM     17  C   UNL     1      -1.639  14.134  20.313  0.00  0.00    +0.000 C 
ATOM     18  C   UNL     1      -0.004  12.076  19.823  0.00  0.00    +0.000 C 
ATOM     19  O   UNL     1       1.037  12.589  20.227  0.00  0.00    +0.000 OA
BRANCH  14  20
ATOM     20  O   UNL     1      -2.932  15.392  23.904  0.00  0.00    +0.000 OA
BRANCH  20  21
ATOM     21  C   UNL     1      -1.663  15.820  24.448  0.00  0.00    +0.000 C 
ATOM     22  C   UNL     1      -0.462  15.172  23.739  0.00  0.00    +0.000 C 
ATOM     23  C   UNL     1      -1.724  17.310  24.115  0.00  0.00    +0.000 C 
ATOM     24  C   UNL     1      -1.542  15.631  25.968  0.00  0.00    +0.000 C 
ENDBRANCH  20  21
ENDBRANCH  14  20
ENDBRANCH   4   7
BRANCH   1  28
ATOM     25  C   UNL     1       4.501   4.360  18.596  0.00  0.00    +0.000 C 
ATOM     26  C   UNL     1       4.907   5.073  17.281  0.00  0.00    +0.000 C 
ATOM     27  C   UNL     1       4.662   6.575  17.499  0.00  0.00    +0.000 C 
ATOM     28  N   UNL     1       3.662   6.618  18.550  0.00  0.00    +0.000 N 
ATOM     29  C   UNL     1       3.915   5.506  19.470  0.00  0.00    +0.000 C 
BRANCH  25  36
ATOM     30  C   UNL     1       4.572   1.893  20.450  0.00  0.00    +0.000 C 
ATOM     31  C   UNL     1       3.389   2.282  19.561  0.00  0.00    +0.000 C 
ATOM     32  C   UNL     1       2.241   2.869  20.396  0.00  0.00    +0.000 C 
ATOM     33  C   UNL     1       1.010   3.189  19.546  0.00  0.00    +0.000 C 
ATOM     34  C   UNL     1       1.321   3.803  18.182  0.00  0.00    +0.000 C 
ATOM     35  C   UNL     1       2.552   3.198  17.513  0.00  0.00    +0.000 C 
ATOM     36  N   UNL     1       3.740   3.098  18.377  0.00  0.00    +0.000 NA
ENDBRANCH  25  36
ENDBRANCH   1  28
TORSDOF 5
ENDMDL
MODEL 4
REMARK VINA RESULT:      -8.8      1.616      3.111
REMARK  Name = 
REMARK  9 active torsions:
REMARK  status: ('A' for Active; 'I' for Inactive)
REMARK    1  A    between atoms: C_1  and  C_2
REMARK    2  A    between atoms: N_7  and  C_8
REMARK    3  A    between atoms: N_11  and  C_12
REMARK    4  A    between atoms: C_15  and  N_16
REMARK    5  A    between atoms: C_23  and  O_25
REMARK    6  A    between atoms: O_25  and  C_26
REMARK    7  A    between atoms: C_26  and  C_27
REMARK    8  A    between atoms: C_26  and  C_28
REMARK    9  A    between atoms: C_26  and  C_29
REMARK                            x       y       z     vdW  Elec       q    Type
REMARK                         _______ _______ _______ _____ _____    ______ ____
ROOT
ATOM      1  C   UNL     1       2.485   6.321  19.077  0.00  0.00    +0.000 A 
ATOM      2  C   UNL     1       1.971   6.637  20.347  0.00  0.00    +0.000 A 
ATOM      3  C   UNL     1       1.476   7.923  20.692  0.00  0.00    +0.000 A 
ATOM      4  C   UNL     1       1.482   8.961  19.761  0.00  0.00    +0.000 A 
ATOM      5  C   UNL     1       1.926   8.643  18.489  0.00  0.00    +0.000 A 
ATOM      6  C   UNL     1       2.400   7.365  18.143  0.00  0.00    +0.000 A 
ENDROOT
BRANCH   4   7
ATOM      7  N   UNL     1       1.041  10.288  20.064  0.00  0.00    +0.000 N 
ATOM      8  C   UNL     1       0.950  11.289  19.000  0.00  0.00    +0.000 C 
ATOM      9  C   UNL     1       0.632  12.584  19.730  0.00  0.00    +0.000 C 
ATOM     10  C   UNL     1      -0.267  12.101  20.878  0.00  0.00    +0.000 C 
ATOM     11  C   UNL     1      -1.572  11.513  20.325  0.00  0.00    +0.000 C 
ATOM     12  C   UNL     1      -2.694  12.557  20.271  0.00  0.00    +0.000 C 
ATOM     13  N   UNL     1      -2.948  13.603  21.227  0.00  0.00    +0.000 N 
ATOM     14  C   UNL     1      -4.201  13.371  21.840  0.00  0.00    +0.000 C 
ATOM     15  O   UNL     1      -5.017  12.574  21.387  0.00  0.00    +0.000 OA
ATOM     16  C   UNL     1      -1.766  14.189  21.861  0.00  0.00    +0.000 C 
ATOM     17  C   UNL     1      -0.527  13.209  21.973  0.00  0.00    +0.000 C 
ATOM     18  C   UNL     1       0.504  10.836  21.300  0.00  0.00    +0.000 C 
ATOM     19  O   UNL     1       0.513  10.334  22.422  0.00  0.00    +0.000 OA
BRANCH  14  20
ATOM     20  O   UNL     1      -4.328  13.985  23.020  0.00  0.00    +0.000 OA
BRANCH  20  21
ATOM     21  C   UNL     1      -5.202  15.127  23.175  0.00  0.00    +0.000 C 
ATOM     22  C   UNL     1      -6.582  14.747  23.739  0.00  0.00    +0.000 C 
ATOM     23  C   UNL     1      -4.414  15.921  24.214  0.00  0.00    +0.000 C 
ATOM     24  C   UNL     1      -5.368  15.962  21.896  0.00  0.00    +0.000 C 
ENDBRANCH  20  21
ENDBRANCH  14  20
ENDBRANCH   4   7
BRANCH   1  28
ATOM     25  C   UNL     1       4.669   3.763  17.580  0.00  0.00    +0.000 C 
ATOM     26  C   UNL     1       4.660   3.416  19.090  0.00  0.00    +0.000 C 
ATOM     27  C   UNL     1       3.384   4.040  19.679  0.00  0.00    +0.000 C 
ATOM     28  N   UNL     1       3.066   5.118  18.762  0.00  0.00    +0.000 N 
ATOM     29  C   UNL     1       3.434   4.693  17.409  0.00  0.00    +0.000 C 
BRANCH  25  36
ATOM     30  C   UNL     1       5.347   4.372  14.631  0.00  0.00    +0.000 C 
ATOM     31  C   UNL     1       6.071   4.979  15.835  0.00  0.00    +0.000 C 
ATOM     32  C   UNL     1       5.667   6.447  16.039  0.00  0.00    +0.000 C 
ATOM     33  C   UNL     1       6.437   7.107  17.184  0.00  0.00    +0.000 C 
ATOM     34  C   UNL     1       6.639   6.218  18.411  0.00  0.00    +0.000 C 
ATOM     35  C   UNL     1       6.927   4.760  18.061  0.00  0.00    +0.000 C 
ATOM     36  N   UNL     1       6.010   4.169  17.072  0.00  0.00    +0.000 NA
ENDBRANCH  25  36
ENDBRANCH   1  28
TORSDOF 5
ENDMDL
MODEL 5
REMARK VINA RESULT:      -8.7      1.068      1.265
REMARK  Name = 
REMARK  9 active torsions:
REMARK  status: ('A' for Active; 'I' for Inactive)
REMARK    1  A    between atoms: C_1  and  C_2
REMARK    2  A    between atoms: N_7  and  C_8
REMARK    3  A    between atoms: N_11  and  C_12
REMARK    4  A    between atoms: C_15  and  N_16
REMARK    5  A    between atoms: C_23  and  O_25
REMARK    6  A    between atoms: O_25  and  C_26
REMARK    7  A    between atoms: C_26  and  C_27
REMARK    8  A    between atoms: C_26  and  C_28
REMARK    9  A    between atoms: C_26  and  C_29
REMARK                            x       y       z     vdW  Elec       q    Type
REMARK                         _______ _______ _______ _____ _____    ______ ____
ROOT
ATOM      1  C   UNL     1       2.312   7.779  18.904  0.00  0.00    +0.000 A 
ATOM      2  C   UNL     1       1.736   8.034  20.161  0.00  0.00    +0.000 A 
ATOM      3  C   UNL     1       0.943   9.179  20.441  0.00  0.00    +0.000 A 
ATOM      4  C   UNL     1       0.696  10.131  19.453  0.00  0.00    +0.000 A 
ATOM      5  C   UNL     1       1.204   9.857  18.194  0.00  0.00    +0.000 A 
ATOM      6  C   UNL     1       1.975   8.715  17.914  0.00  0.00    +0.000 A 
ENDROOT
BRANCH   4   7
ATOM      7  N   UNL     1      -0.054  11.327  19.686  0.00  0.00    +0.000 N 
ATOM      8  C   UNL     1      -0.328  12.246  18.581  0.00  0.00    +0.000 C 
ATOM      9  C   UNL     1      -0.972  13.452  19.247  0.00  0.00    +0.000 C 
ATOM     10  C   UNL     1      -1.783  12.807  20.380  0.00  0.00    +0.000 C 
ATOM     11  C   UNL     1      -2.890  11.914  19.803  0.00  0.00    +0.000 C 
ATOM     12  C   UNL     1      -4.221  12.663  19.668  0.00  0.00    +0.000 C 
ATOM     13  N   UNL     1      -4.753  13.649  20.572  0.00  0.00    +0.000 N 
ATOM     14  C   UNL     1      -5.943  13.149  21.147  0.00  0.00    +0.000 C 
ATOM     15  O   UNL     1      -6.531  12.169  20.697  0.00  0.00    +0.000 OA
ATOM     16  C   UNL     1      -3.769  14.515  21.224  0.00  0.00    +0.000 C 
ATOM     17  C   UNL     1      -2.342  13.855  21.420  0.00  0.00    +0.000 C 
ATOM     18  C   UNL     1      -0.759  11.770  20.880  0.00  0.00    +0.000 C 
ATOM     19  O   UNL     1      -0.683  11.318  22.020  0.00  0.00    +0.000 OA
BRANCH  14  20
ATOM     20  O   UNL     1      -6.263  13.751  22.297  0.00  0.00    +0.000 OA
BRANCH  20  21
ATOM     21  C   UNL     1      -6.778  12.993  23.416  0.00  0.00    +0.000 C 
ATOM     22  C   UNL     1      -5.664  12.394  24.293  0.00  0.00    +0.000 C 
ATOM     23  C   UNL     1      -7.500  14.104  24.176  0.00  0.00    +0.000 C 
ATOM     24  C   UNL     1      -7.780  11.898  23.018  0.00  0.00    +0.000 C 
ENDBRANCH  20  21
ENDBRANCH  14  20
ENDBRANCH   4   7
BRANCH   1  28
ATOM     25  C   UNL     1       3.801   4.415  18.761  0.00  0.00    +0.000 C 
ATOM     26  C   UNL     1       3.970   4.965  17.322  0.00  0.00    +0.000 C 
ATOM     27  C   UNL     1       3.907   6.498  17.424  0.00  0.00    +0.000 C 
ATOM     28  N   UNL     1       3.168   6.737  18.649  0.00  0.00    +0.000 N 
ATOM     29  C   UNL     1       3.520   5.688  19.610  0.00  0.00    +0.000 C 
BRANCH  25  36
ATOM     30  C   UNL     1       4.594   1.663  19.912  0.00  0.00    +0.000 C 
ATOM     31  C   UNL     1       3.170   2.226  19.899  0.00  0.00    +0.000 C 
ATOM     32  C   UNL     1       2.746   2.684  21.303  0.00  0.00    +0.000 C 
ATOM     33  C   UNL     1       1.298   3.173  21.340  0.00  0.00    +0.000 C 
ATOM     34  C   UNL     1       0.876   4.007  20.131  0.00  0.00    +0.000 C 
ATOM     35  C   UNL     1       1.459   3.501  18.814  0.00  0.00    +0.000 C 
ATOM     36  N   UNL     1       2.906   3.227  18.842  0.00  0.00    +0.000 NA
ENDBRANCH  25  36
ENDBRANCH   1  28
TORSDOF 5
ENDMDL
MODEL 6
REMARK VINA RESULT:      -8.6      1.563      1.992
REMARK  Name = 
REMARK  9 active torsions:
REMARK  status: ('A' for Active; 'I' for Inactive)
REMARK    1  A    between atoms: C_1  and  C_2
REMARK    2  A    between atoms: N_7  and  C_8
REMARK    3  A    between atoms: N_11  and  C_12
REMARK    4  A    between atoms: C_15  and  N_16
REMARK    5  A    between atoms: C_23  and  O_25
REMARK    6  A    between atoms: O_25  and  C_26
REMARK    7  A    between atoms: C_26  and  C_27
REMARK    8  A    between atoms: C_26  and  C_28
REMARK    9  A    between atoms: C_26  and  C_29
REMARK                            x       y       z     vdW  Elec       q    Type
REMARK                         _______ _______ _______ _____ _____    ______ ____
ROOT
ATOM      1  C   UNL     1       2.963   7.240  18.478  0.00  0.00    +0.000 A 
ATOM      2  C   UNL     1       2.160   7.433  19.617  0.00  0.00    +0.000 A 
ATOM      3  C   UNL     1       1.285   8.541  19.778  0.00  0.00    +0.000 A 
ATOM      4  C   UNL     1       1.184   9.517  18.788  0.00  0.00    +0.000 A 
ATOM      5  C   UNL     1       1.922   9.304  17.636  0.00  0.00    +0.000 A 
ATOM      6  C   UNL     1       2.775   8.198  17.470  0.00  0.00    +0.000 A 
ENDROOT
BRANCH   4   7
ATOM      7  N   UNL     1       0.358  10.679  18.915  0.00  0.00    +0.000 N 
ATOM      8  C   UNL     1      -1.030  10.642  18.451  0.00  0.00    +0.000 C 
ATOM      9  C   UNL     1      -1.507  12.080  18.583  0.00  0.00    +0.000 C 
ATOM     10  C   UNL     1      -0.771  12.555  19.845  0.00  0.00    +0.000 C 
ATOM     11  C   UNL     1      -1.247  11.763  21.071  0.00  0.00    +0.000 C 
ATOM     12  C   UNL     1      -2.381  12.479  21.813  0.00  0.00    +0.000 C 
ATOM     13  N   UNL     1      -2.523  13.898  22.012  0.00  0.00    +0.000 N 
ATOM     14  C   UNL     1      -2.437  14.179  23.395  0.00  0.00    +0.000 C 
ATOM     15  O   UNL     1      -2.526  13.303  24.251  0.00  0.00    +0.000 OA
ATOM     16  C   UNL     1      -2.039  14.747  20.921  0.00  0.00    +0.000 C 
ATOM     17  C   UNL     1      -0.863  14.115  20.069  0.00  0.00    +0.000 C 
ATOM     18  C   UNL     1       0.619  11.944  19.585  0.00  0.00    +0.000 C 
ATOM     19  O   UNL     1       1.690  12.376  20.003  0.00  0.00    +0.000 OA
BRANCH  14  20
ATOM     20  O   UNL     1      -2.102  15.446  23.653  0.00  0.00    +0.000 OA
BRANCH  20  21
ATOM     21  C   UNL     1      -3.109  16.429  23.990  0.00  0.00    +0.000 C 
ATOM     22  C   UNL     1      -4.503  15.810  24.184  0.00  0.00    +0.000 C 
ATOM     23  C   UNL     1      -2.562  16.916  25.330  0.00  0.00    +0.000 C 
ATOM     24  C   UNL     1      -3.188  17.603  23.002  0.00  0.00    +0.000 C 
ENDBRANCH  20  21
ENDBRANCH  14  20
ENDBRANCH   4   7
BRANCH   1  28
ATOM     25  C   UNL     1       4.613   3.952  18.603  0.00  0.00    +0.000 C 
ATOM     26  C   UNL     1       4.928   4.480  17.180  0.00  0.00    +0.000 C 
ATOM     27  C   UNL     1       4.783   6.010  17.234  0.00  0.00    +0.000 C 
ATOM     28  N   UNL     1       3.891   6.237  18.355  0.00  0.00    +0.000 N 
ATOM     29  C   UNL     1       4.173   5.227  19.378  0.00  0.00    +0.000 C 
BRANCH  25  36
ATOM     30  C   UNL     1       4.585   1.819  20.833  0.00  0.00    +0.000 C 
ATOM     31  C   UNL     1       3.403   2.134  19.914  0.00  0.00    +0.000 C 
ATOM     32  C   UNL     1       2.318   2.922  20.662  0.00  0.00    +0.000 C 
ATOM     33  C   UNL     1       1.085   3.179  19.794  0.00  0.00    +0.000 C 
ATOM     34  C   UNL     1       1.394   3.542  18.342  0.00  0.00    +0.000 C 
ATOM     35  C   UNL     1       2.567   2.758  17.759  0.00  0.00    +0.000 C 
ATOM     36  N   UNL     1       3.770   2.723  18.607  0.00  0.00    +0.000 NA
ENDBRANCH  25  36
ENDBRANCH   1  28
TORSDOF 5
ENDMDL
MODEL 7
REMARK VINA RESULT:      -8.5      3.121      5.202
REMARK  Name = 
REMARK  9 active torsions:
REMARK  status: ('A' for Active; 'I' for Inactive)
REMARK    1  A    between atoms: C_1  and  C_2
REMARK    2  A    between atoms: N_7  and  C_8
REMARK    3  A    between atoms: N_11  and  C_12
REMARK    4  A    between atoms: C_15  and  N_16
REMARK    5  A    between atoms: C_23  and  O_25
REMARK    6  A    between atoms: O_25  and  C_26
REMARK    7  A    between atoms: C_26  and  C_27
REMARK    8  A    between atoms: C_26  and  C_28
REMARK    9  A    between atoms: C_26  and  C_29
REMARK                            x       y       z     vdW  Elec       q    Type
REMARK                         _______ _______ _______ _____ _____    ______ ____
ROOT
ATOM      1  C   UNL     1       2.553   6.050  19.102  0.00  0.00    +0.000 A 
ATOM      2  C   UNL     1       1.918   6.258  20.340  0.00  0.00    +0.000 A 
ATOM      3  C   UNL     1       1.305   7.487  20.708  0.00  0.00    +0.000 A 
ATOM      4  C   UNL     1       1.311   8.573  19.834  0.00  0.00    +0.000 A 
ATOM      5  C   UNL     1       1.877   8.359  18.589  0.00  0.00    +0.000 A 
ATOM      6  C   UNL     1       2.468   7.138  18.219  0.00  0.00    +0.000 A 
ENDROOT
BRANCH   4   7
ATOM      7  N   UNL     1       0.753   9.849  20.166  0.00  0.00    +0.000 N 
ATOM      8  C   UNL     1       1.000  10.433  21.485  0.00  0.00    +0.000 C 
ATOM      9  C   UNL     1       0.113  11.669  21.519  0.00  0.00    +0.000 C 
ATOM     10  C   UNL     1       0.169  12.152  20.063  0.00  0.00    +0.000 C 
ATOM     11  C   UNL     1       1.596  12.581  19.696  0.00  0.00    +0.000 C 
ATOM     12  C   UNL     1       1.815  14.084  19.899  0.00  0.00    +0.000 C 
ATOM     13  N   UNL     1       0.866  15.138  19.651  0.00  0.00    +0.000 N 
ATOM     14  C   UNL     1       1.355  15.960  18.610  0.00  0.00    +0.000 C 
ATOM     15  O   UNL     1       2.521  15.914  18.228  0.00  0.00    +0.000 OA
ATOM     16  C   UNL     1      -0.537  14.808  19.912  0.00  0.00    +0.000 C 
ATOM     17  C   UNL     1      -0.894  13.275  19.739  0.00  0.00    +0.000 C 
ATOM     18  C   UNL     1       0.038  10.803  19.332  0.00  0.00    +0.000 C 
ATOM     19  O   UNL     1      -0.434  10.628  18.211  0.00  0.00    +0.000 OA
BRANCH  14  20
ATOM     20  O   UNL     1       0.394  16.661  18.001  0.00  0.00    +0.000 OA
BRANCH  20  21
ATOM     21  C   UNL     1       0.240  18.079  18.242  0.00  0.00    +0.000 C 
ATOM     22  C   UNL     1       1.105  18.581  19.410  0.00  0.00    +0.000 C 
ATOM     23  C   UNL     1       0.775  18.629  16.922  0.00  0.00    +0.000 C 
ATOM     24  C   UNL     1      -1.218  18.522  18.438  0.00  0.00    +0.000 C 
ENDBRANCH  20  21
ENDBRANCH  14  20
ENDBRANCH   4   7
BRANCH   1  28
ATOM     25  C   UNL     1       4.940   3.713  17.556  0.00  0.00    +0.000 C 
ATOM     26  C   UNL     1       5.007   3.377  19.067  0.00  0.00    +0.000 C 
ATOM     27  C   UNL     1       3.692   3.875  19.689  0.00  0.00    +0.000 C 
ATOM     28  N   UNL     1       3.242   4.910  18.777  0.00  0.00    +0.000 N 
ATOM     29  C   UNL     1       3.614   4.514  17.416  0.00  0.00    +0.000 C 
BRANCH  25  36
ATOM     30  C   UNL     1       5.442   4.453  14.601  0.00  0.00    +0.000 C 
ATOM     31  C   UNL     1       6.159   5.090  15.794  0.00  0.00    +0.000 C 
ATOM     32  C   UNL     1       5.638   6.512  16.055  0.00  0.00    +0.000 C 
ATOM     33  C   UNL     1       6.395   7.207  17.188  0.00  0.00    +0.000 C 
ATOM     34  C   UNL     1       6.722   6.309  18.380  0.00  0.00    +0.000 C 
ATOM     35  C   UNL     1       7.121   4.892  17.978  0.00  0.00    +0.000 C 
ATOM     36  N   UNL     1       6.219   4.247  17.008  0.00  0.00    +0.000 NA
ENDBRANCH  25  36
ENDBRANCH   1  28
TORSDOF 5
ENDMDL
MODEL 8
REMARK VINA RESULT:      -8.5      2.779      3.925
REMARK  Name = 
REMARK  9 active torsions:
REMARK  status: ('A' for Active; 'I' for Inactive)
REMARK    1  A    between atoms: C_1  and  C_2
REMARK    2  A    between atoms: N_7  and  C_8
REMARK    3  A    between atoms: N_11  and  C_12
REMARK    4  A    between atoms: C_15  and  N_16
REMARK    5  A    between atoms: C_23  and  O_25
REMARK    6  A    between atoms: O_25  and  C_26
REMARK    7  A    between atoms: C_26  and  C_27
REMARK    8  A    between atoms: C_26  and  C_28
REMARK    9  A    between atoms: C_26  and  C_29
REMARK                            x       y       z     vdW  Elec       q    Type
REMARK                         _______ _______ _______ _____ _____    ______ ____
ROOT
ATOM      1  C   UNL     1       2.856   7.182  18.517  0.00  0.00    +0.000 A 
ATOM      2  C   UNL     1       2.223   7.439  19.746  0.00  0.00    +0.000 A 
ATOM      3  C   UNL     1       1.409   8.579  19.984  0.00  0.00    +0.000 A 
ATOM      4  C   UNL     1       1.198   9.523  18.980  0.00  0.00    +0.000 A 
ATOM      5  C   UNL     1       1.763   9.247  17.747  0.00  0.00    +0.000 A 
ATOM      6  C   UNL     1       2.555   8.110  17.508  0.00  0.00    +0.000 A 
ENDROOT
BRANCH   4   7
ATOM      7  N   UNL     1       0.428  10.714  19.173  0.00  0.00    +0.000 N 
ATOM      8  C   UNL     1      -0.851  10.650  19.882  0.00  0.00    +0.000 C 
ATOM      9  C   UNL     1      -1.437  12.045  19.726  0.00  0.00    +0.000 C 
ATOM     10  C   UNL     1      -0.184  12.933  19.774  0.00  0.00    +0.000 C 
ATOM     11  C   UNL     1       0.490  12.833  21.149  0.00  0.00    +0.000 C 
ATOM     12  C   UNL     1       0.021  13.940  22.101  0.00  0.00    +0.000 C 
ATOM     13  N   UNL     1      -0.280  15.305  21.756  0.00  0.00    +0.000 N 
ATOM     14  C   UNL     1       0.642  16.156  22.408  0.00  0.00    +0.000 C 
ATOM     15  O   UNL     1       1.359  15.769  23.327  0.00  0.00    +0.000 OA
ATOM     16  C   UNL     1      -0.870  15.515  20.433  0.00  0.00    +0.000 C 
ATOM     17  C   UNL     1      -0.466  14.429  19.354  0.00  0.00    +0.000 C 
ATOM     18  C   UNL     1       0.763  12.101  18.889  0.00  0.00    +0.000 C 
ATOM     19  O   UNL     1       1.696  12.535  18.217  0.00  0.00    +0.000 OA
BRANCH  14  20
ATOM     20  O   UNL     1       0.752  17.354  21.826  0.00  0.00    +0.000 OA
BRANCH  20  21
ATOM     21  C   UNL     1       1.843  17.644  20.920  0.00  0.00    +0.000 C 
ATOM     22  C   UNL     1       1.375  18.328  19.625  0.00  0.00    +0.000 C 
ATOM     23  C   UNL     1       2.637  18.631  21.774  0.00  0.00    +0.000 C 
ATOM     24  C   UNL     1       2.716  16.424  20.586  0.00  0.00    +0.000 C 
ENDBRANCH  20  21
ENDBRANCH  14  20
ENDBRANCH   4   7
BRANCH   1  28
ATOM     25  C   UNL     1       4.417   3.849  18.535  0.00  0.00    +0.000 C 
ATOM     26  C   UNL     1       4.553   4.321  17.066  0.00  0.00    +0.000 C 
ATOM     27  C   UNL     1       4.457   5.856  17.085  0.00  0.00    +0.000 C 
ATOM     28  N   UNL     1       3.731   6.147  18.307  0.00  0.00    +0.000 N 
ATOM     29  C   UNL     1       4.120   5.160  19.317  0.00  0.00    +0.000 C 
BRANCH  25  36
ATOM     30  C   UNL     1       4.668   1.758  20.792  0.00  0.00    +0.000 C 
ATOM     31  C   UNL     1       3.369   2.094  20.056  0.00  0.00    +0.000 C 
ATOM     32  C   UNL     1       2.434   2.930  20.943  0.00  0.00    +0.000 C 
ATOM     33  C   UNL     1       1.092   3.212  20.266  0.00  0.00    +0.000 C 
ATOM     34  C   UNL     1       1.186   3.538  18.777  0.00  0.00    +0.000 C 
ATOM     35  C   UNL     1       2.232   2.706  18.040  0.00  0.00    +0.000 C 
ATOM     36  N   UNL     1       3.550   2.648  18.696  0.00  0.00    +0.000 NA
ENDBRANCH  25  36
ENDBRANCH   1  28
TORSDOF 5
ENDMDL
MODEL 9
REMARK VINA RESULT:      -8.5      1.991      2.668
REMARK  Name = 
REMARK  9 active torsions:
REMARK  status: ('A' for Active; 'I' for Inactive)
REMARK    1  A    between atoms: C_1  and  C_2
REMARK    2  A    between atoms: N_7  and  C_8
REMARK    3  A    between atoms: N_11  and  C_12
REMARK    4  A    between atoms: C_15  and  N_16
REMARK    5  A    between atoms: C_23  and  O_25
REMARK    6  A    between atoms: O_25  and  C_26
REMARK    7  A    between atoms: C_26  and  C_27
REMARK    8  A    between atoms: C_26  and  C_28
REMARK    9  A    between atoms: C_26  and  C_29
REMARK                            x       y       z     vdW  Elec       q    Type
REMARK                         _______ _______ _______ _____ _____    ______ ____
ROOT
ATOM      1  C   UNL     1       3.014   7.326  18.506  0.00  0.00    +0.000 A 
ATOM      2  C   UNL     1       2.881   8.380  17.585  0.00  0.00    +0.000 A 
ATOM      3  C   UNL     1       1.991   9.472  17.769  0.00  0.00    +0.000 A 
ATOM      4  C   UNL     1       1.182   9.546  18.902  0.00  0.00    +0.000 A 
ATOM      5  C   UNL     1       1.351   8.547  19.846  0.00  0.00    +0.000 A 
ATOM      6  C   UNL     1       2.246   7.476  19.671  0.00  0.00    +0.000 A 
ENDROOT
BRANCH   4   7
ATOM      7  N   UNL     1       0.232  10.594  19.120  0.00  0.00    +0.000 N 
ATOM      8  C   UNL     1      -1.176  10.268  19.351  0.00  0.00    +0.000 C 
ATOM      9  C   UNL     1      -1.877  11.618  19.355  0.00  0.00    +0.000 C 
ATOM     10  C   UNL     1      -0.828  12.531  20.006  0.00  0.00    +0.000 C 
ATOM     11  C   UNL     1      -0.575  12.103  21.458  0.00  0.00    +0.000 C 
ATOM     12  C   UNL     1      -1.447  12.885  22.448  0.00  0.00    +0.000 C 
ATOM     13  N   UNL     1      -1.820  14.273  22.361  0.00  0.00    +0.000 N 
ATOM     14  C   UNL     1      -1.254  14.969  23.454  0.00  0.00    +0.000 C 
ATOM     15  O   UNL     1      -0.788  14.391  24.432  0.00  0.00    +0.000 OA
ATOM     16  C   UNL     1      -2.025  14.797  21.010  0.00  0.00    +0.000 C 
ATOM     17  C   UNL     1      -1.179  14.066  19.888  0.00  0.00    +0.000 C 
ATOM     18  C   UNL     1       0.441  12.024  19.294  0.00  0.00    +0.000 C 
ATOM     19  O   UNL     1       1.460  12.676  19.076  0.00  0.00    +0.000 OA
BRANCH  14  20
ATOM     20  O   UNL     1      -1.145  16.283  23.239  0.00  0.00    +0.000 OA
BRANCH  20  21
ATOM     21  C   UNL     1      -2.096  17.213  23.810  0.00  0.00    +0.000 C 
ATOM     22  C   UNL     1      -3.226  16.509  24.581  0.00  0.00    +0.000 C 
ATOM     23  C   UNL     1      -1.183  17.955  24.784  0.00  0.00    +0.000 C 
ATOM     24  C   UNL     1      -2.688  18.201  22.794  0.00  0.00    +0.000 C 
ENDBRANCH  20  21
ENDBRANCH  14  20
ENDBRANCH   4   7
BRANCH   1  28
ATOM     25  C   UNL     1       4.299   3.877  18.584  0.00  0.00    +0.000 C 
ATOM     26  C   UNL     1       4.377   4.276  17.088  0.00  0.00    +0.000 C 
ATOM     27  C   UNL     1       4.408   5.813  17.042  0.00  0.00    +0.000 C 
ATOM     28  N   UNL     1       3.787   6.213  18.291  0.00  0.00    +0.000 N 
ATOM     29  C   UNL     1       4.160   5.240  19.321  0.00  0.00    +0.000 C 
BRANCH  25  36
ATOM     30  C   UNL     1       4.603   1.781  20.829  0.00  0.00    +0.000 C 
ATOM     31  C   UNL     1       3.268   2.231  20.232  0.00  0.00    +0.000 C 
ATOM     32  C   UNL     1       2.512   3.152  21.202  0.00  0.00    +0.000 C 
ATOM     33  C   UNL     1       1.135   3.551  20.668  0.00  0.00    +0.000 C 
ATOM     34  C   UNL     1       1.098   3.862  19.173  0.00  0.00    +0.000 C 
ATOM     35  C   UNL     1       1.980   2.936  18.340  0.00  0.00    +0.000 C 
ATOM     36  N   UNL     1       3.350   2.760  18.852  0.00  0.00    +0.000 NA
ENDBRANCH  25  36
ENDBRANCH   1  28
TORSDOF 5
ENDMDL
