MODEL 1
REMARK VINA RESULT:      -7.2      0.000      0.000
REMARK  Name = 
REMARK  6 active torsions:
REMARK  status: ('A' for Active; 'I' for Inactive)
REMARK    1  A    between atoms: C_1  and  O_2
REMARK    2  A    between atoms: O_2  and  C_3
REMARK    3  A    between atoms: C_8  and  N_9
REMARK    4  A    between atoms: C_13  and  C_14
REMARK    5  A    between atoms: C_17  and  O_18
REMARK    6  A    between atoms: O_18  and  C_19
REMARK                            x       y       z     vdW  Elec       q    Type
REMARK                         _______ _______ _______ _____ _____    ______ ____
ROOT
ATOM      1  N   UNL     1       5.102   3.896  15.497  0.00  0.00    +0.000 N 
ATOM      2  C   UNL     1       6.170   3.858  16.498  0.00  0.00    +0.000 C 
ATOM      3  C   UNL     1       5.863   4.365  17.835  0.00  0.00    +0.000 C 
ATOM      4  C   UNL     1       4.804   5.387  17.426  0.00  0.00    +0.000 A 
ATOM      5  C   UNL     1       4.176   5.960  18.488  0.00  0.00    +0.000 A 
ATOM      6  C   UNL     1       3.065   6.965  18.347  0.00  0.00    +0.000 C 
ATOM      7  N   UNL     1       3.927   5.043  19.401  0.00  0.00    +0.000 NA
ATOM      8  C   UNL     1       3.203   4.015  18.952  0.00  0.00    +0.000 A 
ATOM      9  C   UNL     1       2.563   3.346  20.002  0.00  0.00    +0.000 A 
ATOM     10  C   UNL     1       1.267   2.934  19.803  0.00  0.00    +0.000 A 
ATOM     11  C   UNL     1       0.747   3.011  18.513  0.00  0.00    +0.000 A 
ATOM     12  C   UNL     1       1.558   3.364  17.398  0.00  0.00    +0.000 A 
ATOM     13  C   UNL     1       2.940   3.883  17.513  0.00  0.00    +0.000 A 
ATOM     14  C   UNL     1       3.993   4.663  16.565  0.00  0.00    +0.000 A 
ENDROOT
BRANCH   1  20
ATOM     15  C   UNL     1       6.236   3.888  12.906  0.00  0.00    +0.000 A 
ATOM     16  C   UNL     1       7.029   4.430  11.861  0.00  0.00    +0.000 A 
ATOM     17  C   UNL     1       8.036   5.284  12.203  0.00  0.00    +0.000 A 
ATOM     18  C   UNL     1       8.173   5.696  13.546  0.00  0.00    +0.000 A 
ATOM     19  C   UNL     1       7.276   5.305  14.625  0.00  0.00    +0.000 A 
ATOM     20  C   UNL     1       6.277   4.390  14.343  0.00  0.00    +0.000 A 
BRANCH  15  22
ATOM     21  C   UNL     1       4.471   3.132  11.517  0.00  0.00    +0.000 C 
ATOM     22  O   UNL     1       5.560   2.774  12.412  0.00  0.00    +0.000 OA
ENDBRANCH  15  22
ENDBRANCH   1  20
BRANCH   9  23
ATOM     23  O   UNL     1       2.989   3.338  21.318  0.00  0.00    +0.000 OA
ATOM     24  C   UNL     1       2.035   2.834  22.256  0.00  0.00    +0.000 C 
ENDBRANCH   9  23
TORSDOF 3
ENDMDL
MODEL 2
REMARK VINA RESULT:      -7.1      3.986      7.721
REMARK  Name = 
REMARK  6 active torsions:
REMARK  status: ('A' for Active; 'I' for Inactive)
REMARK    1  A    between atoms: C_1  and  O_2
REMARK    2  A    between atoms: O_2  and  C_3
REMARK    3  A    between atoms: C_8  and  N_9
REMARK    4  A    between atoms: C_13  and  C_14
REMARK    5  A    between atoms: C_17  and  O_18
REMARK    6  A    between atoms: O_18  and  C_19
REMARK                            x       y       z     vdW  Elec       q    Type
REMARK                         _______ _______ _______ _____ _____    ______ ____
ROOT
ATOM      1  N   UNL     1       1.868   9.067  17.839  0.00  0.00    +0.000 N 
ATOM      2  C   UNL     1       1.940   8.892  19.291  0.00  0.00    +0.000 C 
ATOM      3  C   UNL     1       2.406   7.601  19.795  0.00  0.00    +0.000 C 
ATOM      4  C   UNL     1       1.922   6.742  18.628  0.00  0.00    +0.000 A 
ATOM      5  C   UNL     1       2.339   5.449  18.707  0.00  0.00    +0.000 A 
ATOM      6  C   UNL     1       2.031   4.416  17.658  0.00  0.00    +0.000 C 
ATOM      7  N   UNL     1       3.593   5.415  19.111  0.00  0.00    +0.000 NA
ATOM      8  C   UNL     1       4.430   6.111  18.338  0.00  0.00    +0.000 A 
ATOM      9  C   UNL     1       5.750   5.669  18.490  0.00  0.00    +0.000 A 
ATOM     10  C   UNL     1       6.525   5.567  17.359  0.00  0.00    +0.000 A 
ATOM     11  C   UNL     1       6.029   6.107  16.175  0.00  0.00    +0.000 A 
ATOM     12  C   UNL     1       4.829   6.872  16.145  0.00  0.00    +0.000 A 
ATOM     13  C   UNL     1       3.894   6.987  17.288  0.00  0.00    +0.000 A 
ATOM     14  C   UNL     1       2.362   7.451  17.520  0.00  0.00    +0.000 A 
ENDROOT
BRANCH   1  20
ATOM     15  C   UNL     1       0.349  11.328  18.601  0.00  0.00    +0.000 A 
ATOM     16  C   UNL     1      -0.814  12.142  18.596  0.00  0.00    +0.000 A 
ATOM     17  C   UNL     1      -2.007  11.547  18.312  0.00  0.00    +0.000 A 
ATOM     18  C   UNL     1      -2.032  10.192  17.913  0.00  0.00    +0.000 A 
ATOM     19  C   UNL     1      -0.848   9.364  17.733  0.00  0.00    +0.000 A 
ATOM     20  C   UNL     1       0.382   9.902  18.069  0.00  0.00    +0.000 A 
BRANCH  15  22
ATOM     21  C   UNL     1       2.288  12.673  18.387  0.00  0.00    +0.000 C 
ATOM     22  O   UNL     1       1.358  12.006  19.284  0.00  0.00    +0.000 OA
ENDBRANCH  15  22
ENDBRANCH   1  20
BRANCH   9  23
ATOM     23  O   UNL     1       6.251   5.028  19.609  0.00  0.00    +0.000 OA
ATOM     24  C   UNL     1       7.601   5.365  19.940  0.00  0.00    +0.000 C 
ENDBRANCH   9  23
TORSDOF 3
ENDMDL
MODEL 3
REMARK VINA RESULT:      -6.8      4.500      7.451
REMARK  Name = 
REMARK  6 active torsions:
REMARK  status: ('A' for Active; 'I' for Inactive)
REMARK    1  A    between atoms: C_1  and  O_2
REMARK    2  A    between atoms: O_2  and  C_3
REMARK    3  A    between atoms: C_8  and  N_9
REMARK    4  A    between atoms: C_13  and  C_14
REMARK    5  A    between atoms: C_17  and  O_18
REMARK    6  A    between atoms: O_18  and  C_19
REMARK                            x       y       z     vdW  Elec       q    Type
REMARK                         _______ _______ _______ _____ _____    ______ ____
ROOT
ATOM      1  N   UNL     1       2.221   7.203  19.507  0.00  0.00    +0.000 N 
ATOM      2  C   UNL     1       3.004   7.866  18.462  0.00  0.00    +0.000 C 
ATOM      3  C   UNL     1       2.465   9.099  17.892  0.00  0.00    +0.000 C 
ATOM      4  C   UNL     1       0.983   8.784  18.094  0.00  0.00    +0.000 A 
ATOM      5  C   UNL     1       0.168   9.832  17.793  0.00  0.00    +0.000 A 
ATOM      6  C   UNL     1      -1.327   9.786  17.950  0.00  0.00    +0.000 C 
ATOM      7  N   UNL     1       0.700  10.948  18.247  0.00  0.00    +0.000 NA
ATOM      8  C   UNL     1       0.949  10.935  19.559  0.00  0.00    +0.000 A 
ATOM      9  C   UNL     1       1.037  12.234  20.073  0.00  0.00    +0.000 A 
ATOM     10  C   UNL     1       0.453  12.480  21.293  0.00  0.00    +0.000 A 
ATOM     11  C   UNL     1       0.004  11.391  22.035  0.00  0.00    +0.000 A 
ATOM     12  C   UNL     1       0.263  10.050  21.630  0.00  0.00    +0.000 A 
ATOM     13  C   UNL     1       0.824   9.680  20.311  0.00  0.00    +0.000 A 
ATOM     14  C   UNL     1       0.938   8.343  19.408  0.00  0.00    +0.000 A 
ENDROOT
BRANCH   1  20
ATOM     15  C   UNL     1       3.906   4.962  19.130  0.00  0.00    +0.000 A 
ATOM     16  C   UNL     1       4.179   3.625  18.739  0.00  0.00    +0.000 A 
ATOM     17  C   UNL     1       3.358   3.052  17.814  0.00  0.00    +0.000 A 
ATOM     18  C   UNL     1       2.209   3.746  17.377  0.00  0.00    +0.000 A 
ATOM     19  C   UNL     1       1.791   5.047  17.881  0.00  0.00    +0.000 A 
ATOM     20  C   UNL     1       2.622   5.699  18.774  0.00  0.00    +0.000 A 
BRANCH  15  22
ATOM     21  C   UNL     1       6.222   5.405  18.897  0.00  0.00    +0.000 C 
ATOM     22  O   UNL     1       5.044   5.482  19.746  0.00  0.00    +0.000 OA
ENDBRANCH  15  22
ENDBRANCH   1  20
BRANCH   9  23
ATOM     23  O   UNL     1       1.371  13.359  19.341  0.00  0.00    +0.000 OA
ATOM     24  C   UNL     1       2.745  13.750  19.433  0.00  0.00    +0.000 C 
ENDBRANCH   9  23
TORSDOF 3
ENDMDL
MODEL 4
REMARK VINA RESULT:      -6.8      9.277     13.321
REMARK  Name = 
REMARK  6 active torsions:
REMARK  status: ('A' for Active; 'I' for Inactive)
REMARK    1  A    between atoms: C_1  and  O_2
REMARK    2  A    between atoms: O_2  and  C_3
REMARK    3  A    between atoms: C_8  and  N_9
REMARK    4  A    between atoms: C_13  and  C_14
REMARK    5  A    between atoms: C_17  and  O_18
REMARK    6  A    between atoms: O_18  and  C_19
REMARK                            x       y       z     vdW  Elec       q    Type
REMARK                         _______ _______ _______ _____ _____    ______ ____
ROOT
ATOM      1  N   UNL     1      -3.293  12.388  22.469  0.00  0.00    +0.000 N 
ATOM      2  C   UNL     1      -3.633  12.620  21.064  0.00  0.00    +0.000 C 
ATOM      3  C   UNL     1      -2.538  12.626  20.094  0.00  0.00    +0.000 C 
ATOM      4  C   UNL     1      -1.439  13.121  21.034  0.00  0.00    +0.000 A 
ATOM      5  C   UNL     1      -0.202  13.100  20.468  0.00  0.00    +0.000 A 
ATOM      6  C   UNL     1       1.050  13.497  21.202  0.00  0.00    +0.000 C 
ATOM      7  N   UNL     1      -0.058  11.995  19.765  0.00  0.00    +0.000 NA
ATOM      8  C   UNL     1      -0.248  10.876  20.469  0.00  0.00    +0.000 A 
ATOM      9  C   UNL     1       0.371   9.779  19.859  0.00  0.00    +0.000 A 
ATOM     10  C   UNL     1       1.023   8.880  20.669  0.00  0.00    +0.000 A 
ATOM     11  C   UNL     1       0.848   8.994  22.046  0.00  0.00    +0.000 A 
ATOM     12  C   UNL     1      -0.085   9.910  22.610  0.00  0.00    +0.000 A 
ATOM     13  C   UNL     1      -0.785  10.958  21.834  0.00  0.00    +0.000 A 
ATOM     14  C   UNL     1      -1.604  12.316  22.151  0.00  0.00    +0.000 A 
ENDROOT
BRANCH   1  20
ATOM     15  C   UNL     1      -5.883  13.244  23.216  0.00  0.00    +0.000 A 
ATOM     16  C   UNL     1      -6.807  14.158  23.786  0.00  0.00    +0.000 A 
ATOM     17  C   UNL     1      -6.456  15.475  23.831  0.00  0.00    +0.000 A 
ATOM     18  C   UNL     1      -5.157  15.862  23.436  0.00  0.00    +0.000 A 
ATOM     19  C   UNL     1      -4.114  14.939  23.011  0.00  0.00    +0.000 A 
ATOM     20  C   UNL     1      -4.440  13.600  22.888  0.00  0.00    +0.000 A 
BRANCH  15  22
ATOM     21  C   UNL     1      -7.727  12.303  22.063  0.00  0.00    +0.000 C 
ATOM     22  O   UNL     1      -6.563  12.068  22.902  0.00  0.00    +0.000 OA
ENDBRANCH  15  22
ENDBRANCH   1  20
BRANCH   9  23
ATOM     23  O   UNL     1       0.662   9.677  18.510  0.00  0.00    +0.000 OA
ATOM     24  C   UNL     1       1.826   8.906  18.203  0.00  0.00    +0.000 C 
ENDBRANCH   9  23
TORSDOF 3
ENDMDL
MODEL 5
REMARK VINA RESULT:      -6.7      3.845      7.470
REMARK  Name = 
REMARK  6 active torsions:
REMARK  status: ('A' for Active; 'I' for Inactive)
REMARK    1  A    between atoms: C_1  and  O_2
REMARK    2  A    between atoms: O_2  and  C_3
REMARK    3  A    between atoms: C_8  and  N_9
REMARK    4  A    between atoms: C_13  and  C_14
REMARK    5  A    between atoms: C_17  and  O_18
REMARK    6  A    between atoms: O_18  and  C_19
REMARK                            x       y       z     vdW  Elec       q    Type
REMARK                         _______ _______ _______ _____ _____    ______ ____
ROOT
ATOM      1  N   UNL     1       2.148   8.913  18.096  0.00  0.00    +0.000 N 
ATOM      2  C   UNL     1       1.991   8.587  19.515  0.00  0.00    +0.000 C 
ATOM      3  C   UNL     1       2.151   7.188  19.910  0.00  0.00    +0.000 C 
ATOM      4  C   UNL     1       1.687   6.554  18.600  0.00  0.00    +0.000 A 
ATOM      5  C   UNL     1       1.856   5.204  18.570  0.00  0.00    +0.000 A 
ATOM      6  C   UNL     1       1.516   4.355  17.376  0.00  0.00    +0.000 C 
ATOM      7  N   UNL     1       3.019   4.894  19.108  0.00  0.00    +0.000 NA
ATOM      8  C   UNL     1       4.061   5.491  18.526  0.00  0.00    +0.000 A 
ATOM      9  C   UNL     1       5.250   4.795  18.774  0.00  0.00    +0.000 A 
ATOM     10  C   UNL     1       6.141   4.658  17.735  0.00  0.00    +0.000 A 
ATOM     11  C   UNL     1       5.911   5.395  16.576  0.00  0.00    +0.000 A 
ATOM     12  C   UNL     1       4.879   6.372  16.501  0.00  0.00    +0.000 A 
ATOM     13  C   UNL     1       3.833   6.551  17.534  0.00  0.00    +0.000 A 
ATOM     14  C   UNL     1       2.390   7.271  17.644  0.00  0.00    +0.000 A 
ENDROOT
BRANCH   1  20
ATOM     15  C   UNL     1       1.014  11.448  18.631  0.00  0.00    +0.000 A 
ATOM     16  C   UNL     1      -0.010  12.427  18.552  0.00  0.00    +0.000 A 
ATOM     17  C   UNL     1      -1.288  11.998  18.346  0.00  0.00    +0.000 A 
ATOM     18  C   UNL     1      -1.530  10.631  18.093  0.00  0.00    +0.000 A 
ATOM     19  C   UNL     1      -0.492   9.614  17.989  0.00  0.00    +0.000 A 
ATOM     20  C   UNL     1       0.814   9.987  18.253  0.00  0.00    +0.000 A 
BRANCH  15  22
ATOM     21  C   UNL     1       2.535  13.264  18.575  0.00  0.00    +0.000 C 
ATOM     22  O   UNL     1       2.133  12.028  19.227  0.00  0.00    +0.000 OA
ENDBRANCH  15  22
ENDBRANCH   1  20
BRANCH   9  23
ATOM     23  O   UNL     1       5.475   3.965  19.858  0.00  0.00    +0.000 OA
ATOM     24  C   UNL     1       4.829   2.691  19.785  0.00  0.00    +0.000 C 
ENDBRANCH   9  23
TORSDOF 3
ENDMDL
MODEL 6
REMARK VINA RESULT:      -6.7      5.005      7.310
REMARK  Name = 
REMARK  6 active torsions:
REMARK  status: ('A' for Active; 'I' for Inactive)
REMARK    1  A    between atoms: C_1  and  O_2
REMARK    2  A    between atoms: O_2  and  C_3
REMARK    3  A    between atoms: C_8  and  N_9
REMARK    4  A    between atoms: C_13  and  C_14
REMARK    5  A    between atoms: C_17  and  O_18
REMARK    6  A    between atoms: O_18  and  C_19
REMARK                            x       y       z     vdW  Elec       q    Type
REMARK                         _______ _______ _______ _____ _____    ______ ____
ROOT
ATOM      1  N   UNL     1       1.416   7.778  18.046  0.00  0.00    +0.000 N 
ATOM      2  C   UNL     1       1.735   7.869  19.472  0.00  0.00    +0.000 C 
ATOM      3  C   UNL     1       1.565   9.167  20.123  0.00  0.00    +0.000 C 
ATOM      4  C   UNL     1       1.832  10.043  18.900  0.00  0.00    +0.000 A 
ATOM      5  C   UNL     1       1.600  11.364  19.128  0.00  0.00    +0.000 A 
ATOM      6  C   UNL     1       1.749  12.424  18.070  0.00  0.00    +0.000 C 
ATOM      7  N   UNL     1       0.503  11.502  19.844  0.00  0.00    +0.000 NA
ATOM      8  C   UNL     1      -0.578  10.946  19.291  0.00  0.00    +0.000 A 
ATOM      9  C   UNL     1      -1.755  11.511  19.795  0.00  0.00    +0.000 A 
ATOM     10  C   UNL     1      -2.775  11.762  18.908  0.00  0.00    +0.000 A 
ATOM     11  C   UNL     1      -2.662  11.248  17.618  0.00  0.00    +0.000 A 
ATOM     12  C   UNL     1      -1.605  10.367  17.253  0.00  0.00    +0.000 A 
ATOM     13  C   UNL     1      -0.430  10.086  18.109  0.00  0.00    +0.000 A 
ATOM     14  C   UNL     1       1.046   9.453  17.921  0.00  0.00    +0.000 A 
ENDROOT
BRANCH   1  20
ATOM     15  C   UNL     1       2.709   5.266  17.939  0.00  0.00    +0.000 A 
ATOM     16  C   UNL     1       3.762   4.390  17.566  0.00  0.00    +0.000 A 
ATOM     17  C   UNL     1       4.992   4.933  17.338  0.00  0.00    +0.000 A 
ATOM     18  C   UNL     1       5.147   6.337  17.354  0.00  0.00    +0.000 A 
ATOM     19  C   UNL     1       4.059   7.284  17.558  0.00  0.00    +0.000 A 
ATOM     20  C   UNL     1       2.805   6.782  17.855  0.00  0.00    +0.000 A 
BRANCH  15  22
ATOM     21  C   UNL     1       1.868   3.079  18.293  0.00  0.00    +0.000 C 
ATOM     22  O   UNL     1       1.683   4.506  18.500  0.00  0.00    +0.000 OA
ENDBRANCH  15  22
ENDBRANCH   1  20
BRANCH   9  23
ATOM     23  O   UNL     1      -1.879  12.129  21.026  0.00  0.00    +0.000 OA
ATOM     24  C   UNL     1      -2.932  13.092  21.113  0.00  0.00    +0.000 C 
ENDBRANCH   9  23
TORSDOF 3
ENDMDL
MODEL 7
REMARK VINA RESULT:      -6.6      9.775     13.898
REMARK  Name = 
REMARK  6 active torsions:
REMARK  status: ('A' for Active; 'I' for Inactive)
REMARK    1  A    between atoms: C_1  and  O_2
REMARK    2  A    between atoms: O_2  and  C_3
REMARK    3  A    between atoms: C_8  and  N_9
REMARK    4  A    between atoms: C_13  and  C_14
REMARK    5  A    between atoms: C_17  and  O_18
REMARK    6  A    between atoms: O_18  and  C_19
REMARK                            x       y       z     vdW  Elec       q    Type
REMARK                         _______ _______ _______ _____ _____    ______ ____
ROOT
ATOM      1  N   UNL     1      -3.736  12.488  23.048  0.00  0.00    +0.000 N 
ATOM      2  C   UNL     1      -4.131  12.696  21.654  0.00  0.00    +0.000 C 
ATOM      3  C   UNL     1      -3.070  12.728  20.648  0.00  0.00    +0.000 C 
ATOM      4  C   UNL     1      -1.957  13.266  21.544  0.00  0.00    +0.000 A 
ATOM      5  C   UNL     1      -0.740  13.279  20.936  0.00  0.00    +0.000 A 
ATOM      6  C   UNL     1       0.523  13.724  21.623  0.00  0.00    +0.000 C 
ATOM      7  N   UNL     1      -0.584  12.173  20.238  0.00  0.00    +0.000 NA
ATOM      8  C   UNL     1      -0.714  11.056  20.958  0.00  0.00    +0.000 A 
ATOM      9  C   UNL     1      -0.081   9.973  20.335  0.00  0.00    +0.000 A 
ATOM     10  C   UNL     1       0.627   9.103  21.130  0.00  0.00    +0.000 A 
ATOM     11  C   UNL     1       0.495   9.224  22.512  0.00  0.00    +0.000 A 
ATOM     12  C   UNL     1      -0.447  10.115  23.100  0.00  0.00    +0.000 A 
ATOM     13  C   UNL     1      -1.207  11.133  22.339  0.00  0.00    +0.000 A 
ATOM     14  C   UNL     1      -2.057  12.467  22.674  0.00  0.00    +0.000 A 
ENDROOT
BRANCH   1  20
ATOM     15  C   UNL     1      -4.515  15.116  23.746  0.00  0.00    +0.000 A 
ATOM     16  C   UNL     1      -5.454  16.170  23.891  0.00  0.00    +0.000 A 
ATOM     17  C   UNL     1      -6.768  15.837  24.039  0.00  0.00    +0.000 A 
ATOM     18  C   UNL     1      -7.161  14.486  23.918  0.00  0.00    +0.000 A 
ATOM     19  C   UNL     1      -6.258  13.390  23.594  0.00  0.00    +0.000 A 
ATOM     20  C   UNL     1      -4.906  13.667  23.496  0.00  0.00    +0.000 A 
BRANCH  15  22
ATOM     21  C   UNL     1      -2.735  15.213  25.308  0.00  0.00    +0.000 C 
ATOM     22  O   UNL     1      -3.242  15.622  24.008  0.00  0.00    +0.000 OA
ENDBRANCH  15  22
ENDBRANCH   1  20
BRANCH   9  23
ATOM     23  O   UNL     1       0.166   9.868  18.979  0.00  0.00    +0.000 OA
ATOM     24  C   UNL     1       1.482   9.420  18.641  0.00  0.00    +0.000 C 
ENDBRANCH   9  23
TORSDOF 3
ENDMDL
MODEL 8
REMARK VINA RESULT:      -6.6      3.987      7.574
REMARK  Name = 
REMARK  6 active torsions:
REMARK  status: ('A' for Active; 'I' for Inactive)
REMARK    1  A    between atoms: C_1  and  O_2
REMARK    2  A    between atoms: O_2  and  C_3
REMARK    3  A    between atoms: C_8  and  N_9
REMARK    4  A    between atoms: C_13  and  C_14
REMARK    5  A    between atoms: C_17  and  O_18
REMARK    6  A    between atoms: O_18  and  C_19
REMARK                            x       y       z     vdW  Elec       q    Type
REMARK                         _______ _______ _______ _____ _____    ______ ____
ROOT
ATOM      1  N   UNL     1       1.370   8.842  19.477  0.00  0.00    +0.000 N 
ATOM      2  C   UNL     1       1.223   8.709  18.027  0.00  0.00    +0.000 C 
ATOM      3  C   UNL     1       1.902   7.588  17.377  0.00  0.00    +0.000 C 
ATOM      4  C   UNL     1       3.065   7.459  18.360  0.00  0.00    +0.000 A 
ATOM      5  C   UNL     1       3.845   6.370  18.126  0.00  0.00    +0.000 A 
ATOM      6  C   UNL     1       5.026   5.999  18.981  0.00  0.00    +0.000 C 
ATOM      7  N   UNL     1       3.081   5.338  17.826  0.00  0.00    +0.000 NA
ATOM      8  C   UNL     1       2.173   5.047  18.761  0.00  0.00    +0.000 A 
ATOM      9  C   UNL     1       1.741   3.720  18.655  0.00  0.00    +0.000 A 
ATOM     10  C   UNL     1       1.567   3.009  19.819  0.00  0.00    +0.000 A 
ATOM     11  C   UNL     1       1.621   3.704  21.025  0.00  0.00    +0.000 A 
ATOM     12  C   UNL     1       1.705   5.125  21.068  0.00  0.00    +0.000 A 
ATOM     13  C   UNL     1       1.959   5.974  19.881  0.00  0.00    +0.000 A 
ATOM     14  C   UNL     1       2.431   7.493  19.593  0.00  0.00    +0.000 A 
ENDROOT
BRANCH   1  20
ATOM     15  C   UNL     1       0.873  11.527  20.211  0.00  0.00    +0.000 A 
ATOM     16  C   UNL     1       1.149  12.920  20.211  0.00  0.00    +0.000 A 
ATOM     17  C   UNL     1       1.849  13.430  19.159  0.00  0.00    +0.000 A 
ATOM     18  C   UNL     1       2.380  12.555  18.186  0.00  0.00    +0.000 A 
ATOM     19  C   UNL     1       2.275  11.104  18.237  0.00  0.00    +0.000 A 
ATOM     20  C   UNL     1       1.520  10.540  19.250  0.00  0.00    +0.000 A 
BRANCH  15  22
ATOM     21  C   UNL     1      -0.384  12.401  22.021  0.00  0.00    +0.000 C 
ATOM     22  O   UNL     1      -0.157  11.283  21.119  0.00  0.00    +0.000 OA
ENDBRANCH  15  22
ENDBRANCH   1  20
BRANCH   9  23
ATOM     23  O   UNL     1       1.775   2.961  17.500  0.00  0.00    +0.000 OA
ATOM     24  C   UNL     1       2.772   1.935  17.484  0.00  0.00    +0.000 C 
ENDBRANCH   9  23
TORSDOF 3
ENDMDL
MODEL 9
REMARK VINA RESULT:      -6.6      5.094      8.101
REMARK  Name = 
REMARK  6 active torsions:
REMARK  status: ('A' for Active; 'I' for Inactive)
REMARK    1  A    between atoms: C_1  and  O_2
REMARK    2  A    between atoms: O_2  and  C_3
REMARK    3  A    between atoms: C_8  and  N_9
REMARK    4  A    between atoms: C_13  and  C_14
REMARK    5  A    between atoms: C_17  and  O_18
REMARK    6  A    between atoms: O_18  and  C_19
REMARK                            x       y       z     vdW  Elec       q    Type
REMARK                         _______ _______ _______ _____ _____    ______ ____
ROOT
ATOM      1  N   UNL     1       2.030   7.945  19.597  0.00  0.00    +0.000 N 
ATOM      2  C   UNL     1       2.627   8.662  18.469  0.00  0.00    +0.000 C 
ATOM      3  C   UNL     1       1.889   9.801  17.923  0.00  0.00    +0.000 C 
ATOM      4  C   UNL     1       0.483   9.315  18.270  0.00  0.00    +0.000 A 
ATOM      5  C   UNL     1      -0.480  10.245  18.022  0.00  0.00    +0.000 A 
ATOM      6  C   UNL     1      -1.938  10.024  18.320  0.00  0.00    +0.000 C 
ATOM      7  N   UNL     1      -0.051  11.433  18.398  0.00  0.00    +0.000 NA
ATOM      8  C   UNL     1       0.314  11.496  19.681  0.00  0.00    +0.000 A 
ATOM      9  C   UNL     1       0.286  12.813  20.154  0.00  0.00    +0.000 A 
ATOM     10  C   UNL     1      -0.212  13.029  21.418  0.00  0.00    +0.000 A 
ATOM     11  C   UNL     1      -0.453  11.919  22.224  0.00  0.00    +0.000 A 
ATOM     12  C   UNL     1      -0.068  10.607  21.828  0.00  0.00    +0.000 A 
ATOM     13  C   UNL     1       0.414  10.261  20.471  0.00  0.00    +0.000 A 
ATOM     14  C   UNL     1       0.611   8.918  19.592  0.00  0.00    +0.000 A 
ENDROOT
BRANCH   1  20
ATOM     15  C   UNL     1       1.897   5.146  19.218  0.00  0.00    +0.000 A 
ATOM     16  C   UNL     1       2.117   3.948  18.490  0.00  0.00    +0.000 A 
ATOM     17  C   UNL     1       3.128   3.934  17.576  0.00  0.00    +0.000 A 
ATOM     18  C   UNL     1       3.828   5.128  17.294  0.00  0.00    +0.000 A 
ATOM     19  C   UNL     1       3.522   6.422  17.886  0.00  0.00    +0.000 A 
ATOM     20  C   UNL     1       2.546   6.477  18.866  0.00  0.00    +0.000 A 
BRANCH  15  22
ATOM     21  C   UNL     1       1.509   3.587  20.960  0.00  0.00    +0.000 C 
ATOM     22  O   UNL     1       1.125   4.845  20.339  0.00  0.00    +0.000 OA
ENDBRANCH  15  22
ENDBRANCH   1  20
BRANCH   9  23
ATOM     23  O   UNL     1       0.411  13.944  19.368  0.00  0.00    +0.000 OA
ATOM     24  C   UNL     1      -0.463  15.020  19.719  0.00  0.00    +0.000 C 
ENDBRANCH   9  23
TORSDOF 3
ENDMDL
