MODEL 1
REMARK VINA RESULT:      -8.2      0.000      0.000
REMARK  Name = 
REMARK  9 active torsions:
REMARK  status: ('A' for Active; 'I' for Inactive)
REMARK    1  A    between atoms: C_1  and  C_2
REMARK    2  A    between atoms: C_2  and  C_3
REMARK    3  A    between atoms: C_3  and  C_4
REMARK    4  A    between atoms: C_4  and  C_5
REMARK    5  A    between atoms: C_5  and  N_6
REMARK    6  A    between atoms: C_11  and  C_12
REMARK    7  A    between atoms: C_12  and  C_13
REMARK    8  A    between atoms: N_20  and  C_21
REMARK    9  A    between atoms: C_21  and  C_22
REMARK                            x       y       z     vdW  Elec       q    Type
REMARK                         _______ _______ _______ _____ _____    ______ ____
ROOT
ATOM      1  N   UNL     1       5.398   4.995  16.971  0.00  0.00    +0.000 N 
ATOM      2  C   UNL     1       5.304   6.387  17.023  0.00  0.00    +0.000 A 
ATOM      3  O   UNL     1       6.200   7.173  16.737  0.00  0.00    +0.000 OA
ATOM      4  C   UNL     1       4.035   6.831  17.458  0.00  0.00    +0.000 A 
ATOM      5  N   UNL     1       3.577   8.096  17.649  0.00  0.00    +0.000 N 
ATOM      6  C   UNL     1       2.270   7.988  18.069  0.00  0.00    +0.000 A 
ATOM      7  N   UNL     1       1.908   6.717  18.168  0.00  0.00    +0.000 NA
ATOM      8  C   UNL     1       2.999   6.009  17.759  0.00  0.00    +0.000 A 
ATOM      9  N   UNL     1       3.110   4.647  17.617  0.00  0.00    +0.000 N 
ATOM     10  C   UNL     1       4.311   4.106  17.142  0.00  0.00    +0.000 A 
ATOM     11  O   UNL     1       4.421   2.902  16.897  0.00  0.00    +0.000 OA
ATOM     12  H   UNL     1       4.092   8.951  17.477  0.00  0.00    +0.000 HD
ENDROOT
BRANCH   1  13
ATOM     13  C   UNL     1       6.697   4.430  16.603  0.00  0.00    +0.000 C 
BRANCH  13  14
ATOM     14  C   UNL     1       7.057   4.616  15.120  0.00  0.00    +0.000 C 
BRANCH  14  15
ATOM     15  C   UNL     1       5.978   4.065  14.188  0.00  0.00    +0.000 C 
BRANCH  15  17
ATOM     16  C   UNL     1       5.665   2.926  11.977  0.00  0.00    +0.000 C 
ATOM     17  C   UNL     1       6.493   3.931  12.758  0.00  0.00    +0.000 C 
ENDBRANCH  15  17
ENDBRANCH  14  15
ENDBRANCH  13  14
ENDBRANCH   1  13
BRANCH   6  18
ATOM     18  C   UNL     1       1.440   9.204  18.328  0.00  0.00    +0.000 C 
BRANCH  18  19
ATOM     19  C   UNL     1       1.102   9.338  19.785  0.00  0.00    +0.000 A 
ATOM     20  C   UNL     1       1.338   8.430  20.802  0.00  0.00    +0.000 A 
ATOM     21  C   UNL     1       0.853   8.881  22.059  0.00  0.00    +0.000 A 
ATOM     22  C   UNL     1       0.264  10.129  21.968  0.00  0.00    +0.000 A 
ATOM     23  S   UNL     1       0.320  10.746  20.376  0.00  0.00    +0.000 S 
ENDBRANCH  18  19
ENDBRANCH   6  18
BRANCH   9  24
ATOM     24  C   UNL     1       2.016   3.753  17.969  0.00  0.00    +0.000 C 
BRANCH  24  25
ATOM     25  C   UNL     1       1.968   3.448  19.423  0.00  0.00    +0.000 A 
ATOM     26  C   UNL     1       1.157   3.859  20.463  0.00  0.00    +0.000 A 
ATOM     27  C   UNL     1       1.736   3.349  21.651  0.00  0.00    +0.000 A 
ATOM     28  C   UNL     1       2.838   2.626  21.260  0.00  0.00    +0.000 A 
ATOM     29  O   UNL     1       2.987   2.679  19.913  0.00  0.00    +0.000 OA
ENDBRANCH  24  25
ENDBRANCH   9  24
TORSDOF 8
ENDMDL
MODEL 2
REMARK VINA RESULT:      -7.6      1.732      4.673
REMARK  Name = 
REMARK  9 active torsions:
REMARK  status: ('A' for Active; 'I' for Inactive)
REMARK    1  A    between atoms: C_1  and  C_2
REMARK    2  A    between atoms: C_2  and  C_3
REMARK    3  A    between atoms: C_3  and  C_4
REMARK    4  A    between atoms: C_4  and  C_5
REMARK    5  A    between atoms: C_5  and  N_6
REMARK    6  A    between atoms: C_11  and  C_12
REMARK    7  A    between atoms: C_12  and  C_13
REMARK    8  A    between atoms: N_20  and  C_21
REMARK    9  A    between atoms: C_21  and  C_22
REMARK                            x       y       z     vdW  Elec       q    Type
REMARK                         _______ _______ _______ _____ _____    ______ ____
ROOT
ATOM      1  N   UNL     1       4.245   4.418  19.572  0.00  0.00    +0.000 N 
ATOM      2  C   UNL     1       3.057   5.113  19.810  0.00  0.00    +0.000 A 
ATOM      3  O   UNL     1       2.184   4.780  20.603  0.00  0.00    +0.000 OA
ATOM      4  C   UNL     1       2.942   6.279  19.022  0.00  0.00    +0.000 A 
ATOM      5  N   UNL     1       1.935   7.191  18.963  0.00  0.00    +0.000 N 
ATOM      6  C   UNL     1       2.314   8.145  18.045  0.00  0.00    +0.000 A 
ATOM      7  N   UNL     1       3.496   7.853  17.519  0.00  0.00    +0.000 NA
ATOM      8  C   UNL     1       3.889   6.711  18.152  0.00  0.00    +0.000 A 
ATOM      9  N   UNL     1       5.079   6.040  18.007  0.00  0.00    +0.000 N 
ATOM     10  C   UNL     1       5.315   4.897  18.782  0.00  0.00    +0.000 A 
ATOM     11  O   UNL     1       6.408   4.325  18.765  0.00  0.00    +0.000 OA
ATOM     12  H   UNL     1       1.089   7.183  19.518  0.00  0.00    +0.000 HD
ENDROOT
BRANCH   1  13
ATOM     13  C   UNL     1       4.429   3.153  20.285  0.00  0.00    +0.000 C 
BRANCH  13  14
ATOM     14  C   UNL     1       3.619   1.986  19.699  0.00  0.00    +0.000 C 
BRANCH  14  15
ATOM     15  C   UNL     1       3.633   1.982  18.170  0.00  0.00    +0.000 C 
BRANCH  15  17
ATOM     16  C   UNL     1       1.184   2.160  18.677  0.00  0.00    +0.000 C 
ATOM     17  C   UNL     1       2.249   2.282  17.601  0.00  0.00    +0.000 C 
ENDBRANCH  15  17
ENDBRANCH  14  15
ENDBRANCH  13  14
ENDBRANCH   1  13
BRANCH   6  18
ATOM     18  C   UNL     1       1.451   9.332  17.766  0.00  0.00    +0.000 C 
BRANCH  18  19
ATOM     19  C   UNL     1       1.226  10.151  19.003  0.00  0.00    +0.000 A 
ATOM     20  C   UNL     1       0.775   9.722  20.239  0.00  0.00    +0.000 A 
ATOM     21  C   UNL     1       0.651  10.785  21.174  0.00  0.00    +0.000 A 
ATOM     22  C   UNL     1       1.021  12.000  20.626  0.00  0.00    +0.000 A 
ATOM     23  S   UNL     1       1.526  11.841  19.002  0.00  0.00    +0.000 S 
ENDBRANCH  18  19
ENDBRANCH   6  18
BRANCH   9  24
ATOM     24  C   UNL     1       6.088   6.475  17.053  0.00  0.00    +0.000 C 
BRANCH  24  25
ATOM     25  C   UNL     1       6.122   5.634  15.828  0.00  0.00    +0.000 A 
ATOM     26  C   UNL     1       5.253   4.716  15.270  0.00  0.00    +0.000 A 
ATOM     27  C   UNL     1       5.940   4.118  14.185  0.00  0.00    +0.000 A 
ATOM     28  C   UNL     1       7.166   4.736  14.122  0.00  0.00    +0.000 A 
ATOM     29  O   UNL     1       7.287   5.656  15.112  0.00  0.00    +0.000 OA
ENDBRANCH  24  25
ENDBRANCH   9  24
TORSDOF 8
ENDMDL
MODEL 3
REMARK VINA RESULT:      -7.6      2.353      5.035
REMARK  Name = 
REMARK  9 active torsions:
REMARK  status: ('A' for Active; 'I' for Inactive)
REMARK    1  A    between atoms: C_1  and  C_2
REMARK    2  A    between atoms: C_2  and  C_3
REMARK    3  A    between atoms: C_3  and  C_4
REMARK    4  A    between atoms: C_4  and  C_5
REMARK    5  A    between atoms: C_5  and  N_6
REMARK    6  A    between atoms: C_11  and  C_12
REMARK    7  A    between atoms: C_12  and  C_13
REMARK    8  A    between atoms: N_20  and  C_21
REMARK    9  A    between atoms: C_21  and  C_22
REMARK                            x       y       z     vdW  Elec       q    Type
REMARK                         _______ _______ _______ _____ _____    ______ ____
ROOT
ATOM      1  N   UNL     1       3.167   4.625  20.232  0.00  0.00    +0.000 N 
ATOM      2  C   UNL     1       2.289   5.701  20.381  0.00  0.00    +0.000 A 
ATOM      3  O   UNL     1       1.422   5.800  21.242  0.00  0.00    +0.000 OA
ATOM      4  C   UNL     1       2.490   6.707  19.410  0.00  0.00    +0.000 A 
ATOM      5  N   UNL     1       1.829   7.879  19.223  0.00  0.00    +0.000 N 
ATOM      6  C   UNL     1       2.417   8.504  18.146  0.00  0.00    +0.000 A 
ATOM      7  N   UNL     1       3.395   7.762  17.646  0.00  0.00    +0.000 NA
ATOM      8  C   UNL     1       3.451   6.664  18.453  0.00  0.00    +0.000 A 
ATOM      9  N   UNL     1       4.347   5.624  18.392  0.00  0.00    +0.000 N 
ATOM     10  C   UNL     1       4.266   4.599  19.343  0.00  0.00    +0.000 A 
ATOM     11  O   UNL     1       5.113   3.702  19.393  0.00  0.00    +0.000 OA
ATOM     12  H   UNL     1       1.073   8.236  19.795  0.00  0.00    +0.000 HD
ENDROOT
BRANCH   1  13
ATOM     13  C   UNL     1       2.993   3.494  21.145  0.00  0.00    +0.000 C 
BRANCH  13  14
ATOM     14  C   UNL     1       2.224   2.314  20.531  0.00  0.00    +0.000 C 
BRANCH  14  15
ATOM     15  C   UNL     1       0.897   2.749  19.908  0.00  0.00    +0.000 C 
BRANCH  15  17
ATOM     16  C   UNL     1       2.172   2.194  17.822  0.00  0.00    +0.000 C 
ATOM     17  C   UNL     1       0.794   2.305  18.451  0.00  0.00    +0.000 C 
ENDBRANCH  15  17
ENDBRANCH  14  15
ENDBRANCH  13  14
ENDBRANCH   1  13
BRANCH   6  18
ATOM     18  C   UNL     1       1.961   9.852  17.693  0.00  0.00    +0.000 C 
BRANCH  18  19
ATOM     19  C   UNL     1       0.700  10.270  18.393  0.00  0.00    +0.000 A 
ATOM     20  C   UNL     1      -0.607  10.046  17.998  0.00  0.00    +0.000 A 
ATOM     21  C   UNL     1      -1.553  10.615  18.894  0.00  0.00    +0.000 A 
ATOM     22  C   UNL     1      -0.939  11.252  19.957  0.00  0.00    +0.000 A 
ATOM     23  S   UNL     1       0.764  11.142  19.869  0.00  0.00    +0.000 S 
ENDBRANCH  18  19
ENDBRANCH   6  18
BRANCH   9  24
ATOM     24  C   UNL     1       5.361   5.552  17.350  0.00  0.00    +0.000 C 
BRANCH  24  25
ATOM     25  C   UNL     1       6.567   6.362  17.666  0.00  0.00    +0.000 A 
ATOM     26  C   UNL     1       7.587   6.245  18.590  0.00  0.00    +0.000 A 
ATOM     27  C   UNL     1       8.345   7.439  18.508  0.00  0.00    +0.000 A 
ATOM     28  C   UNL     1       7.767   8.191  17.513  0.00  0.00    +0.000 A 
ATOM     29  O   UNL     1       6.690   7.548  16.996  0.00  0.00    +0.000 OA
ENDBRANCH  24  25
ENDBRANCH   9  24
TORSDOF 8
ENDMDL
MODEL 4
REMARK VINA RESULT:      -7.4      1.515      1.910
REMARK  Name = 
REMARK  9 active torsions:
REMARK  status: ('A' for Active; 'I' for Inactive)
REMARK    1  A    between atoms: C_1  and  C_2
REMARK    2  A    between atoms: C_2  and  C_3
REMARK    3  A    between atoms: C_3  and  C_4
REMARK    4  A    between atoms: C_4  and  C_5
REMARK    5  A    between atoms: C_5  and  N_6
REMARK    6  A    between atoms: C_11  and  C_12
REMARK    7  A    between atoms: C_12  and  C_13
REMARK    8  A    between atoms: N_20  and  C_21
REMARK    9  A    between atoms: C_21  and  C_22
REMARK                            x       y       z     vdW  Elec       q    Type
REMARK                         _______ _______ _______ _____ _____    ______ ____
ROOT
ATOM      1  N   UNL     1       5.935   5.637  17.973  0.00  0.00    +0.000 N 
ATOM      2  C   UNL     1       5.465   6.746  17.266  0.00  0.00    +0.000 A 
ATOM      3  O   UNL     1       6.067   7.326  16.369  0.00  0.00    +0.000 OA
ATOM      4  C   UNL     1       4.186   7.164  17.695  0.00  0.00    +0.000 A 
ATOM      5  N   UNL     1       3.421   8.202  17.263  0.00  0.00    +0.000 N 
ATOM      6  C   UNL     1       2.257   8.172  17.997  0.00  0.00    +0.000 A 
ATOM      7  N   UNL     1       2.276   7.180  18.876  0.00  0.00    +0.000 NA
ATOM      8  C   UNL     1       3.463   6.544  18.661  0.00  0.00    +0.000 A 
ATOM      9  N   UNL     1       3.928   5.407  19.276  0.00  0.00    +0.000 N 
ATOM     10  C   UNL     1       5.166   4.879  18.887  0.00  0.00    +0.000 A 
ATOM     11  O   UNL     1       5.574   3.804  19.333  0.00  0.00    +0.000 OA
ATOM     12  H   UNL     1       3.655   8.846  16.518  0.00  0.00    +0.000 HD
ENDROOT
BRANCH   1  13
ATOM     13  C   UNL     1       7.284   5.169  17.656  0.00  0.00    +0.000 C 
BRANCH  13  14
ATOM     14  C   UNL     1       7.423   4.588  16.240  0.00  0.00    +0.000 C 
BRANCH  14  15
ATOM     15  C   UNL     1       6.191   3.785  15.821  0.00  0.00    +0.000 C 
BRANCH  15  17
ATOM     16  C   UNL     1       6.951   4.824  13.669  0.00  0.00    +0.000 C 
ATOM     17  C   UNL     1       5.887   3.970  14.336  0.00  0.00    +0.000 C 
ENDBRANCH  15  17
ENDBRANCH  14  15
ENDBRANCH  13  14
ENDBRANCH   1  13
BRANCH   6  18
ATOM     18  C   UNL     1       1.161   9.156  17.744  0.00  0.00    +0.000 C 
BRANCH  18  19
ATOM     19  C   UNL     1       1.122  10.220  18.803  0.00  0.00    +0.000 A 
ATOM     20  C   UNL     1       1.614  11.511  18.731  0.00  0.00    +0.000 A 
ATOM     21  C   UNL     1       1.428  12.233  19.941  0.00  0.00    +0.000 A 
ATOM     22  C   UNL     1       0.788  11.473  20.903  0.00  0.00    +0.000 A 
ATOM     23  S   UNL     1       0.407   9.909  20.332  0.00  0.00    +0.000 S 
ENDBRANCH  18  19
ENDBRANCH   6  18
BRANCH   9  24
ATOM     24  C   UNL     1       3.176   4.752  20.336  0.00  0.00    +0.000 C 
BRANCH  24  25
ATOM     25  C   UNL     1       2.135   3.826  19.815  0.00  0.00    +0.000 A 
ATOM     26  C   UNL     1       0.887   3.437  20.261  0.00  0.00    +0.000 A 
ATOM     27  C   UNL     1       0.465   2.387  19.410  0.00  0.00    +0.000 A 
ATOM     28  C   UNL     1       1.459   2.229  18.474  0.00  0.00    +0.000 A 
ATOM     29  O   UNL     1       2.475   3.096  18.710  0.00  0.00    +0.000 OA
ENDBRANCH  24  25
ENDBRANCH   9  24
TORSDOF 8
ENDMDL
MODEL 5
REMARK VINA RESULT:      -7.4      1.881      4.593
REMARK  Name = 
REMARK  9 active torsions:
REMARK  status: ('A' for Active; 'I' for Inactive)
REMARK    1  A    between atoms: C_1  and  C_2
REMARK    2  A    between atoms: C_2  and  C_3
REMARK    3  A    between atoms: C_3  and  C_4
REMARK    4  A    between atoms: C_4  and  C_5
REMARK    5  A    between atoms: C_5  and  N_6
REMARK    6  A    between atoms: C_11  and  C_12
REMARK    7  A    between atoms: C_12  and  C_13
REMARK    8  A    between atoms: N_20  and  C_21
REMARK    9  A    between atoms: C_21  and  C_22
REMARK                            x       y       z     vdW  Elec       q    Type
REMARK                         _______ _______ _______ _____ _____    ______ ____
ROOT
ATOM      1  N   UNL     1       3.430   4.486  20.023  0.00  0.00    +0.000 N 
ATOM      2  C   UNL     1       2.379   5.405  20.035  0.00  0.00    +0.000 A 
ATOM      3  O   UNL     1       1.336   5.286  20.669  0.00  0.00    +0.000 OA
ATOM      4  C   UNL     1       2.628   6.529  19.217  0.00  0.00    +0.000 A 
ATOM      5  N   UNL     1       1.844   7.610  18.964  0.00  0.00    +0.000 N 
ATOM      6  C   UNL     1       2.551   8.425  18.108  0.00  0.00    +0.000 A 
ATOM      7  N   UNL     1       3.724   7.887  17.803  0.00  0.00    +0.000 NA
ATOM      8  C   UNL     1       3.774   6.727  18.518  0.00  0.00    +0.000 A 
ATOM      9  N   UNL     1       4.817   5.835  18.597  0.00  0.00    +0.000 N 
ATOM     10  C   UNL     1       4.691   4.711  19.423  0.00  0.00    +0.000 A 
ATOM     11  O   UNL     1       5.638   3.943  19.609  0.00  0.00    +0.000 OA
ATOM     12  H   UNL     1       0.932   7.792  19.362  0.00  0.00    +0.000 HD
ENDROOT
BRANCH   1  13
ATOM     13  C   UNL     1       3.241   3.249  20.781  0.00  0.00    +0.000 C 
BRANCH  13  14
ATOM     14  C   UNL     1       2.383   2.200  20.056  0.00  0.00    +0.000 C 
BRANCH  14  15
ATOM     15  C   UNL     1       3.025   1.729  18.751  0.00  0.00    +0.000 C 
BRANCH  15  17
ATOM     16  C   UNL     1       2.853   3.364  16.858  0.00  0.00    +0.000 C 
ATOM     17  C   UNL     1       2.208   2.170  17.539  0.00  0.00    +0.000 C 
ENDBRANCH  15  17
ENDBRANCH  14  15
ENDBRANCH  13  14
ENDBRANCH   1  13
BRANCH   6  18
ATOM     18  C   UNL     1       1.997   9.737  17.659  0.00  0.00    +0.000 C 
BRANCH  18  19
ATOM     19  C   UNL     1       0.746  10.092  18.411  0.00  0.00    +0.000 A 
ATOM     20  C   UNL     1      -0.566   9.945  17.999  0.00  0.00    +0.000 A 
ATOM     21  C   UNL     1      -1.497  10.419  18.962  0.00  0.00    +0.000 A 
ATOM     22  C   UNL     1      -0.866  10.909  20.092  0.00  0.00    +0.000 A 
ATOM     23  S   UNL     1       0.834  10.777  19.982  0.00  0.00    +0.000 S 
ENDBRANCH  18  19
ENDBRANCH   6  18
BRANCH   9  24
ATOM     24  C   UNL     1       6.038   6.021  17.826  0.00  0.00    +0.000 C 
BRANCH  24  25
ATOM     25  C   UNL     1       5.973   5.383  16.484  0.00  0.00    +0.000 A 
ATOM     26  C   UNL     1       5.357   5.715  15.293  0.00  0.00    +0.000 A 
ATOM     27  C   UNL     1       5.525   4.605  14.430  0.00  0.00    +0.000 A 
ATOM     28  C   UNL     1       6.265   3.683  15.131  0.00  0.00    +0.000 A 
ATOM     29  O   UNL     1       6.543   4.145  16.376  0.00  0.00    +0.000 OA
ENDBRANCH  24  25
ENDBRANCH   9  24
TORSDOF 8
ENDMDL
MODEL 6
REMARK VINA RESULT:      -7.2      1.262      2.288
REMARK  Name = 
REMARK  9 active torsions:
REMARK  status: ('A' for Active; 'I' for Inactive)
REMARK    1  A    between atoms: C_1  and  C_2
REMARK    2  A    between atoms: C_2  and  C_3
REMARK    3  A    between atoms: C_3  and  C_4
REMARK    4  A    between atoms: C_4  and  C_5
REMARK    5  A    between atoms: C_5  and  N_6
REMARK    6  A    between atoms: C_11  and  C_12
REMARK    7  A    between atoms: C_12  and  C_13
REMARK    8  A    between atoms: N_20  and  C_21
REMARK    9  A    between atoms: C_21  and  C_22
REMARK                            x       y       z     vdW  Elec       q    Type
REMARK                         _______ _______ _______ _____ _____    ______ ____
ROOT
ATOM      1  N   UNL     1       5.005   4.978  16.795  0.00  0.00    +0.000 N 
ATOM      2  C   UNL     1       4.972   6.373  16.840  0.00  0.00    +0.000 A 
ATOM      3  O   UNL     1       5.873   7.119  16.473  0.00  0.00    +0.000 OA
ATOM      4  C   UNL     1       3.762   6.873  17.371  0.00  0.00    +0.000 A 
ATOM      5  N   UNL     1       3.373   8.157  17.586  0.00  0.00    +0.000 N 
ATOM      6  C   UNL     1       2.101   8.107  18.112  0.00  0.00    +0.000 A 
ATOM      7  N   UNL     1       1.697   6.852  18.253  0.00  0.00    +0.000 NA
ATOM      8  C   UNL     1       2.722   6.096  17.765  0.00  0.00    +0.000 A 
ATOM      9  N   UNL     1       2.764   4.730  17.629  0.00  0.00    +0.000 N 
ATOM     10  C   UNL     1       3.900   4.136  17.064  0.00  0.00    +0.000 A 
ATOM     11  O   UNL     1       3.940   2.927  16.823  0.00  0.00    +0.000 OA
ATOM     12  H   UNL     1       3.907   8.988  17.363  0.00  0.00    +0.000 HD
ENDROOT
BRANCH   1  13
ATOM     13  C   UNL     1       6.245   4.357  16.329  0.00  0.00    +0.000 C 
BRANCH  13  14
ATOM     14  C   UNL     1       7.433   4.548  17.285  0.00  0.00    +0.000 C 
BRANCH  14  15
ATOM     15  C   UNL     1       6.986   4.716  18.737  0.00  0.00    +0.000 C 
BRANCH  15  17
ATOM     16  C   UNL     1       8.161   6.926  18.595  0.00  0.00    +0.000 C 
ATOM     17  C   UNL     1       7.861   5.725  19.476  0.00  0.00    +0.000 C 
ENDBRANCH  15  17
ENDBRANCH  14  15
ENDBRANCH  13  14
ENDBRANCH   1  13
BRANCH   6  18
ATOM     18  C   UNL     1       1.346   9.357  18.424  0.00  0.00    +0.000 C 
BRANCH  18  19
ATOM     19  C   UNL     1       0.946   9.411  19.871  0.00  0.00    +0.000 A 
ATOM     20  C   UNL     1       1.438   8.655  20.919  0.00  0.00    +0.000 A 
ATOM     21  C   UNL     1       0.801   8.955  22.154  0.00  0.00    +0.000 A 
ATOM     22  C   UNL     1      -0.158   9.942  22.014  0.00  0.00    +0.000 A 
ATOM     23  S   UNL     1      -0.265  10.504  20.404  0.00  0.00    +0.000 S 
ENDBRANCH  18  19
ENDBRANCH   6  18
BRANCH   9  24
ATOM     24  C   UNL     1       1.667   3.885  18.078  0.00  0.00    +0.000 C 
BRANCH  24  25
ATOM     25  C   UNL     1       1.838   3.417  19.479  0.00  0.00    +0.000 A 
ATOM     26  C   UNL     1       1.000   3.344  20.575  0.00  0.00    +0.000 A 
ATOM     27  C   UNL     1       1.809   2.972  21.676  0.00  0.00    +0.000 A 
ATOM     28  C   UNL     1       3.079   2.802  21.178  0.00  0.00    +0.000 A 
ATOM     29  O   UNL     1       3.107   3.067  19.848  0.00  0.00    +0.000 OA
ENDBRANCH  24  25
ENDBRANCH   9  24
TORSDOF 8
ENDMDL
MODEL 7
REMARK VINA RESULT:      -7.2      1.156      1.373
REMARK  Name = 
REMARK  9 active torsions:
REMARK  status: ('A' for Active; 'I' for Inactive)
REMARK    1  A    between atoms: C_1  and  C_2
REMARK    2  A    between atoms: C_2  and  C_3
REMARK    3  A    between atoms: C_3  and  C_4
REMARK    4  A    between atoms: C_4  and  C_5
REMARK    5  A    between atoms: C_5  and  N_6
REMARK    6  A    between atoms: C_11  and  C_12
REMARK    7  A    between atoms: C_12  and  C_13
REMARK    8  A    between atoms: N_20  and  C_21
REMARK    9  A    between atoms: C_21  and  C_22
REMARK                            x       y       z     vdW  Elec       q    Type
REMARK                         _______ _______ _______ _____ _____    ______ ____
ROOT
ATOM      1  N   UNL     1       5.603   5.405  16.967  0.00  0.00    +0.000 N 
ATOM      2  C   UNL     1       4.957   6.533  16.457  0.00  0.00    +0.000 A 
ATOM      3  O   UNL     1       5.212   7.076  15.387  0.00  0.00    +0.000 OA
ATOM      4  C   UNL     1       3.947   7.018  17.316  0.00  0.00    +0.000 A 
ATOM      5  N   UNL     1       3.125   8.092  17.171  0.00  0.00    +0.000 N 
ATOM      6  C   UNL     1       2.313   8.126  18.283  0.00  0.00    +0.000 A 
ATOM      7  N   UNL     1       2.610   7.138  19.116  0.00  0.00    +0.000 NA
ATOM      8  C   UNL     1       3.603   6.441  18.495  0.00  0.00    +0.000 A 
ATOM      9  N   UNL     1       4.210   5.285  18.922  0.00  0.00    +0.000 N 
ATOM     10  C   UNL     1       5.191   4.692  18.117  0.00  0.00    +0.000 A 
ATOM     11  O   UNL     1       5.685   3.599  18.408  0.00  0.00    +0.000 OA
ATOM     12  H   UNL     1       3.097   8.720  16.378  0.00  0.00    +0.000 HD
ENDROOT
BRANCH   1  13
ATOM     13  C   UNL     1       6.717   4.867  16.187  0.00  0.00    +0.000 C 
BRANCH  13  14
ATOM     14  C   UNL     1       6.300   3.800  15.162  0.00  0.00    +0.000 C 
BRANCH  14  15
ATOM     15  C   UNL     1       6.492   4.275  13.722  0.00  0.00    +0.000 C 
BRANCH  15  17
ATOM     16  C   UNL     1       5.961   2.667  11.872  0.00  0.00    +0.000 C 
ATOM     17  C   UNL     1       5.401   3.727  12.805  0.00  0.00    +0.000 C 
ENDBRANCH  15  17
ENDBRANCH  14  15
ENDBRANCH  13  14
ENDBRANCH   1  13
BRANCH   6  18
ATOM     18  C   UNL     1       1.248   9.163  18.427  0.00  0.00    +0.000 C 
BRANCH  18  19
ATOM     19  C   UNL     1       0.914   9.412  19.870  0.00  0.00    +0.000 A 
ATOM     20  C   UNL     1       0.939   8.508  20.918  0.00  0.00    +0.000 A 
ATOM     21  C   UNL     1       0.529   9.089  22.148  0.00  0.00    +0.000 A 
ATOM     22  C   UNL     1       0.210  10.428  22.007  0.00  0.00    +0.000 A 
ATOM     23  S   UNL     1       0.424  10.968  20.401  0.00  0.00    +0.000 S 
ENDBRANCH  18  19
ENDBRANCH   6  18
BRANCH   9  24
ATOM     24  C   UNL     1       3.872   4.675  20.200  0.00  0.00    +0.000 C 
BRANCH  24  25
ATOM     25  C   UNL     1       2.724   3.735  20.102  0.00  0.00    +0.000 A 
ATOM     26  C   UNL     1       2.559   2.477  19.555  0.00  0.00    +0.000 A 
ATOM     27  C   UNL     1       1.174   2.186  19.627  0.00  0.00    +0.000 A 
ATOM     28  C   UNL     1       0.588   3.262  20.250  0.00  0.00    +0.000 A 
ATOM     29  O   UNL     1       1.518   4.205  20.543  0.00  0.00    +0.000 OA
ENDBRANCH  24  25
ENDBRANCH   9  24
TORSDOF 8
ENDMDL
MODEL 8
REMARK VINA RESULT:      -7.1      1.151      1.350
REMARK  Name = 
REMARK  9 active torsions:
REMARK  status: ('A' for Active; 'I' for Inactive)
REMARK    1  A    between atoms: C_1  and  C_2
REMARK    2  A    between atoms: C_2  and  C_3
REMARK    3  A    between atoms: C_3  and  C_4
REMARK    4  A    between atoms: C_4  and  C_5
REMARK    5  A    between atoms: C_5  and  N_6
REMARK    6  A    between atoms: C_11  and  C_12
REMARK    7  A    between atoms: C_12  and  C_13
REMARK    8  A    between atoms: N_20  and  C_21
REMARK    9  A    between atoms: C_21  and  C_22
REMARK                            x       y       z     vdW  Elec       q    Type
REMARK                         _______ _______ _______ _____ _____    ______ ____
ROOT
ATOM      1  N   UNL     1       5.007   4.956  17.038  0.00  0.00    +0.000 N 
ATOM      2  C   UNL     1       5.217   6.333  16.933  0.00  0.00    +0.000 A 
ATOM      3  O   UNL     1       6.249   6.868  16.543  0.00  0.00    +0.000 OA
ATOM      4  C   UNL     1       4.094   7.087  17.337  0.00  0.00    +0.000 A 
ATOM      5  N   UNL     1       3.927   8.435  17.392  0.00  0.00    +0.000 N 
ATOM      6  C   UNL     1       2.647   8.661  17.845  0.00  0.00    +0.000 A 
ATOM      7  N   UNL     1       2.024   7.517  18.094  0.00  0.00    +0.000 NA
ATOM      8  C   UNL     1       2.919   6.548  17.749  0.00  0.00    +0.000 A 
ATOM      9  N   UNL     1       2.727   5.188  17.761  0.00  0.00    +0.000 N 
ATOM     10  C   UNL     1       3.763   4.350  17.328  0.00  0.00    +0.000 A 
ATOM     11  O   UNL     1       3.600   3.132  17.219  0.00  0.00    +0.000 OA
ATOM     12  H   UNL     1       4.606   9.132  17.115  0.00  0.00    +0.000 HD
ENDROOT
BRANCH   1  13
ATOM     13  C   UNL     1       6.137   4.084  16.713  0.00  0.00    +0.000 C 
BRANCH  13  14
ATOM     14  C   UNL     1       5.997   3.363  15.362  0.00  0.00    +0.000 C 
BRANCH  14  15
ATOM     15  C   UNL     1       5.826   4.341  14.200  0.00  0.00    +0.000 C 
BRANCH  15  17
ATOM     16  C   UNL     1       5.332   3.219  12.012  0.00  0.00    +0.000 C 
ATOM     17  C   UNL     1       6.421   3.780  12.910  0.00  0.00    +0.000 C 
ENDBRANCH  15  17
ENDBRANCH  14  15
ENDBRANCH  13  14
ENDBRANCH   1  13
BRANCH   6  18
ATOM     18  C   UNL     1       2.110  10.049  17.980  0.00  0.00    +0.000 C 
BRANCH  18  19
ATOM     19  C   UNL     1       0.828  10.070  18.761  0.00  0.00    +0.000 A 
ATOM     20  C   UNL     1      -0.465  10.146  18.275  0.00  0.00    +0.000 A 
ATOM     21  C   UNL     1      -1.436  10.175  19.311  0.00  0.00    +0.000 A 
ATOM     22  C   UNL     1      -0.857  10.111  20.565  0.00  0.00    +0.000 A 
ATOM     23  S   UNL     1       0.846  10.001  20.476  0.00  0.00    +0.000 S 
ENDBRANCH  18  19
ENDBRANCH   6  18
BRANCH   9  24
ATOM     24  C   UNL     1       1.482   4.598  18.231  0.00  0.00    +0.000 C 
BRANCH  24  25
ATOM     25  C   UNL     1       1.631   3.912  19.542  0.00  0.00    +0.000 A 
ATOM     26  C   UNL     1       1.091   2.764  20.090  0.00  0.00    +0.000 A 
ATOM     27  C   UNL     1       1.487   2.744  21.450  0.00  0.00    +0.000 A 
ATOM     28  C   UNL     1       2.276   3.855  21.636  0.00  0.00    +0.000 A 
ATOM     29  O   UNL     1       2.370   4.569  20.486  0.00  0.00    +0.000 OA
ENDBRANCH  24  25
ENDBRANCH   9  24
TORSDOF 8
ENDMDL
MODEL 9
REMARK VINA RESULT:      -7.1      3.758      6.681
REMARK  Name = 
REMARK  9 active torsions:
REMARK  status: ('A' for Active; 'I' for Inactive)
REMARK    1  A    between atoms: C_1  and  C_2
REMARK    2  A    between atoms: C_2  and  C_3
REMARK    3  A    between atoms: C_3  and  C_4
REMARK    4  A    between atoms: C_4  and  C_5
REMARK    5  A    between atoms: C_5  and  N_6
REMARK    6  A    between atoms: C_11  and  C_12
REMARK    7  A    between atoms: C_12  and  C_13
REMARK    8  A    between atoms: N_20  and  C_21
REMARK    9  A    between atoms: C_21  and  C_22
REMARK                            x       y       z     vdW  Elec       q    Type
REMARK                         _______ _______ _______ _____ _____    ______ ____
ROOT
ATOM      1  N   UNL     1       7.490   6.683  18.415  0.00  0.00    +0.000 N 
ATOM      2  C   UNL     1       7.184   5.658  19.313  0.00  0.00    +0.000 A 
ATOM      3  O   UNL     1       7.710   5.491  20.408  0.00  0.00    +0.000 OA
ATOM      4  C   UNL     1       6.180   4.792  18.830  0.00  0.00    +0.000 A 
ATOM      5  N   UNL     1       5.637   3.686  19.404  0.00  0.00    +0.000 N 
ATOM      6  C   UNL     1       4.689   3.205  18.529  0.00  0.00    +0.000 A 
ATOM      7  N   UNL     1       4.637   3.949  17.432  0.00  0.00    +0.000 NA
ATOM      8  C   UNL     1       5.544   4.945  17.641  0.00  0.00    +0.000 A 
ATOM      9  N   UNL     1       5.819   6.014  16.823  0.00  0.00    +0.000 N 
ATOM     10  C   UNL     1       6.764   6.962  17.234  0.00  0.00    +0.000 A 
ATOM     11  O   UNL     1       6.964   7.992  16.584  0.00  0.00    +0.000 OA
ATOM     12  H   UNL     1       5.865   3.314  20.318  0.00  0.00    +0.000 HD
ENDROOT
BRANCH   1  13
ATOM     13  C   UNL     1       8.572   7.595  18.789  0.00  0.00    +0.000 C 
BRANCH  13  14
ATOM     14  C   UNL     1       8.283   9.068  18.460  0.00  0.00    +0.000 C 
BRANCH  14  15
ATOM     15  C   UNL     1       9.474   9.975  18.773  0.00  0.00    +0.000 C 
BRANCH  15  17
ATOM     16  C   UNL     1      10.400  11.678  20.364  0.00  0.00    +0.000 C 
ATOM     17  C   UNL     1       9.338  10.613  20.154  0.00  0.00    +0.000 C 
ENDBRANCH  15  17
ENDBRANCH  14  15
ENDBRANCH  13  14
ENDBRANCH   1  13
BRANCH   6  18
ATOM     18  C   UNL     1       3.859   2.011  18.871  0.00  0.00    +0.000 C 
BRANCH  18  19
ATOM     19  C   UNL     1       2.672   2.389  19.709  0.00  0.00    +0.000 A 
ATOM     20  C   UNL     1       2.603   2.503  21.086  0.00  0.00    +0.000 A 
ATOM     21  C   UNL     1       1.303   2.851  21.541  0.00  0.00    +0.000 A 
ATOM     22  C   UNL     1       0.413   3.003  20.494  0.00  0.00    +0.000 A 
ATOM     23  S   UNL     1       1.159   2.739  18.979  0.00  0.00    +0.000 S 
ENDBRANCH  18  19
ENDBRANCH   6  18
BRANCH   9  24
ATOM     24  C   UNL     1       5.167   6.171  15.531  0.00  0.00    +0.000 C 
BRANCH  24  25
ATOM     25  C   UNL     1       5.753   5.297  14.481  0.00  0.00    +0.000 A 
ATOM     26  C   UNL     1       5.326   4.152  13.837  0.00  0.00    +0.000 A 
ATOM     27  C   UNL     1       6.421   3.693  13.064  0.00  0.00    +0.000 A 
ATOM     28  C   UNL     1       7.431   4.606  13.250  0.00  0.00    +0.000 A 
ATOM     29  O   UNL     1       7.037   5.582  14.106  0.00  0.00    +0.000 OA
ENDBRANCH  24  25
ENDBRANCH   9  24
TORSDOF 8
ENDMDL
