MODEL 1
REMARK VINA RESULT:      -7.6      0.000      0.000
REMARK  Name = 
REMARK  6 active torsions:
REMARK  status: ('A' for Active; 'I' for Inactive)
REMARK    1  A    between atoms: C_2  and  C_14
REMARK    2  A    between atoms: N_3  and  N_4
REMARK    3  A    between atoms: C_5  and  C_6
REMARK    4  A    between atoms: C_8  and  O_9
REMARK    5  A    between atoms: C_12  and  O_13
REMARK    6  A    between atoms: C_17  and  N_18
REMARK                            x       y       z     vdW  Elec       q    Type
REMARK                         _______ _______ _______ _____ _____    ______ ____
ROOT
ATOM      1  O   UNL     1       8.274   5.967  19.209  0.00  0.00    +0.000 OA
ATOM      2  C   UNL     1       7.423   6.503  18.507  0.00  0.00    +0.000 C 
ATOM      3  N   UNL     1       7.524   7.765  17.936  0.00  0.00    +0.000 N 
ATOM      4  H   UNL     1       6.804   8.141  17.334  0.00  0.00    +0.000 HD
ENDROOT
BRANCH   2   5
ATOM      5  C   UNL     1       6.168   5.754  18.199  0.00  0.00    +0.000 A 
ATOM      6  C   UNL     1       5.699   5.598  16.887  0.00  0.00    +0.000 A 
ATOM      7  C   UNL     1       4.508   4.907  16.641  0.00  0.00    +0.000 A 
ATOM      8  C   UNL     1       3.780   4.371  17.713  0.00  0.00    +0.000 A 
ATOM      9  C   UNL     1       4.239   4.520  19.027  0.00  0.00    +0.000 A 
ATOM     10  C   UNL     1       5.429   5.216  19.266  0.00  0.00    +0.000 A 
BRANCH   8  11
ATOM     11  N   UNL     1       2.529   3.650  17.449  0.00  0.00    +0.000 N 
ATOM     12  O   UNL     1       2.585   2.416  17.351  0.00  0.00    +0.000 OA
ATOM     13  O   UNL     1       1.489   4.317  17.345  0.00  0.00    +0.000 OA
ENDBRANCH   8  11
ENDBRANCH   2   5
BRANCH   3  14
ATOM     14  N   UNL     1       8.642   8.511  18.154  0.00  0.00    +0.000 NA
ATOM     15  C   UNL     1       8.448   9.749  18.486  0.00  0.00    +0.000 C 
BRANCH  15  16
ATOM     16  C   UNL     1       9.591  10.643  18.776  0.00  0.00    +0.000 A 
ATOM     17  C   UNL     1      10.360  11.134  17.717  0.00  0.00    +0.000 A 
ATOM     18  C   UNL     1      11.445  11.959  17.987  0.00  0.00    +0.000 A 
ATOM     19  C   UNL     1      11.780  12.294  19.294  0.00  0.00    +0.000 A 
ATOM     20  C   UNL     1      11.016  11.804  20.356  0.00  0.00    +0.000 A 
ATOM     21  C   UNL     1       9.918  10.979  20.094  0.00  0.00    +0.000 A 
BRANCH  18  22
ATOM     22  O   UNL     1      12.215  12.466  16.983  0.00  0.00    +0.000 OA
ATOM     23  H   UNL     1      11.769  12.297  16.135  0.00  0.00    +0.000 HD
ENDBRANCH  18  22
BRANCH  21  24
ATOM     24  O   UNL     1       9.170  10.501  21.134  0.00  0.00    +0.000 OA
ATOM     25  H   UNL     1       9.737   9.947  21.699  0.00  0.00    +0.000 HD
ENDBRANCH  21  24
ENDBRANCH  15  16
ENDBRANCH   3  14
TORSDOF 6
ENDMDL
MODEL 2
REMARK VINA RESULT:      -7.6      1.535      1.768
REMARK  Name = 
REMARK  6 active torsions:
REMARK  status: ('A' for Active; 'I' for Inactive)
REMARK    1  A    between atoms: C_2  and  C_14
REMARK    2  A    between atoms: N_3  and  N_4
REMARK    3  A    between atoms: C_5  and  C_6
REMARK    4  A    between atoms: C_8  and  O_9
REMARK    5  A    between atoms: C_12  and  O_13
REMARK    6  A    between atoms: C_17  and  N_18
REMARK                            x       y       z     vdW  Elec       q    Type
REMARK                         _______ _______ _______ _____ _____    ______ ____
ROOT
ATOM      1  O   UNL     1       8.264   6.570  18.972  0.00  0.00    +0.000 OA
ATOM      2  C   UNL     1       7.407   6.773  18.119  0.00  0.00    +0.000 C 
ATOM      3  N   UNL     1       7.355   7.874  17.273  0.00  0.00    +0.000 N 
ATOM      4  H   UNL     1       6.643   7.971  16.561  0.00  0.00    +0.000 HD
ENDROOT
BRANCH   2   5
ATOM      5  C   UNL     1       6.326   5.761  17.927  0.00  0.00    +0.000 A 
ATOM      6  C   UNL     1       5.756   5.510  16.670  0.00  0.00    +0.000 A 
ATOM      7  C   UNL     1       4.732   4.568  16.535  0.00  0.00    +0.000 A 
ATOM      8  C   UNL     1       4.271   3.874  17.663  0.00  0.00    +0.000 A 
ATOM      9  C   UNL     1       4.833   4.115  18.923  0.00  0.00    +0.000 A 
ATOM     10  C   UNL     1       5.855   5.062  19.051  0.00  0.00    +0.000 A 
BRANCH   8  11
ATOM     11  N   UNL     1       3.193   2.889  17.515  0.00  0.00    +0.000 N 
ATOM     12  O   UNL     1       3.407   1.737  17.918  0.00  0.00    +0.000 OA
ATOM     13  O   UNL     1       2.130   3.269  17.003  0.00  0.00    +0.000 OA
ENDBRANCH   8  11
ENDBRANCH   2   5
BRANCH   3  14
ATOM     14  N   UNL     1       8.311   8.839  17.371  0.00  0.00    +0.000 NA
ATOM     15  C   UNL     1       7.964   9.927  17.984  0.00  0.00    +0.000 C 
BRANCH  15  16
ATOM     16  C   UNL     1       8.931  11.031  18.174  0.00  0.00    +0.000 A 
ATOM     17  C   UNL     1      10.073  10.812  18.950  0.00  0.00    +0.000 A 
ATOM     18  C   UNL     1      10.974  11.851  19.146  0.00  0.00    +0.000 A 
ATOM     19  C   UNL     1      10.749  13.106  18.590  0.00  0.00    +0.000 A 
ATOM     20  C   UNL     1       9.608  13.330  17.817  0.00  0.00    +0.000 A 
ATOM     21  C   UNL     1       8.699  12.289  17.608  0.00  0.00    +0.000 A 
BRANCH  18  22
ATOM     22  O   UNL     1      12.104  11.677  19.888  0.00  0.00    +0.000 OA
ATOM     23  H   UNL     1      12.865  11.993  19.371  0.00  0.00    +0.000 HD
ENDBRANCH  18  22
BRANCH  21  24
ATOM     24  O   UNL     1       7.583  12.510  16.849  0.00  0.00    +0.000 OA
ATOM     25  H   UNL     1       6.809  12.152  17.319  0.00  0.00    +0.000 HD
ENDBRANCH  21  24
ENDBRANCH  15  16
ENDBRANCH   3  14
TORSDOF 6
ENDMDL
MODEL 3
REMARK VINA RESULT:      -7.5      1.494      2.023
REMARK  Name = 
REMARK  6 active torsions:
REMARK  status: ('A' for Active; 'I' for Inactive)
REMARK    1  A    between atoms: C_2  and  C_14
REMARK    2  A    between atoms: N_3  and  N_4
REMARK    3  A    between atoms: C_5  and  C_6
REMARK    4  A    between atoms: C_8  and  O_9
REMARK    5  A    between atoms: C_12  and  O_13
REMARK    6  A    between atoms: C_17  and  N_18
REMARK                            x       y       z     vdW  Elec       q    Type
REMARK                         _______ _______ _______ _____ _____    ______ ____
ROOT
ATOM      1  O   UNL     1       8.262   6.545  18.903  0.00  0.00    +0.000 OA
ATOM      2  C   UNL     1       7.356   6.758  18.105  0.00  0.00    +0.000 C 
ATOM      3  N   UNL     1       7.260   7.863  17.268  0.00  0.00    +0.000 N 
ATOM      4  H   UNL     1       6.506   7.968  16.603  0.00  0.00    +0.000 HD
ENDROOT
BRANCH   2   5
ATOM      5  C   UNL     1       6.258   5.754  17.975  0.00  0.00    +0.000 A 
ATOM      6  C   UNL     1       5.635   5.185  19.095  0.00  0.00    +0.000 A 
ATOM      7  C   UNL     1       4.624   4.233  18.932  0.00  0.00    +0.000 A 
ATOM      8  C   UNL     1       4.235   3.845  17.643  0.00  0.00    +0.000 A 
ATOM      9  C   UNL     1       4.848   4.406  16.517  0.00  0.00    +0.000 A 
ATOM     10  C   UNL     1       5.862   5.356  16.687  0.00  0.00    +0.000 A 
BRANCH   8  11
ATOM     11  N   UNL     1       3.175   2.842  17.478  0.00  0.00    +0.000 N 
ATOM     12  O   UNL     1       3.432   1.675  17.806  0.00  0.00    +0.000 OA
ATOM     13  O   UNL     1       2.085   3.222  17.027  0.00  0.00    +0.000 OA
ENDBRANCH   8  11
ENDBRANCH   2   5
BRANCH   3  14
ATOM     14  N   UNL     1       8.226   8.821  17.312  0.00  0.00    +0.000 NA
ATOM     15  C   UNL     1       7.999   9.828  18.098  0.00  0.00    +0.000 C 
BRANCH  15  16
ATOM     16  C   UNL     1       8.994  10.912  18.246  0.00  0.00    +0.000 A 
ATOM     17  C   UNL     1      10.129  10.696  19.032  0.00  0.00    +0.000 A 
ATOM     18  C   UNL     1      11.056  11.719  19.188  0.00  0.00    +0.000 A 
ATOM     19  C   UNL     1      10.864  12.956  18.582  0.00  0.00    +0.000 A 
ATOM     20  C   UNL     1       9.730  13.178  17.797  0.00  0.00    +0.000 A 
ATOM     21  C   UNL     1       8.796  12.153  17.628  0.00  0.00    +0.000 A 
BRANCH  18  22
ATOM     22  O   UNL     1      12.181  11.546  19.939  0.00  0.00    +0.000 OA
ATOM     23  H   UNL     1      12.908  11.279  19.351  0.00  0.00    +0.000 HD
ENDBRANCH  18  22
BRANCH  21  24
ATOM     24  O   UNL     1       7.686  12.371  16.859  0.00  0.00    +0.000 OA
ATOM     25  H   UNL     1       6.896  12.124  17.371  0.00  0.00    +0.000 HD
ENDBRANCH  21  24
ENDBRANCH  15  16
ENDBRANCH   3  14
TORSDOF 6
ENDMDL
MODEL 4
REMARK VINA RESULT:      -7.4      6.924     10.021
REMARK  Name = 
REMARK  6 active torsions:
REMARK  status: ('A' for Active; 'I' for Inactive)
REMARK    1  A    between atoms: C_2  and  C_14
REMARK    2  A    between atoms: N_3  and  N_4
REMARK    3  A    between atoms: C_5  and  C_6
REMARK    4  A    between atoms: C_8  and  O_9
REMARK    5  A    between atoms: C_12  and  O_13
REMARK    6  A    between atoms: C_17  and  N_18
REMARK                            x       y       z     vdW  Elec       q    Type
REMARK                         _______ _______ _______ _____ _____    ______ ____
ROOT
ATOM      1  O   UNL     1       1.871   8.745  18.961  0.00  0.00    +0.000 OA
ATOM      2  C   UNL     1       1.426   8.437  20.062  0.00  0.00    +0.000 C 
ATOM      3  N   UNL     1       1.574   7.199  20.676  0.00  0.00    +0.000 N 
ATOM      4  H   UNL     1       1.216   7.014  21.603  0.00  0.00    +0.000 HD
ENDROOT
BRANCH   2   5
ATOM      5  C   UNL     1       0.677   9.462  20.849  0.00  0.00    +0.000 A 
ATOM      6  C   UNL     1       0.514  10.777  20.391  0.00  0.00    +0.000 A 
ATOM      7  C   UNL     1      -0.178  11.713  21.167  0.00  0.00    +0.000 A 
ATOM      8  C   UNL     1      -0.709  11.333  22.407  0.00  0.00    +0.000 A 
ATOM      9  C   UNL     1      -0.554  10.022  22.874  0.00  0.00    +0.000 A 
ATOM     10  C   UNL     1       0.143   9.092  22.095  0.00  0.00    +0.000 A 
BRANCH   8  11
ATOM     11  N   UNL     1      -1.430  12.321  23.218  0.00  0.00    +0.000 N 
ATOM     12  O   UNL     1      -0.815  13.337  23.569  0.00  0.00    +0.000 OA
ATOM     13  O   UNL     1      -2.614  12.084  23.500  0.00  0.00    +0.000 OA
ENDBRANCH   8  11
ENDBRANCH   2   5
BRANCH   3  14
ATOM     14  N   UNL     1       2.257   6.211  20.034  0.00  0.00    +0.000 NA
ATOM     15  C   UNL     1       1.821   5.004  20.217  0.00  0.00    +0.000 C 
BRANCH  15  16
ATOM     16  C   UNL     1       2.468   3.856  19.545  0.00  0.00    +0.000 A 
ATOM     17  C   UNL     1       3.510   3.184  20.191  0.00  0.00    +0.000 A 
ATOM     18  C   UNL     1       4.132   2.117  19.555  0.00  0.00    +0.000 A 
ATOM     19  C   UNL     1       3.739   1.717  18.282  0.00  0.00    +0.000 A 
ATOM     20  C   UNL     1       2.700   2.386  17.631  0.00  0.00    +0.000 A 
ATOM     21  C   UNL     1       2.063   3.456  18.266  0.00  0.00    +0.000 A 
BRANCH  18  22
ATOM     22  O   UNL     1       5.145   1.430  20.153  0.00  0.00    +0.000 OA
ATOM     23  H   UNL     1       5.558   2.005  20.820  0.00  0.00    +0.000 HD
ENDBRANCH  18  22
BRANCH  21  24
ATOM     24  O   UNL     1       1.046   4.110  17.628  0.00  0.00    +0.000 OA
ATOM     25  H   UNL     1       1.426   4.804  17.061  0.00  0.00    +0.000 HD
ENDBRANCH  21  24
ENDBRANCH  15  16
ENDBRANCH   3  14
TORSDOF 6
ENDMDL
MODEL 5
REMARK VINA RESULT:      -7.4      1.041      1.288
REMARK  Name = 
REMARK  6 active torsions:
REMARK  status: ('A' for Active; 'I' for Inactive)
REMARK    1  A    between atoms: C_2  and  C_14
REMARK    2  A    between atoms: N_3  and  N_4
REMARK    3  A    between atoms: C_5  and  C_6
REMARK    4  A    between atoms: C_8  and  O_9
REMARK    5  A    between atoms: C_12  and  O_13
REMARK    6  A    between atoms: C_17  and  N_18
REMARK                            x       y       z     vdW  Elec       q    Type
REMARK                         _______ _______ _______ _____ _____    ______ ____
ROOT
ATOM      1  O   UNL     1       8.041   6.809  16.379  0.00  0.00    +0.000 OA
ATOM      2  C   UNL     1       7.093   7.158  17.075  0.00  0.00    +0.000 C 
ATOM      3  N   UNL     1       7.015   8.340  17.801  0.00  0.00    +0.000 N 
ATOM      4  H   UNL     1       6.191   8.591  18.329  0.00  0.00    +0.000 HD
ENDROOT
BRANCH   2   5
ATOM      5  C   UNL     1       5.892   6.273  17.152  0.00  0.00    +0.000 A 
ATOM      6  C   UNL     1       4.763   6.617  17.909  0.00  0.00    +0.000 A 
ATOM      7  C   UNL     1       3.666   5.752  17.972  0.00  0.00    +0.000 A 
ATOM      8  C   UNL     1       3.698   4.535  17.277  0.00  0.00    +0.000 A 
ATOM      9  C   UNL     1       4.819   4.181  16.516  0.00  0.00    +0.000 A 
ATOM     10  C   UNL     1       5.915   5.050  16.461  0.00  0.00    +0.000 A 
BRANCH   8  11
ATOM     11  N   UNL     1       2.545   3.630  17.350  0.00  0.00    +0.000 N 
ATOM     12  O   UNL     1       2.769   2.427  17.541  0.00  0.00    +0.000 OA
ATOM     13  O   UNL     1       1.414   4.122  17.222  0.00  0.00    +0.000 OA
ENDBRANCH   8  11
ENDBRANCH   2   5
BRANCH   3  14
ATOM     14  N   UNL     1       8.061   9.211  17.775  0.00  0.00    +0.000 NA
ATOM     15  C   UNL     1       8.457   9.663  18.924  0.00  0.00    +0.000 C 
BRANCH  15  16
ATOM     16  C   UNL     1       9.604  10.592  19.017  0.00  0.00    +0.000 A 
ATOM     17  C   UNL     1      10.250  11.001  17.846  0.00  0.00    +0.000 A 
ATOM     18  C   UNL     1      11.339  11.859  17.932  0.00  0.00    +0.000 A 
ATOM     19  C   UNL     1      11.800  12.308  19.165  0.00  0.00    +0.000 A 
ATOM     20  C   UNL     1      11.161  11.900  20.337  0.00  0.00    +0.000 A 
ATOM     21  C   UNL     1      10.060  11.042  20.262  0.00  0.00    +0.000 A 
BRANCH  18  22
ATOM     22  O   UNL     1      11.990  12.289  16.814  0.00  0.00    +0.000 OA
ATOM     23  H   UNL     1      12.948  12.253  16.981  0.00  0.00    +0.000 HD
ENDBRANCH  18  22
BRANCH  21  24
ATOM     24  O   UNL     1       9.434  10.645  21.411  0.00  0.00    +0.000 OA
ATOM     25  H   UNL     1       9.987   9.979  21.855  0.00  0.00    +0.000 HD
ENDBRANCH  21  24
ENDBRANCH  15  16
ENDBRANCH   3  14
TORSDOF 6
ENDMDL
MODEL 6
REMARK VINA RESULT:      -7.2      6.420      8.391
REMARK  Name = 
REMARK  6 active torsions:
REMARK  status: ('A' for Active; 'I' for Inactive)
REMARK    1  A    between atoms: C_2  and  C_14
REMARK    2  A    between atoms: N_3  and  N_4
REMARK    3  A    between atoms: C_5  and  C_6
REMARK    4  A    between atoms: C_8  and  O_9
REMARK    5  A    between atoms: C_12  and  O_13
REMARK    6  A    between atoms: C_17  and  N_18
REMARK                            x       y       z     vdW  Elec       q    Type
REMARK                         _______ _______ _______ _____ _____    ______ ____
ROOT
ATOM      1  O   UNL     1       2.244   7.948  18.755  0.00  0.00    +0.000 OA
ATOM      2  C   UNL     1       2.239   7.280  19.784  0.00  0.00    +0.000 C 
ATOM      3  N   UNL     1       1.795   7.712  21.027  0.00  0.00    +0.000 N 
ATOM      4  H   UNL     1       1.781   7.103  21.834  0.00  0.00    +0.000 HD
ENDROOT
BRANCH   2   5
ATOM      5  C   UNL     1       2.722   5.867  19.727  0.00  0.00    +0.000 A 
ATOM      6  C   UNL     1       1.978   4.805  20.262  0.00  0.00    +0.000 A 
ATOM      7  C   UNL     1       2.473   3.499  20.206  0.00  0.00    +0.000 A 
ATOM      8  C   UNL     1       3.720   3.252  19.615  0.00  0.00    +0.000 A 
ATOM      9  C   UNL     1       4.472   4.303  19.077  0.00  0.00    +0.000 A 
ATOM     10  C   UNL     1       3.972   5.608  19.140  0.00  0.00    +0.000 A 
BRANCH   8  11
ATOM     11  N   UNL     1       4.237   1.878  19.564  0.00  0.00    +0.000 N 
ATOM     12  O   UNL     1       3.805   1.134  18.673  0.00  0.00    +0.000 OA
ATOM     13  O   UNL     1       5.079   1.546  20.411  0.00  0.00    +0.000 OA
ENDBRANCH   8  11
ENDBRANCH   2   5
BRANCH   3  14
ATOM     14  N   UNL     1       1.326   8.983  21.164  0.00  0.00    +0.000 NA
ATOM     15  C   UNL     1       0.044   9.136  21.037  0.00  0.00    +0.000 C 
BRANCH  15  16
ATOM     16  C   UNL     1      -0.579  10.468  21.196  0.00  0.00    +0.000 A 
ATOM     17  C   UNL     1      -1.032  11.150  20.062  0.00  0.00    +0.000 A 
ATOM     18  C   UNL     1      -1.601  12.409  20.206  0.00  0.00    +0.000 A 
ATOM     19  C   UNL     1      -1.715  13.003  21.458  0.00  0.00    +0.000 A 
ATOM     20  C   UNL     1      -1.262  12.326  22.593  0.00  0.00    +0.000 A 
ATOM     21  C   UNL     1      -0.695  11.056  22.460  0.00  0.00    +0.000 A 
BRANCH  18  22
ATOM     22  O   UNL     1      -2.063  13.104  19.128  0.00  0.00    +0.000 OA
ATOM     23  H   UNL     1      -2.681  13.786  19.441  0.00  0.00    +0.000 HD
ENDBRANCH  18  22
BRANCH  21  24
ATOM     24  O   UNL     1      -0.252  10.395  23.572  0.00  0.00    +0.000 OA
ATOM     25  H   UNL     1       0.482   9.809  23.317  0.00  0.00    +0.000 HD
ENDBRANCH  21  24
ENDBRANCH  15  16
ENDBRANCH   3  14
TORSDOF 6
ENDMDL
MODEL 7
REMARK VINA RESULT:      -7.2      5.986      8.336
REMARK  Name = 
REMARK  6 active torsions:
REMARK  status: ('A' for Active; 'I' for Inactive)
REMARK    1  A    between atoms: C_2  and  C_14
REMARK    2  A    between atoms: N_3  and  N_4
REMARK    3  A    between atoms: C_5  and  C_6
REMARK    4  A    between atoms: C_8  and  O_9
REMARK    5  A    between atoms: C_12  and  O_13
REMARK    6  A    between atoms: C_17  and  N_18
REMARK                            x       y       z     vdW  Elec       q    Type
REMARK                         _______ _______ _______ _____ _____    ______ ____
ROOT
ATOM      1  O   UNL     1       1.986   6.237  19.979  0.00  0.00    +0.000 OA
ATOM      2  C   UNL     1       2.641   6.893  19.177  0.00  0.00    +0.000 C 
ATOM      3  N   UNL     1       2.372   8.200  18.791  0.00  0.00    +0.000 N 
ATOM      4  H   UNL     1       2.970   8.705  18.151  0.00  0.00    +0.000 HD
ENDROOT
BRANCH   2   5
ATOM      5  C   UNL     1       3.853   6.274  18.559  0.00  0.00    +0.000 A 
ATOM      6  C   UNL     1       4.619   5.311  19.230  0.00  0.00    +0.000 A 
ATOM      7  C   UNL     1       5.758   4.770  18.626  0.00  0.00    +0.000 A 
ATOM      8  C   UNL     1       6.135   5.196  17.344  0.00  0.00    +0.000 A 
ATOM      9  C   UNL     1       5.377   6.157  16.664  0.00  0.00    +0.000 A 
ATOM     10  C   UNL     1       4.241   6.696  17.277  0.00  0.00    +0.000 A 
BRANCH   8  11
ATOM     11  N   UNL     1       7.335   4.628  16.717  0.00  0.00    +0.000 N 
ATOM     12  O   UNL     1       8.202   4.149  17.461  0.00  0.00    +0.000 OA
ATOM     13  O   UNL     1       7.407   4.654  15.479  0.00  0.00    +0.000 OA
ENDBRANCH   8  11
ENDBRANCH   2   5
BRANCH   3  14
ATOM     14  N   UNL     1       1.294   8.844  19.317  0.00  0.00    +0.000 NA
ATOM     15  C   UNL     1       1.016  10.004  18.808  0.00  0.00    +0.000 C 
BRANCH  15  16
ATOM     16  C   UNL     1      -0.151  10.779  19.282  0.00  0.00    +0.000 A 
ATOM     17  C   UNL     1      -1.217  11.012  18.409  0.00  0.00    +0.000 A 
ATOM     18  C   UNL     1      -2.307  11.756  18.846  0.00  0.00    +0.000 A 
ATOM     19  C   UNL     1      -2.344  12.279  20.134  0.00  0.00    +0.000 A 
ATOM     20  C   UNL     1      -1.280  12.051  21.009  0.00  0.00    +0.000 A 
ATOM     21  C   UNL     1      -0.183  11.298  20.582  0.00  0.00    +0.000 A 
BRANCH  18  22
ATOM     22  O   UNL     1      -3.371  11.999  18.029  0.00  0.00    +0.000 OA
ATOM     23  H   UNL     1      -4.082  12.399  18.558  0.00  0.00    +0.000 HD
ENDBRANCH  18  22
BRANCH  21  24
ATOM     24  O   UNL     1       0.858  11.075  21.440  0.00  0.00    +0.000 OA
ATOM     25  H   UNL     1       0.802  11.712  22.174  0.00  0.00    +0.000 HD
ENDBRANCH  21  24
ENDBRANCH  15  16
ENDBRANCH   3  14
TORSDOF 6
ENDMDL
MODEL 8
REMARK VINA RESULT:      -7.2      5.740      8.023
REMARK  Name = 
REMARK  6 active torsions:
REMARK  status: ('A' for Active; 'I' for Inactive)
REMARK    1  A    between atoms: C_2  and  C_14
REMARK    2  A    between atoms: N_3  and  N_4
REMARK    3  A    between atoms: C_5  and  C_6
REMARK    4  A    between atoms: C_8  and  O_9
REMARK    5  A    between atoms: C_12  and  O_13
REMARK    6  A    between atoms: C_17  and  N_18
REMARK                            x       y       z     vdW  Elec       q    Type
REMARK                         _______ _______ _______ _____ _____    ______ ____
ROOT
ATOM      1  O   UNL     1       2.636   5.296  19.413  0.00  0.00    +0.000 OA
ATOM      2  C   UNL     1       3.026   6.141  18.613  0.00  0.00    +0.000 C 
ATOM      3  N   UNL     1       2.729   7.497  18.662  0.00  0.00    +0.000 N 
ATOM      4  H   UNL     1       3.109   8.154  17.994  0.00  0.00    +0.000 HD
ENDROOT
BRANCH   2   5
ATOM      5  C   UNL     1       3.917   5.716  17.493  0.00  0.00    +0.000 A 
ATOM      6  C   UNL     1       4.126   4.364  17.180  0.00  0.00    +0.000 A 
ATOM      7  C   UNL     1       4.984   4.007  16.136  0.00  0.00    +0.000 A 
ATOM      8  C   UNL     1       5.640   5.004  15.401  0.00  0.00    +0.000 A 
ATOM      9  C   UNL     1       5.439   6.356  15.703  0.00  0.00    +0.000 A 
ATOM     10  C   UNL     1       4.582   6.707  16.751  0.00  0.00    +0.000 A 
BRANCH   8  11
ATOM     11  N   UNL     1       6.543   4.621  14.308  0.00  0.00    +0.000 N 
ATOM     12  O   UNL     1       7.593   5.264  14.178  0.00  0.00    +0.000 OA
ATOM     13  O   UNL     1       6.204   3.674  13.583  0.00  0.00    +0.000 OA
ENDBRANCH   8  11
ENDBRANCH   2   5
BRANCH   3  14
ATOM     14  N   UNL     1       1.933   7.972  19.659  0.00  0.00    +0.000 NA
ATOM     15  C   UNL     1       1.557   9.209  19.551  0.00  0.00    +0.000 C 
BRANCH  15  16
ATOM     16  C   UNL     1       0.668   9.821  20.562  0.00  0.00    +0.000 A 
ATOM     17  C   UNL     1       0.697   9.345  21.876  0.00  0.00    +0.000 A 
ATOM     18  C   UNL     1      -0.150   9.905  22.825  0.00  0.00    +0.000 A 
ATOM     19  C   UNL     1      -1.032  10.924  22.481  0.00  0.00    +0.000 A 
ATOM     20  C   UNL     1      -1.067  11.401  21.169  0.00  0.00    +0.000 A 
ATOM     21  C   UNL     1      -0.213  10.849  20.210  0.00  0.00    +0.000 A 
BRANCH  18  22
ATOM     22  O   UNL     1      -0.147   9.476  24.118  0.00  0.00    +0.000 OA
ATOM     23  H   UNL     1      -0.476  10.195  24.684  0.00  0.00    +0.000 HD
ENDBRANCH  18  22
BRANCH  21  24
ATOM     24  O   UNL     1      -0.248  11.318  18.925  0.00  0.00    +0.000 OA
ATOM     25  H   UNL     1       0.478  11.956  18.805  0.00  0.00    +0.000 HD
ENDBRANCH  21  24
ENDBRANCH  15  16
ENDBRANCH   3  14
TORSDOF 6
ENDMDL
MODEL 9
REMARK VINA RESULT:      -7.2      6.879     10.153
REMARK  Name = 
REMARK  6 active torsions:
REMARK  status: ('A' for Active; 'I' for Inactive)
REMARK    1  A    between atoms: C_2  and  C_14
REMARK    2  A    between atoms: N_3  and  N_4
REMARK    3  A    between atoms: C_5  and  C_6
REMARK    4  A    between atoms: C_8  and  O_9
REMARK    5  A    between atoms: C_12  and  O_13
REMARK    6  A    between atoms: C_17  and  N_18
REMARK                            x       y       z     vdW  Elec       q    Type
REMARK                         _______ _______ _______ _____ _____    ______ ____
ROOT
ATOM      1  O   UNL     1       1.549   9.174  19.294  0.00  0.00    +0.000 OA
ATOM      2  C   UNL     1       1.159   8.875  20.418  0.00  0.00    +0.000 C 
ATOM      3  N   UNL     1       1.365   7.653  21.046  0.00  0.00    +0.000 N 
ATOM      4  H   UNL     1       1.052   7.476  21.991  0.00  0.00    +0.000 HD
ENDROOT
BRANCH   2   5
ATOM      5  C   UNL     1       0.418   9.895  21.219  0.00  0.00    +0.000 A 
ATOM      6  C   UNL     1      -0.269   9.561  22.395  0.00  0.00    +0.000 A 
ATOM      7  C   UNL     1      -0.968  10.541  23.106  0.00  0.00    +0.000 A 
ATOM      8  C   UNL     1      -0.982  11.863  22.639  0.00  0.00    +0.000 A 
ATOM      9  C   UNL     1      -0.299  12.209  21.467  0.00  0.00    +0.000 A 
ATOM     10  C   UNL     1       0.395  11.222  20.758  0.00  0.00    +0.000 A 
BRANCH   8  11
ATOM     11  N   UNL     1      -1.721  12.887  23.388  0.00  0.00    +0.000 N 
ATOM     12  O   UNL     1      -1.106  13.907  23.727  0.00  0.00    +0.000 OA
ATOM     13  O   UNL     1      -2.918  12.674  23.631  0.00  0.00    +0.000 OA
ENDBRANCH   8  11
ENDBRANCH   2   5
BRANCH   3  14
ATOM     14  N   UNL     1       2.044   6.671  20.392  0.00  0.00    +0.000 NA
ATOM     15  C   UNL     1       1.736   5.453  20.711  0.00  0.00    +0.000 C 
BRANCH  15  16
ATOM     16  C   UNL     1       2.390   4.306  20.043  0.00  0.00    +0.000 A 
ATOM     17  C   UNL     1       3.722   4.422  19.635  0.00  0.00    +0.000 A 
ATOM     18  C   UNL     1       4.334   3.354  18.990  0.00  0.00    +0.000 A 
ATOM     19  C   UNL     1       3.636   2.178  18.738  0.00  0.00    +0.000 A 
ATOM     20  C   UNL     1       2.304   2.058  19.141  0.00  0.00    +0.000 A 
ATOM     21  C   UNL     1       1.682   3.124  19.797  0.00  0.00    +0.000 A 
BRANCH  18  22
ATOM     22  O   UNL     1       5.633   3.423  18.583  0.00  0.00    +0.000 OA
ATOM     23  H   UNL     1       6.193   3.584  19.363  0.00  0.00    +0.000 HD
ENDBRANCH  18  22
BRANCH  21  24
ATOM     24  O   UNL     1       0.379   3.005  20.193  0.00  0.00    +0.000 OA
ATOM     25  H   UNL     1       0.202   2.074  20.414  0.00  0.00    +0.000 HD
ENDBRANCH  21  24
ENDBRANCH  15  16
ENDBRANCH   3  14
TORSDOF 6
ENDMDL
