MODEL 1
REMARK VINA RESULT:      -8.7      0.000      0.000
REMARK  Name = 
REMARK  4 active torsions:
REMARK  status: ('A' for Active; 'I' for Inactive)
REMARK    1  A    between atoms: C_2  and  C_3
REMARK    2  A    between atoms: C_2  and  C_18
REMARK    3  A    between atoms: C_4  and  N_5
REMARK    4  A    between atoms: C_23  and  O_24
REMARK                            x       y       z     vdW  Elec       q    Type
REMARK                         _______ _______ _______ _____ _____    ______ ____
ROOT
ATOM      1  N   UNL     1       7.292   6.856  17.494  0.00  0.00    +0.000 N 
ATOM      2  C   UNL     1       6.520   6.077  16.492  0.00  0.00    +0.000 C 
ATOM      3  C   UNL     1       6.429   4.674  17.175  0.00  0.00    +0.000 C 
ATOM      4  C   UNL     1       7.804   4.611  17.856  0.00  0.00    +0.000 C 
ATOM      5  C   UNL     1       7.575   5.929  18.613  0.00  0.00    +0.000 C 
ATOM      6  C   UNL     1       6.232   5.620  19.347  0.00  0.00    +0.000 C 
ATOM      7  N   UNL     1       5.550   4.774  18.356  0.00  0.00    +0.000 N 
ATOM      8  C   UNL     1       4.260   4.351  18.366  0.00  0.00    +0.000 A 
ATOM      9  C   UNL     1       3.382   4.687  19.395  0.00  0.00    +0.000 A 
ATOM     10  C   UNL     1       2.081   4.183  19.405  0.00  0.00    +0.000 A 
ATOM     11  C   UNL     1       1.679   3.334  18.390  0.00  0.00    +0.000 A 
ATOM     12  C   UNL     1       2.595   3.047  17.397  0.00  0.00    +0.000 A 
ATOM     13  N   UNL     1       3.853   3.543  17.361  0.00  0.00    +0.000 NA
ENDROOT
BRANCH   1  15
ATOM     14  C   UNL     1       8.471   8.854  18.220  0.00  0.00    +0.000 C 
ATOM     15  C   UNL     1       7.574   8.203  17.476  0.00  0.00    +0.000 C 
BRANCH  14  17
ATOM     16  O   UNL     1       7.753  11.027  17.581  0.00  0.00    +0.000 OA
ATOM     17  C   UNL     1       8.594  10.334  18.145  0.00  0.00    +0.000 C 
BRANCH  17  18
ATOM     18  C   UNL     1       9.811  10.959  18.733  0.00  0.00    +0.000 A 
ATOM     19  C   UNL     1      10.851  11.297  17.853  0.00  0.00    +0.000 A 
ATOM     20  C   UNL     1      12.017  11.900  18.331  0.00  0.00    +0.000 A 
ATOM     21  C   UNL     1      12.150  12.181  19.689  0.00  0.00    +0.000 A 
ATOM     22  C   UNL     1      11.118  11.867  20.572  0.00  0.00    +0.000 A 
ATOM     23  C   UNL     1       9.950  11.265  20.096  0.00  0.00    +0.000 A 
BRANCH  23  24
ATOM     24  O   UNL     1       8.939  11.011  20.980  0.00  0.00    +0.000 OA
ATOM     25  H   UNL     1       8.643  11.843  21.386  0.00  0.00    +0.000 HD
ENDBRANCH  23  24
ENDBRANCH  17  18
ENDBRANCH  14  17
ENDBRANCH   1  15
TORSDOF 4
ENDMDL
MODEL 2
REMARK VINA RESULT:      -8.5      0.852      1.395
REMARK  Name = 
REMARK  4 active torsions:
REMARK  status: ('A' for Active; 'I' for Inactive)
REMARK    1  A    between atoms: C_2  and  C_3
REMARK    2  A    between atoms: C_2  and  C_18
REMARK    3  A    between atoms: C_4  and  N_5
REMARK    4  A    between atoms: C_23  and  O_24
REMARK                            x       y       z     vdW  Elec       q    Type
REMARK                         _______ _______ _______ _____ _____    ______ ____
ROOT
ATOM      1  N   UNL     1       7.278   6.789  17.464  0.00  0.00    +0.000 N 
ATOM      2  C   UNL     1       6.515   5.989  16.471  0.00  0.00    +0.000 C 
ATOM      3  C   UNL     1       6.429   4.597  17.177  0.00  0.00    +0.000 C 
ATOM      4  C   UNL     1       7.801   4.554  17.866  0.00  0.00    +0.000 C 
ATOM      5  C   UNL     1       7.560   5.883  18.600  0.00  0.00    +0.000 C 
ATOM      6  C   UNL     1       6.215   5.579  19.332  0.00  0.00    +0.000 C 
ATOM      7  N   UNL     1       5.543   4.712  18.352  0.00  0.00    +0.000 N 
ATOM      8  C   UNL     1       4.256   4.281  18.363  0.00  0.00    +0.000 A 
ATOM      9  C   UNL     1       3.371   4.631  19.382  0.00  0.00    +0.000 A 
ATOM     10  C   UNL     1       2.072   4.119  19.394  0.00  0.00    +0.000 A 
ATOM     11  C   UNL     1       1.680   3.250  18.391  0.00  0.00    +0.000 A 
ATOM     12  C   UNL     1       2.603   2.952  17.408  0.00  0.00    +0.000 A 
ATOM     13  N   UNL     1       3.858   3.454  17.371  0.00  0.00    +0.000 NA
ENDROOT
BRANCH   1  15
ATOM     14  C   UNL     1       8.412   8.813  18.189  0.00  0.00    +0.000 C 
ATOM     15  C   UNL     1       7.552   8.137  17.423  0.00  0.00    +0.000 C 
BRANCH  14  17
ATOM     16  O   UNL     1       7.840  10.942  17.303  0.00  0.00    +0.000 OA
ATOM     17  C   UNL     1       8.529  10.291  18.082  0.00  0.00    +0.000 C 
BRANCH  17  18
ATOM     18  C   UNL     1       9.561  10.967  18.917  0.00  0.00    +0.000 A 
ATOM     19  C   UNL     1       9.300  11.089  20.291  0.00  0.00    +0.000 A 
ATOM     20  C   UNL     1      10.229  11.698  21.138  0.00  0.00    +0.000 A 
ATOM     21  C   UNL     1      11.431  12.181  20.623  0.00  0.00    +0.000 A 
ATOM     22  C   UNL     1      11.711  12.050  19.263  0.00  0.00    +0.000 A 
ATOM     23  C   UNL     1      10.784  11.439  18.415  0.00  0.00    +0.000 A 
BRANCH  23  24
ATOM     24  O   UNL     1      11.108  11.286  17.095  0.00  0.00    +0.000 OA
ATOM     25  H   UNL     1      11.502  12.107  16.758  0.00  0.00    +0.000 HD
ENDBRANCH  23  24
ENDBRANCH  17  18
ENDBRANCH  14  17
ENDBRANCH   1  15
TORSDOF 4
ENDMDL
MODEL 3
REMARK VINA RESULT:      -7.9      4.691      7.003
REMARK  Name = 
REMARK  4 active torsions:
REMARK  status: ('A' for Active; 'I' for Inactive)
REMARK    1  A    between atoms: C_2  and  C_3
REMARK    2  A    between atoms: C_2  and  C_18
REMARK    3  A    between atoms: C_4  and  N_5
REMARK    4  A    between atoms: C_23  and  O_24
REMARK                            x       y       z     vdW  Elec       q    Type
REMARK                         _______ _______ _______ _____ _____    ______ ____
ROOT
ATOM      1  N   UNL     1       5.438   5.995  18.067  0.00  0.00    +0.000 N 
ATOM      2  C   UNL     1       6.269   6.780  17.117  0.00  0.00    +0.000 C 
ATOM      3  C   UNL     1       7.367   5.743  16.716  0.00  0.00    +0.000 C 
ATOM      4  C   UNL     1       7.549   5.007  18.052  0.00  0.00    +0.000 C 
ATOM      5  C   UNL     1       6.057   4.653  18.148  0.00  0.00    +0.000 C 
ATOM      6  C   UNL     1       5.835   3.927  16.784  0.00  0.00    +0.000 C 
ATOM      7  N   UNL     1       6.746   4.678  15.907  0.00  0.00    +0.000 N 
ATOM      8  C   UNL     1       6.845   4.612  14.554  0.00  0.00    +0.000 A 
ATOM      9  C   UNL     1       6.045   3.758  13.797  0.00  0.00    +0.000 A 
ATOM     10  C   UNL     1       6.218   3.671  12.415  0.00  0.00    +0.000 A 
ATOM     11  C   UNL     1       7.202   4.432  11.809  0.00  0.00    +0.000 A 
ATOM     12  C   UNL     1       7.953   5.263  12.615  0.00  0.00    +0.000 A 
ATOM     13  N   UNL     1       7.786   5.374  13.953  0.00  0.00    +0.000 NA
ENDROOT
BRANCH   1  15
ATOM     14  C   UNL     1       3.539   5.687  19.552  0.00  0.00    +0.000 C 
ATOM     15  C   UNL     1       4.251   6.370  18.652  0.00  0.00    +0.000 C 
BRANCH  14  17
ATOM     16  O   UNL     1       1.445   5.482  20.657  0.00  0.00    +0.000 OA
ATOM     17  C   UNL     1       2.222   6.190  20.024  0.00  0.00    +0.000 C 
BRANCH  17  18
ATOM     18  C   UNL     1       1.838   7.581  19.653  0.00  0.00    +0.000 A 
ATOM     19  C   UNL     1       1.846   7.910  18.289  0.00  0.00    +0.000 A 
ATOM     20  C   UNL     1       1.483   9.191  17.866  0.00  0.00    +0.000 A 
ATOM     21  C   UNL     1       1.099  10.151  18.800  0.00  0.00    +0.000 A 
ATOM     22  C   UNL     1       1.069   9.833  20.157  0.00  0.00    +0.000 A 
ATOM     23  C   UNL     1       1.429   8.551  20.582  0.00  0.00    +0.000 A 
BRANCH  23  24
ATOM     24  O   UNL     1       1.346   8.257  21.915  0.00  0.00    +0.000 OA
ATOM     25  H   UNL     1       0.932   8.997  22.388  0.00  0.00    +0.000 HD
ENDBRANCH  23  24
ENDBRANCH  17  18
ENDBRANCH  14  17
ENDBRANCH   1  15
TORSDOF 4
ENDMDL
MODEL 4
REMARK VINA RESULT:      -7.5      1.655      2.142
REMARK  Name = 
REMARK  4 active torsions:
REMARK  status: ('A' for Active; 'I' for Inactive)
REMARK    1  A    between atoms: C_2  and  C_3
REMARK    2  A    between atoms: C_2  and  C_18
REMARK    3  A    between atoms: C_4  and  N_5
REMARK    4  A    between atoms: C_23  and  O_24
REMARK                            x       y       z     vdW  Elec       q    Type
REMARK                         _______ _______ _______ _____ _____    ______ ____
ROOT
ATOM      1  N   UNL     1       7.466   7.255  17.894  0.00  0.00    +0.000 N 
ATOM      2  C   UNL     1       6.186   7.418  17.158  0.00  0.00    +0.000 C 
ATOM      3  C   UNL     1       5.802   5.934  16.847  0.00  0.00    +0.000 C 
ATOM      4  C   UNL     1       7.195   5.339  16.595  0.00  0.00    +0.000 C 
ATOM      5  C   UNL     1       7.724   5.798  17.962  0.00  0.00    +0.000 C 
ATOM      6  C   UNL     1       6.670   5.158  18.920  0.00  0.00    +0.000 C 
ATOM      7  N   UNL     1       5.446   5.258  18.109  0.00  0.00    +0.000 N 
ATOM      8  C   UNL     1       4.167   5.023  18.496  0.00  0.00    +0.000 A 
ATOM      9  C   UNL     1       3.852   4.622  19.794  0.00  0.00    +0.000 A 
ATOM     10  C   UNL     1       2.532   4.329  20.140  0.00  0.00    +0.000 A 
ATOM     11  C   UNL     1       1.544   4.427  19.177  0.00  0.00    +0.000 A 
ATOM     12  C   UNL     1       1.922   4.836  17.913  0.00  0.00    +0.000 A 
ATOM     13  N   UNL     1       3.193   5.143  17.566  0.00  0.00    +0.000 NA
ENDROOT
BRANCH   1  15
ATOM     14  C   UNL     1       8.445   9.472  18.083  0.00  0.00    +0.000 C 
ATOM     15  C   UNL     1       8.205   8.232  18.519  0.00  0.00    +0.000 C 
BRANCH  14  17
ATOM     16  O   UNL     1       9.774  10.099  19.950  0.00  0.00    +0.000 OA
ATOM     17  C   UNL     1       9.343  10.385  18.837  0.00  0.00    +0.000 C 
BRANCH  17  18
ATOM     18  C   UNL     1       9.667  11.703  18.222  0.00  0.00    +0.000 A 
ATOM     19  C   UNL     1       8.660  12.679  18.221  0.00  0.00    +0.000 A 
ATOM     20  C   UNL     1       8.897  13.943  17.676  0.00  0.00    +0.000 A 
ATOM     21  C   UNL     1      10.145  14.246  17.135  0.00  0.00    +0.000 A 
ATOM     22  C   UNL     1      11.161  13.292  17.145  0.00  0.00    +0.000 A 
ATOM     23  C   UNL     1      10.927  12.028  17.693  0.00  0.00    +0.000 A 
BRANCH  23  24
ATOM     24  O   UNL     1      11.957  11.129  17.729  0.00  0.00    +0.000 OA
ATOM     25  H   UNL     1      11.930  10.569  16.936  0.00  0.00    +0.000 HD
ENDBRANCH  23  24
ENDBRANCH  17  18
ENDBRANCH  14  17
ENDBRANCH   1  15
TORSDOF 4
ENDMDL
MODEL 5
REMARK VINA RESULT:      -7.5      6.789      9.835
REMARK  Name = 
REMARK  4 active torsions:
REMARK  status: ('A' for Active; 'I' for Inactive)
REMARK    1  A    between atoms: C_2  and  C_3
REMARK    2  A    between atoms: C_2  and  C_18
REMARK    3  A    between atoms: C_4  and  N_5
REMARK    4  A    between atoms: C_23  and  O_24
REMARK                            x       y       z     vdW  Elec       q    Type
REMARK                         _______ _______ _______ _____ _____    ______ ____
ROOT
ATOM      1  N   UNL     1       0.834   8.952  20.431  0.00  0.00    +0.000 N 
ATOM      2  C   UNL     1      -0.404   9.620  20.909  0.00  0.00    +0.000 C 
ATOM      3  C   UNL     1      -0.420  10.925  20.049  0.00  0.00    +0.000 C 
ATOM      4  C   UNL     1       1.085  11.225  19.981  0.00  0.00    +0.000 C 
ATOM      5  C   UNL     1       1.413   9.841  19.398  0.00  0.00    +0.000 C 
ATOM      6  C   UNL     1       0.479   9.815  18.148  0.00  0.00    +0.000 C 
ATOM      7  N   UNL     1      -0.685  10.566  18.642  0.00  0.00    +0.000 N 
ATOM      8  C   UNL     1      -1.898  10.713  18.049  0.00  0.00    +0.000 A 
ATOM      9  C   UNL     1      -2.189  10.134  16.815  0.00  0.00    +0.000 A 
ATOM     10  C   UNL     1      -3.424  10.356  16.206  0.00  0.00    +0.000 A 
ATOM     11  C   UNL     1      -4.350  11.170  16.835  0.00  0.00    +0.000 A 
ATOM     12  C   UNL     1      -4.002  11.705  18.060  0.00  0.00    +0.000 A 
ATOM     13  N   UNL     1      -2.816  11.484  18.673  0.00  0.00    +0.000 NA
ENDROOT
BRANCH   1  15
ATOM     14  C   UNL     1       1.811   6.782  19.937  0.00  0.00    +0.000 C 
ATOM     15  C   UNL     1       1.292   7.697  20.760  0.00  0.00    +0.000 C 
BRANCH  14  17
ATOM     16  O   UNL     1       2.482   5.231  21.608  0.00  0.00    +0.000 OA
ATOM     17  C   UNL     1       2.179   5.430  20.436  0.00  0.00    +0.000 C 
BRANCH  17  18
ATOM     18  C   UNL     1       2.226   4.316  19.448  0.00  0.00    +0.000 A 
ATOM     19  C   UNL     1       3.111   4.450  18.367  0.00  0.00    +0.000 A 
ATOM     20  C   UNL     1       3.221   3.438  17.410  0.00  0.00    +0.000 A 
ATOM     21  C   UNL     1       2.454   2.280  17.529  0.00  0.00    +0.000 A 
ATOM     22  C   UNL     1       1.583   2.126  18.607  0.00  0.00    +0.000 A 
ATOM     23  C   UNL     1       1.475   3.136  19.567  0.00  0.00    +0.000 A 
BRANCH  23  24
ATOM     24  O   UNL     1       0.646   2.935  20.635  0.00  0.00    +0.000 OA
ATOM     25  H   UNL     1       0.443   1.989  20.719  0.00  0.00    +0.000 HD
ENDBRANCH  23  24
ENDBRANCH  17  18
ENDBRANCH  14  17
ENDBRANCH   1  15
TORSDOF 4
ENDMDL
MODEL 6
REMARK VINA RESULT:      -7.5      4.787      7.227
REMARK  Name = 
REMARK  4 active torsions:
REMARK  status: ('A' for Active; 'I' for Inactive)
REMARK    1  A    between atoms: C_2  and  C_3
REMARK    2  A    between atoms: C_2  and  C_18
REMARK    3  A    between atoms: C_4  and  N_5
REMARK    4  A    between atoms: C_23  and  O_24
REMARK                            x       y       z     vdW  Elec       q    Type
REMARK                         _______ _______ _______ _____ _____    ______ ____
ROOT
ATOM      1  N   UNL     1       5.026   5.669  17.968  0.00  0.00    +0.000 N 
ATOM      2  C   UNL     1       5.842   6.561  17.106  0.00  0.00    +0.000 C 
ATOM      3  C   UNL     1       7.050   5.639  16.739  0.00  0.00    +0.000 C 
ATOM      4  C   UNL     1       7.211   4.863  18.055  0.00  0.00    +0.000 C 
ATOM      5  C   UNL     1       5.752   4.381  18.039  0.00  0.00    +0.000 C 
ATOM      6  C   UNL     1       5.680   3.699  16.636  0.00  0.00    +0.000 C 
ATOM      7  N   UNL     1       6.574   4.561  15.850  0.00  0.00    +0.000 N 
ATOM      8  C   UNL     1       6.763   4.564  14.505  0.00  0.00    +0.000 A 
ATOM      9  C   UNL     1       6.089   3.678  13.665  0.00  0.00    +0.000 A 
ATOM     10  C   UNL     1       6.354   3.667  12.295  0.00  0.00    +0.000 A 
ATOM     11  C   UNL     1       7.304   4.533  11.784  0.00  0.00    +0.000 A 
ATOM     12  C   UNL     1       7.929   5.390  12.669  0.00  0.00    +0.000 A 
ATOM     13  N   UNL     1       7.670   5.427  13.996  0.00  0.00    +0.000 NA
ENDROOT
BRANCH   1  15
ATOM     14  C   UNL     1       3.475   6.652  19.561  0.00  0.00    +0.000 C 
ATOM     15  C   UNL     1       3.776   5.916  18.487  0.00  0.00    +0.000 C 
BRANCH  14  17
ATOM     16  O   UNL     1       1.384   5.754  20.245  0.00  0.00    +0.000 OA
ATOM     17  C   UNL     1       2.075   6.750  20.050  0.00  0.00    +0.000 C 
BRANCH  17  18
ATOM     18  C   UNL     1       1.502   8.111  20.245  0.00  0.00    +0.000 A 
ATOM     19  C   UNL     1       1.154   8.483  21.552  0.00  0.00    +0.000 A 
ATOM     20  C   UNL     1       0.625   9.749  21.813  0.00  0.00    +0.000 A 
ATOM     21  C   UNL     1       0.451  10.660  20.773  0.00  0.00    +0.000 A 
ATOM     22  C   UNL     1       0.810  10.311  19.471  0.00  0.00    +0.000 A 
ATOM     23  C   UNL     1       1.340   9.045  19.209  0.00  0.00    +0.000 A 
BRANCH  23  24
ATOM     24  O   UNL     1       1.724   8.750  17.930  0.00  0.00    +0.000 OA
ATOM     25  H   UNL     1       1.004   8.288  17.471  0.00  0.00    +0.000 HD
ENDBRANCH  23  24
ENDBRANCH  17  18
ENDBRANCH  14  17
ENDBRANCH   1  15
TORSDOF 4
ENDMDL
MODEL 7
REMARK VINA RESULT:      -7.5      3.596      8.683
REMARK  Name = 
REMARK  4 active torsions:
REMARK  status: ('A' for Active; 'I' for Inactive)
REMARK    1  A    between atoms: C_2  and  C_3
REMARK    2  A    between atoms: C_2  and  C_18
REMARK    3  A    between atoms: C_4  and  N_5
REMARK    4  A    between atoms: C_23  and  O_24
REMARK                            x       y       z     vdW  Elec       q    Type
REMARK                         _______ _______ _______ _____ _____    ______ ____
ROOT
ATOM      1  N   UNL     1       9.029  10.119  18.536  0.00  0.00    +0.000 N 
ATOM      2  C   UNL     1       9.120  10.392  19.994  0.00  0.00    +0.000 C 
ATOM      3  C   UNL     1      10.004  11.680  20.026  0.00  0.00    +0.000 C 
ATOM      4  C   UNL     1      10.958  11.386  18.859  0.00  0.00    +0.000 C 
ATOM      5  C   UNL     1       9.804  11.187  17.865  0.00  0.00    +0.000 C 
ATOM      6  C   UNL     1       9.031  12.533  18.032  0.00  0.00    +0.000 C 
ATOM      7  N   UNL     1       9.232  12.804  19.463  0.00  0.00    +0.000 N 
ATOM      8  C   UNL     1       8.633  13.755  20.225  0.00  0.00    +0.000 A 
ATOM      9  C   UNL     1       7.704  14.648  19.692  0.00  0.00    +0.000 A 
ATOM     10  C   UNL     1       7.154  15.653  20.490  0.00  0.00    +0.000 A 
ATOM     11  C   UNL     1       7.554  15.760  21.810  0.00  0.00    +0.000 A 
ATOM     12  C   UNL     1       8.471  14.839  22.277  0.00  0.00    +0.000 A 
ATOM     13  N   UNL     1       8.999  13.848  21.523  0.00  0.00    +0.000 NA
ENDROOT
BRANCH   1  15
ATOM     14  C   UNL     1       8.124   7.880  18.258  0.00  0.00    +0.000 C 
ATOM     15  C   UNL     1       8.268   9.161  17.908  0.00  0.00    +0.000 C 
BRANCH  14  17
ATOM     16  O   UNL     1       7.694   6.617  16.292  0.00  0.00    +0.000 OA
ATOM     17  C   UNL     1       7.332   6.944  17.418  0.00  0.00    +0.000 C 
BRANCH  17  18
ATOM     18  C   UNL     1       6.037   6.450  17.964  0.00  0.00    +0.000 A 
ATOM     19  C   UNL     1       4.867   6.824  17.287  0.00  0.00    +0.000 A 
ATOM     20  C   UNL     1       3.617   6.385  17.732  0.00  0.00    +0.000 A 
ATOM     21  C   UNL     1       3.527   5.560  18.852  0.00  0.00    +0.000 A 
ATOM     22  C   UNL     1       4.683   5.166  19.524  0.00  0.00    +0.000 A 
ATOM     23  C   UNL     1       5.933   5.602  19.078  0.00  0.00    +0.000 A 
BRANCH  23  24
ATOM     24  O   UNL     1       7.051   5.161  19.732  0.00  0.00    +0.000 OA
ATOM     25  H   UNL     1       7.469   4.449  19.220  0.00  0.00    +0.000 HD
ENDBRANCH  23  24
ENDBRANCH  17  18
ENDBRANCH  14  17
ENDBRANCH   1  15
TORSDOF 4
ENDMDL
MODEL 8
REMARK VINA RESULT:      -7.5      5.000      7.311
REMARK  Name = 
REMARK  4 active torsions:
REMARK  status: ('A' for Active; 'I' for Inactive)
REMARK    1  A    between atoms: C_2  and  C_3
REMARK    2  A    between atoms: C_2  and  C_18
REMARK    3  A    between atoms: C_4  and  N_5
REMARK    4  A    between atoms: C_23  and  O_24
REMARK                            x       y       z     vdW  Elec       q    Type
REMARK                         _______ _______ _______ _____ _____    ______ ____
ROOT
ATOM      1  N   UNL     1       4.078   6.725  17.670  0.00  0.00    +0.000 N 
ATOM      2  C   UNL     1       5.253   7.267  16.941  0.00  0.00    +0.000 C 
ATOM      3  C   UNL     1       6.233   6.049  16.959  0.00  0.00    +0.000 C 
ATOM      4  C   UNL     1       5.919   5.465  18.344  0.00  0.00    +0.000 C 
ATOM      5  C   UNL     1       4.420   5.331  18.033  0.00  0.00    +0.000 C 
ATOM      6  C   UNL     1       4.463   4.479  16.725  0.00  0.00    +0.000 C 
ATOM      7  N   UNL     1       5.689   4.986  16.091  0.00  0.00    +0.000 N 
ATOM      8  C   UNL     1       6.142   4.742  14.835  0.00  0.00    +0.000 A 
ATOM      9  C   UNL     1       5.449   3.917  13.950  0.00  0.00    +0.000 A 
ATOM     10  C   UNL     1       5.976   3.638  12.688  0.00  0.00    +0.000 A 
ATOM     11  C   UNL     1       7.199   4.178  12.333  0.00  0.00    +0.000 A 
ATOM     12  C   UNL     1       7.829   4.993  13.253  0.00  0.00    +0.000 A 
ATOM     13  N   UNL     1       7.323   5.289  14.472  0.00  0.00    +0.000 NA
ENDROOT
BRANCH   1  15
ATOM     14  C   UNL     1       2.617   8.605  18.158  0.00  0.00    +0.000 C 
ATOM     15  C   UNL     1       2.854   7.326  17.855  0.00  0.00    +0.000 C 
BRANCH  14  17
ATOM     16  O   UNL     1       0.439   9.296  17.503  0.00  0.00    +0.000 OA
ATOM     17  C   UNL     1       1.233   9.084  18.415  0.00  0.00    +0.000 C 
BRANCH  17  18
ATOM     18  C   UNL     1       0.846   9.359  19.827  0.00  0.00    +0.000 A 
ATOM     19  C   UNL     1       1.409   8.544  20.820  0.00  0.00    +0.000 A 
ATOM     20  C   UNL     1       1.104   8.753  22.167  0.00  0.00    +0.000 A 
ATOM     21  C   UNL     1       0.241   9.784  22.534  0.00  0.00    +0.000 A 
ATOM     22  C   UNL     1      -0.313  10.612  21.559  0.00  0.00    +0.000 A 
ATOM     23  C   UNL     1      -0.006  10.406  20.212  0.00  0.00    +0.000 A 
BRANCH  23  24
ATOM     24  O   UNL     1      -0.529  11.264  19.284  0.00  0.00    +0.000 OA
ATOM     25  H   UNL     1      -0.710  10.783  18.460  0.00  0.00    +0.000 HD
ENDBRANCH  23  24
ENDBRANCH  17  18
ENDBRANCH  14  17
ENDBRANCH   1  15
TORSDOF 4
ENDMDL
MODEL 9
REMARK VINA RESULT:      -7.5      6.455      9.684
REMARK  Name = 
REMARK  4 active torsions:
REMARK  status: ('A' for Active; 'I' for Inactive)
REMARK    1  A    between atoms: C_2  and  C_3
REMARK    2  A    between atoms: C_2  and  C_18
REMARK    3  A    between atoms: C_4  and  N_5
REMARK    4  A    between atoms: C_23  and  O_24
REMARK                            x       y       z     vdW  Elec       q    Type
REMARK                         _______ _______ _______ _____ _____    ______ ____
ROOT
ATOM      1  N   UNL     1       1.190   9.062  19.802  0.00  0.00    +0.000 N 
ATOM      2  C   UNL     1      -0.137   9.286  20.431  0.00  0.00    +0.000 C 
ATOM      3  C   UNL     1      -0.462  10.749  19.987  0.00  0.00    +0.000 C 
ATOM      4  C   UNL     1       0.943  11.367  20.035  0.00  0.00    +0.000 C 
ATOM      5  C   UNL     1       1.525  10.312  19.082  0.00  0.00    +0.000 C 
ATOM      6  C   UNL     1       0.560  10.449  17.862  0.00  0.00    +0.000 C 
ATOM      7  N   UNL     1      -0.711  10.762  18.533  0.00  0.00    +0.000 N 
ATOM      8  C   UNL     1      -1.953  10.813  17.987  0.00  0.00    +0.000 A 
ATOM      9  C   UNL     1      -2.173  10.565  16.633  0.00  0.00    +0.000 A 
ATOM     10  C   UNL     1      -3.454  10.687  16.093  0.00  0.00    +0.000 A 
ATOM     11  C   UNL     1      -4.499  11.070  16.915  0.00  0.00    +0.000 A 
ATOM     12  C   UNL     1      -4.214  11.292  18.248  0.00  0.00    +0.000 A 
ATOM     13  N   UNL     1      -2.982  11.159  18.791  0.00  0.00    +0.000 NA
ENDROOT
BRANCH   1  15
ATOM     14  C   UNL     1       2.482   7.328  18.691  0.00  0.00    +0.000 C 
ATOM     15  C   UNL     1       1.912   7.892  19.760  0.00  0.00    +0.000 C 
BRANCH  14  17
ATOM     16  O   UNL     1       4.274   5.811  18.325  0.00  0.00    +0.000 OA
ATOM     17  C   UNL     1       3.157   6.008  18.795  0.00  0.00    +0.000 C 
BRANCH  17  18
ATOM     18  C   UNL     1       2.409   4.896  19.444  0.00  0.00    +0.000 A 
ATOM     19  C   UNL     1       2.612   4.697  20.818  0.00  0.00    +0.000 A 
ATOM     20  C   UNL     1       1.933   3.682  21.497  0.00  0.00    +0.000 A 
ATOM     21  C   UNL     1       1.036   2.865  20.812  0.00  0.00    +0.000 A 
ATOM     22  C   UNL     1       0.810   3.062  19.450  0.00  0.00    +0.000 A 
ATOM     23  C   UNL     1       1.488   4.078  18.770  0.00  0.00    +0.000 A 
BRANCH  23  24
ATOM     24  O   UNL     1       1.210   4.275  17.446  0.00  0.00    +0.000 OA
ATOM     25  H   UNL     1       0.840   3.462  17.065  0.00  0.00    +0.000 HD
ENDBRANCH  23  24
ENDBRANCH  17  18
ENDBRANCH  14  17
ENDBRANCH   1  15
TORSDOF 4
ENDMDL
