MODEL 1
REMARK VINA RESULT:      -6.1      0.000      0.000
REMARK  Name = 
REMARK  10 active torsions:
REMARK  status: ('A' for Active; 'I' for Inactive)
REMARK    1  A    between atoms: C_1  and  C_2
REMARK    2  A    between atoms: C_2  and  C_3
REMARK    3  A    between atoms: C_3  and  C_4
REMARK    4  A    between atoms: C_4  and  N_5
REMARK    5  A    between atoms: N_5  and  C_6
REMARK    6  A    between atoms: N_5  and  C_7
REMARK    7  A    between atoms: C_11  and  S_12
REMARK    8  A    between atoms: N_13  and  C_14
REMARK    9  A    between atoms: C_18  and  S_19
REMARK   10  A    between atoms: S_19  and  C_20
REMARK                            x       y       z     vdW  Elec       q    Type
REMARK                         _______ _______ _______ _____ _____    ______ ____
ROOT
ATOM      1  C   UNL     1       5.045   5.474  18.181  0.00  0.00    +0.000 C 
ATOM      2  C   UNL     1       4.323   5.604  19.543  0.00  0.00    +0.000 C 
ATOM      3  C   UNL     1       2.845   5.948  19.368  0.00  0.00    +0.000 C 
ATOM      4  N   UNL     1       2.727   7.225  18.662  0.00  0.00    +0.000 N 
ATOM      5  C   UNL     1       1.886   8.280  19.017  0.00  0.00    +0.000 C 
ATOM      6  N   UNL     1       1.587   9.223  18.165  0.00  0.00    +0.000 NA
ATOM      7  C   UNL     1       3.331   7.179  17.319  0.00  0.00    +0.000 C 
ATOM      8  C   UNL     1       4.815   6.820  17.450  0.00  0.00    +0.000 C 
ENDROOT
BRANCH   6   9
ATOM      9  C   UNL     1       0.842  10.381  18.460  0.00  0.00    +0.000 A 
ATOM     10  C   UNL     1       1.445  11.590  18.811  0.00  0.00    +0.000 A 
ATOM     11  C   UNL     1       0.684  12.724  19.082  0.00  0.00    +0.000 A 
ATOM     12  C   UNL     1      -0.698  12.684  18.914  0.00  0.00    +0.000 A 
ATOM     13  C   UNL     1      -1.325  11.514  18.472  0.00  0.00    +0.000 A 
ATOM     14  C   UNL     1      -0.551  10.360  18.275  0.00  0.00    +0.000 A 
BRANCH  13  15
ATOM     15  S   UNL     1      -3.097  11.586  18.225  0.00  0.00    +0.000 S 
ATOM     16  C   UNL     1      -3.383  10.197  17.095  0.00  0.00    +0.000 C 
ENDBRANCH  13  15
ENDBRANCH   6   9
BRANCH   1  17
ATOM     17  N   UNL     1       4.632   4.278  17.381  0.00  0.00    +0.000 NA
ATOM     18  C   UNL     1       4.412   3.098  18.235  0.00  0.00    +0.000 C 
BRANCH  17  19
ATOM     19  C   UNL     1       5.649   3.947  16.353  0.00  0.00    +0.000 C 
BRANCH  19  20
ATOM     20  C   UNL     1       5.365   4.471  14.936  0.00  0.00    +0.000 C 
BRANCH  20  22
ATOM     21  C   UNL     1       6.203   3.620  12.728  0.00  0.00    +0.000 C 
ATOM     22  C   UNL     1       6.574   4.351  14.007  0.00  0.00    +0.000 C 
ENDBRANCH  20  22
ENDBRANCH  19  20
ENDBRANCH  17  19
ENDBRANCH   1  17
BRANCH   5  23
ATOM     23  S   UNL     1       1.318   8.292  20.694  0.00  0.00    +0.000 S 
ATOM     24  H   UNL     1       0.477   9.320  20.506  0.00  0.00    +0.000 HD
ENDBRANCH   5  23
TORSDOF 7
ENDMDL
MODEL 2
REMARK VINA RESULT:      -5.9      2.487      8.750
REMARK  Name = 
REMARK  10 active torsions:
REMARK  status: ('A' for Active; 'I' for Inactive)
REMARK    1  A    between atoms: C_1  and  C_2
REMARK    2  A    between atoms: C_2  and  C_3
REMARK    3  A    between atoms: C_3  and  C_4
REMARK    4  A    between atoms: C_4  and  N_5
REMARK    5  A    between atoms: N_5  and  C_6
REMARK    6  A    between atoms: N_5  and  C_7
REMARK    7  A    between atoms: C_11  and  S_12
REMARK    8  A    between atoms: N_13  and  C_14
REMARK    9  A    between atoms: C_18  and  S_19
REMARK   10  A    between atoms: S_19  and  C_20
REMARK                            x       y       z     vdW  Elec       q    Type
REMARK                         _______ _______ _______ _____ _____    ______ ____
ROOT
ATOM      1  C   UNL     1      -0.512  10.792  19.901  0.00  0.00    +0.000 C 
ATOM      2  C   UNL     1      -0.308   9.673  20.949  0.00  0.00    +0.000 C 
ATOM      3  C   UNL     1       1.137   9.178  20.974  0.00  0.00    +0.000 C 
ATOM      4  N   UNL     1       1.487   8.642  19.657  0.00  0.00    +0.000 N 
ATOM      5  C   UNL     1       2.147   7.438  19.414  0.00  0.00    +0.000 C 
ATOM      6  N   UNL     1       2.718   7.199  18.265  0.00  0.00    +0.000 NA
ATOM      7  C   UNL     1       1.386   9.659  18.596  0.00  0.00    +0.000 C 
ATOM      8  C   UNL     1      -0.049  10.194  18.549  0.00  0.00    +0.000 C 
ENDROOT
BRANCH   6   9
ATOM      9  C   UNL     1       3.309   5.977  17.887  0.00  0.00    +0.000 A 
ATOM     10  C   UNL     1       2.558   4.824  17.653  0.00  0.00    +0.000 A 
ATOM     11  C   UNL     1       3.167   3.634  17.265  0.00  0.00    +0.000 A 
ATOM     12  C   UNL     1       4.537   3.609  17.015  0.00  0.00    +0.000 A 
ATOM     13  C   UNL     1       5.304   4.771  17.150  0.00  0.00    +0.000 A 
ATOM     14  C   UNL     1       4.686   5.943  17.613  0.00  0.00    +0.000 A 
BRANCH  13  15
ATOM     15  S   UNL     1       7.043   4.649  16.743  0.00  0.00    +0.000 S 
ATOM     16  C   UNL     1       7.022   4.764  14.934  0.00  0.00    +0.000 C 
ENDBRANCH  13  15
ENDBRANCH   6   9
BRANCH   1  17
ATOM     17  N   UNL     1       0.159  12.085  20.246  0.00  0.00    +0.000 NA
ATOM     18  C   UNL     1      -0.294  12.605  21.547  0.00  0.00    +0.000 C 
BRANCH  17  19
ATOM     19  C   UNL     1      -0.089  13.110  19.203  0.00  0.00    +0.000 C 
BRANCH  19  20
ATOM     20  C   UNL     1       1.152  13.853  18.685  0.00  0.00    +0.000 C 
BRANCH  20  22
ATOM     21  C   UNL     1      -0.284  15.870  19.096  0.00  0.00    +0.000 C 
ATOM     22  C   UNL     1       1.139  15.343  19.030  0.00  0.00    +0.000 C 
ENDBRANCH  20  22
ENDBRANCH  19  20
ENDBRANCH  17  19
ENDBRANCH   1  17
BRANCH   5  23
ATOM     23  S   UNL     1       2.098   6.246  20.723  0.00  0.00    +0.000 S 
ATOM     24  H   UNL     1       1.658   7.122  21.638  0.00  0.00    +0.000 HD
ENDBRANCH   5  23
TORSDOF 7
ENDMDL
MODEL 3
REMARK VINA RESULT:      -5.8      2.496      8.421
REMARK  Name = 
REMARK  10 active torsions:
REMARK  status: ('A' for Active; 'I' for Inactive)
REMARK    1  A    between atoms: C_1  and  C_2
REMARK    2  A    between atoms: C_2  and  C_3
REMARK    3  A    between atoms: C_3  and  C_4
REMARK    4  A    between atoms: C_4  and  N_5
REMARK    5  A    between atoms: N_5  and  C_6
REMARK    6  A    between atoms: N_5  and  C_7
REMARK    7  A    between atoms: C_11  and  S_12
REMARK    8  A    between atoms: N_13  and  C_14
REMARK    9  A    between atoms: C_18  and  S_19
REMARK   10  A    between atoms: S_19  and  C_20
REMARK                            x       y       z     vdW  Elec       q    Type
REMARK                         _______ _______ _______ _____ _____    ______ ____
ROOT
ATOM      1  C   UNL     1      -0.590  10.620  20.125  0.00  0.00    +0.000 C 
ATOM      2  C   UNL     1      -0.340   9.447  21.103  0.00  0.00    +0.000 C 
ATOM      3  C   UNL     1       1.114   8.982  21.068  0.00  0.00    +0.000 C 
ATOM      4  N   UNL     1       1.444   8.528  19.715  0.00  0.00    +0.000 N 
ATOM      5  C   UNL     1       2.120   7.354  19.389  0.00  0.00    +0.000 C 
ATOM      6  N   UNL     1       2.669   7.191  18.215  0.00  0.00    +0.000 NA
ATOM      7  C   UNL     1       1.299   9.601  18.715  0.00  0.00    +0.000 C 
ATOM      8  C   UNL     1      -0.147  10.109  18.731  0.00  0.00    +0.000 C 
ENDROOT
BRANCH   6   9
ATOM      9  C   UNL     1       3.274   6.006  17.755  0.00  0.00    +0.000 A 
ATOM     10  C   UNL     1       2.608   4.780  17.750  0.00  0.00    +0.000 A 
ATOM     11  C   UNL     1       3.225   3.625  17.274  0.00  0.00    +0.000 A 
ATOM     12  C   UNL     1       4.495   3.705  16.708  0.00  0.00    +0.000 A 
ATOM     13  C   UNL     1       5.153   4.937  16.613  0.00  0.00    +0.000 A 
ATOM     14  C   UNL     1       4.547   6.076  17.164  0.00  0.00    +0.000 A 
BRANCH  13  15
ATOM     15  S   UNL     1       6.753   4.942  15.810  0.00  0.00    +0.000 S 
ATOM     16  C   UNL     1       6.413   4.045  14.271  0.00  0.00    +0.000 C 
ENDBRANCH  13  15
ENDBRANCH   6   9
BRANCH   1  17
ATOM     17  N   UNL     1       0.065  11.904  20.529  0.00  0.00    +0.000 NA
ATOM     18  C   UNL     1      -0.297  12.294  21.903  0.00  0.00    +0.000 C 
BRANCH  17  19
ATOM     19  C   UNL     1      -0.302  13.004  19.602  0.00  0.00    +0.000 C 
BRANCH  19  20
ATOM     20  C   UNL     1       0.854  13.902  19.137  0.00  0.00    +0.000 C 
BRANCH  20  22
ATOM     21  C   UNL     1       3.343  14.186  18.977  0.00  0.00    +0.000 C 
ATOM     22  C   UNL     1       2.210  13.197  19.187  0.00  0.00    +0.000 C 
ENDBRANCH  20  22
ENDBRANCH  19  20
ENDBRANCH  17  19
ENDBRANCH   1  17
BRANCH   5  23
ATOM     23  S   UNL     1       2.125   6.089  20.628  0.00  0.00    +0.000 S 
ATOM     24  H   UNL     1       1.419   5.222  19.887  0.00  0.00    +0.000 HD
ENDBRANCH   5  23
TORSDOF 7
ENDMDL
MODEL 4
REMARK VINA RESULT:      -5.8      1.673      2.509
REMARK  Name = 
REMARK  10 active torsions:
REMARK  status: ('A' for Active; 'I' for Inactive)
REMARK    1  A    between atoms: C_1  and  C_2
REMARK    2  A    between atoms: C_2  and  C_3
REMARK    3  A    between atoms: C_3  and  C_4
REMARK    4  A    between atoms: C_4  and  N_5
REMARK    5  A    between atoms: N_5  and  C_6
REMARK    6  A    between atoms: N_5  and  C_7
REMARK    7  A    between atoms: C_11  and  S_12
REMARK    8  A    between atoms: N_13  and  C_14
REMARK    9  A    between atoms: C_18  and  S_19
REMARK   10  A    between atoms: S_19  and  C_20
REMARK                            x       y       z     vdW  Elec       q    Type
REMARK                         _______ _______ _______ _____ _____    ______ ____
ROOT
ATOM      1  C   UNL     1       4.467   5.521  18.199  0.00  0.00    +0.000 C 
ATOM      2  C   UNL     1       3.920   5.604  19.644  0.00  0.00    +0.000 C 
ATOM      3  C   UNL     1       2.449   6.014  19.669  0.00  0.00    +0.000 C 
ATOM      4  N   UNL     1       2.306   7.333  19.048  0.00  0.00    +0.000 N 
ATOM      5  C   UNL     1       1.563   8.399  19.556  0.00  0.00    +0.000 C 
ATOM      6  N   UNL     1       1.208   9.399  18.797  0.00  0.00    +0.000 NA
ATOM      7  C   UNL     1       2.742   7.338  17.641  0.00  0.00    +0.000 C 
ATOM      8  C   UNL     1       4.212   6.914  17.571  0.00  0.00    +0.000 C 
ENDROOT
BRANCH   6   9
ATOM      9  C   UNL     1       0.557  10.568  19.239  0.00  0.00    +0.000 A 
ATOM     10  C   UNL     1      -0.833  10.673  19.298  0.00  0.00    +0.000 A 
ATOM     11  C   UNL     1      -1.450  11.835  19.754  0.00  0.00    +0.000 A 
ATOM     12  C   UNL     1      -0.673  12.881  20.246  0.00  0.00    +0.000 A 
ATOM     13  C   UNL     1       0.722  12.770  20.287  0.00  0.00    +0.000 A 
ATOM     14  C   UNL     1       1.328  11.622  19.756  0.00  0.00    +0.000 A 
BRANCH  13  15
ATOM     15  S   UNL     1       1.624  14.143  20.999  0.00  0.00    +0.000 S 
ATOM     16  C   UNL     1       3.163  14.127  20.040  0.00  0.00    +0.000 C 
ENDBRANCH  13  15
ENDBRANCH   6   9
BRANCH   1  17
ATOM     17  N   UNL     1       3.906   4.389  17.395  0.00  0.00    +0.000 NA
ATOM     18  C   UNL     1       3.824   3.147  18.183  0.00  0.00    +0.000 C 
BRANCH  17  19
ATOM     19  C   UNL     1       4.724   4.139  16.183  0.00  0.00    +0.000 C 
BRANCH  19  20
ATOM     20  C   UNL     1       6.226   4.435  16.315  0.00  0.00    +0.000 C 
BRANCH  20  22
ATOM     21  C   UNL     1       6.042   4.021  13.847  0.00  0.00    +0.000 C 
ATOM     22  C   UNL     1       6.931   4.542  14.962  0.00  0.00    +0.000 C 
ENDBRANCH  20  22
ENDBRANCH  19  20
ENDBRANCH  17  19
ENDBRANCH   1  17
BRANCH   5  23
ATOM     23  S   UNL     1       1.201   8.339  21.288  0.00  0.00    +0.000 S 
ATOM     24  H   UNL     1       2.339   7.704  21.606  0.00  0.00    +0.000 HD
ENDBRANCH   5  23
TORSDOF 7
ENDMDL
MODEL 5
REMARK VINA RESULT:      -5.8      2.832      8.721
REMARK  Name = 
REMARK  10 active torsions:
REMARK  status: ('A' for Active; 'I' for Inactive)
REMARK    1  A    between atoms: C_1  and  C_2
REMARK    2  A    between atoms: C_2  and  C_3
REMARK    3  A    between atoms: C_3  and  C_4
REMARK    4  A    between atoms: C_4  and  N_5
REMARK    5  A    between atoms: N_5  and  C_6
REMARK    6  A    between atoms: N_5  and  C_7
REMARK    7  A    between atoms: C_11  and  S_12
REMARK    8  A    between atoms: N_13  and  C_14
REMARK    9  A    between atoms: C_18  and  S_19
REMARK   10  A    between atoms: S_19  and  C_20
REMARK                            x       y       z     vdW  Elec       q    Type
REMARK                         _______ _______ _______ _____ _____    ______ ____
ROOT
ATOM      1  C   UNL     1      -0.480  10.207  20.960  0.00  0.00    +0.000 C 
ATOM      2  C   UNL     1      -0.382   8.876  21.743  0.00  0.00    +0.000 C 
ATOM      3  C   UNL     1       1.047   8.336  21.761  0.00  0.00    +0.000 C 
ATOM      4  N   UNL     1       1.490   8.093  20.387  0.00  0.00    +0.000 N 
ATOM      5  C   UNL     1       2.143   6.950  19.929  0.00  0.00    +0.000 C 
ATOM      6  N   UNL     1       2.799   6.952  18.800  0.00  0.00    +0.000 NA
ATOM      7  C   UNL     1       1.493   9.324  19.576  0.00  0.00    +0.000 C 
ATOM      8  C   UNL     1       0.077   9.908  19.546  0.00  0.00    +0.000 C 
ENDROOT
BRANCH   6   9
ATOM      9  C   UNL     1       3.395   5.824  18.201  0.00  0.00    +0.000 A 
ATOM     10  C   UNL     1       2.644   4.811  17.604  0.00  0.00    +0.000 A 
ATOM     11  C   UNL     1       3.259   3.715  17.005  0.00  0.00    +0.000 A 
ATOM     12  C   UNL     1       4.648   3.666  16.916  0.00  0.00    +0.000 A 
ATOM     13  C   UNL     1       5.428   4.712  17.423  0.00  0.00    +0.000 A 
ATOM     14  C   UNL     1       4.794   5.772  18.088  0.00  0.00    +0.000 A 
BRANCH  13  15
ATOM     15  S   UNL     1       7.200   4.585  17.201  0.00  0.00    +0.000 S 
ATOM     16  C   UNL     1       7.832   5.451  18.663  0.00  0.00    +0.000 C 
ENDBRANCH  13  15
ENDBRANCH   6   9
BRANCH   1  17
ATOM     17  N   UNL     1       0.186  11.365  21.635  0.00  0.00    +0.000 NA
ATOM     18  C   UNL     1      -0.712  12.028  22.596  0.00  0.00    +0.000 C 
BRANCH  17  19
ATOM     19  C   UNL     1       0.654  12.364  20.642  0.00  0.00    +0.000 C 
BRANCH  19  20
ATOM     20  C   UNL     1       0.092  13.784  20.805  0.00  0.00    +0.000 C 
BRANCH  20  22
ATOM     21  C   UNL     1      -0.225  13.636  18.319  0.00  0.00    +0.000 C 
ATOM     22  C   UNL     1      -0.759  14.225  19.613  0.00  0.00    +0.000 C 
ENDBRANCH  20  22
ENDBRANCH  19  20
ENDBRANCH  17  19
ENDBRANCH   1  17
BRANCH   5  23
ATOM     23  S   UNL     1       1.968   5.500  20.929  0.00  0.00    +0.000 S 
ATOM     24  H   UNL     1       2.471   4.676  19.998  0.00  0.00    +0.000 HD
ENDBRANCH   5  23
TORSDOF 7
ENDMDL
MODEL 6
REMARK VINA RESULT:      -5.8      2.551      8.488
REMARK  Name = 
REMARK  10 active torsions:
REMARK  status: ('A' for Active; 'I' for Inactive)
REMARK    1  A    between atoms: C_1  and  C_2
REMARK    2  A    between atoms: C_2  and  C_3
REMARK    3  A    between atoms: C_3  and  C_4
REMARK    4  A    between atoms: C_4  and  N_5
REMARK    5  A    between atoms: N_5  and  C_6
REMARK    6  A    between atoms: N_5  and  C_7
REMARK    7  A    between atoms: C_11  and  S_12
REMARK    8  A    between atoms: N_13  and  C_14
REMARK    9  A    between atoms: C_18  and  S_19
REMARK   10  A    between atoms: S_19  and  C_20
REMARK                            x       y       z     vdW  Elec       q    Type
REMARK                         _______ _______ _______ _____ _____    ______ ____
ROOT
ATOM      1  C   UNL     1      -0.706  11.306  19.859  0.00  0.00    +0.000 C 
ATOM      2  C   UNL     1      -0.510  10.198  20.921  0.00  0.00    +0.000 C 
ATOM      3  C   UNL     1       0.930   9.689  20.947  0.00  0.00    +0.000 C 
ATOM      4  N   UNL     1       1.269   9.132  19.636  0.00  0.00    +0.000 N 
ATOM      5  C   UNL     1       1.915   7.917  19.407  0.00  0.00    +0.000 C 
ATOM      6  N   UNL     1       2.479   7.657  18.258  0.00  0.00    +0.000 NA
ATOM      7  C   UNL     1       1.175  10.135  18.562  0.00  0.00    +0.000 C 
ATOM      8  C   UNL     1      -0.254  10.685  18.513  0.00  0.00    +0.000 C 
ENDROOT
BRANCH   6   9
ATOM      9  C   UNL     1       3.055   6.424  17.894  0.00  0.00    +0.000 A 
ATOM     10  C   UNL     1       2.332   5.231  17.896  0.00  0.00    +0.000 A 
ATOM     11  C   UNL     1       2.923   4.029  17.515  0.00  0.00    +0.000 A 
ATOM     12  C   UNL     1       4.231   4.023  17.038  0.00  0.00    +0.000 A 
ATOM     13  C   UNL     1       4.954   5.218  16.935  0.00  0.00    +0.000 A 
ATOM     14  C   UNL     1       4.368   6.408  17.392  0.00  0.00    +0.000 A 
BRANCH  13  15
ATOM     15  S   UNL     1       6.603   5.112  16.248  0.00  0.00    +0.000 S 
ATOM     16  C   UNL     1       7.586   4.611  17.687  0.00  0.00    +0.000 C 
ENDBRANCH  13  15
ENDBRANCH   6   9
BRANCH   1  17
ATOM     17  N   UNL     1      -0.019  12.596  20.185  0.00  0.00    +0.000 NA
ATOM     18  C   UNL     1      -0.506  13.169  21.451  0.00  0.00    +0.000 C 
BRANCH  17  19
ATOM     19  C   UNL     1      -0.209  13.590  19.100  0.00  0.00    +0.000 C 
BRANCH  19  20
ATOM     20  C   UNL     1       0.998  14.491  18.797  0.00  0.00    +0.000 C 
BRANCH  20  22
ATOM     21  C   UNL     1       3.407  14.575  18.097  0.00  0.00    +0.000 C 
ATOM     22  C   UNL     1       2.308  13.710  18.690  0.00  0.00    +0.000 C 
ENDBRANCH  20  22
ENDBRANCH  19  20
ENDBRANCH  17  19
ENDBRANCH   1  17
BRANCH   5  23
ATOM     23  S   UNL     1       1.858   6.743  20.731  0.00  0.00    +0.000 S 
ATOM     24  H   UNL     1       3.124   6.336  20.556  0.00  0.00    +0.000 HD
ENDBRANCH   5  23
TORSDOF 7
ENDMDL
MODEL 7
REMARK VINA RESULT:      -5.6      2.581      8.254
REMARK  Name = 
REMARK  10 active torsions:
REMARK  status: ('A' for Active; 'I' for Inactive)
REMARK    1  A    between atoms: C_1  and  C_2
REMARK    2  A    between atoms: C_2  and  C_3
REMARK    3  A    between atoms: C_3  and  C_4
REMARK    4  A    between atoms: C_4  and  N_5
REMARK    5  A    between atoms: N_5  and  C_6
REMARK    6  A    between atoms: N_5  and  C_7
REMARK    7  A    between atoms: C_11  and  S_12
REMARK    8  A    between atoms: N_13  and  C_14
REMARK    9  A    between atoms: C_18  and  S_19
REMARK   10  A    between atoms: S_19  and  C_20
REMARK                            x       y       z     vdW  Elec       q    Type
REMARK                         _______ _______ _______ _____ _____    ______ ____
ROOT
ATOM      1  C   UNL     1      -0.742  10.786  19.894  0.00  0.00    +0.000 C 
ATOM      2  C   UNL     1      -0.461   9.662  20.920  0.00  0.00    +0.000 C 
ATOM      3  C   UNL     1       1.012   9.257  20.925  0.00  0.00    +0.000 C 
ATOM      4  N   UNL     1       1.382   8.768  19.595  0.00  0.00    +0.000 N 
ATOM      5  C   UNL     1       2.113   7.611  19.325  0.00  0.00    +0.000 C 
ATOM      6  N   UNL     1       2.688   7.428  18.167  0.00  0.00    +0.000 NA
ATOM      7  C   UNL     1       1.211   9.796  18.554  0.00  0.00    +0.000 C 
ATOM      8  C   UNL     1      -0.255  10.242  18.528  0.00  0.00    +0.000 C 
ENDROOT
BRANCH   6   9
ATOM      9  C   UNL     1       3.349   6.253  17.762  0.00  0.00    +0.000 A 
ATOM     10  C   UNL     1       4.685   6.247  17.359  0.00  0.00    +0.000 A 
ATOM     11  C   UNL     1       5.318   5.067  16.978  0.00  0.00    +0.000 A 
ATOM     12  C   UNL     1       4.641   3.855  17.084  0.00  0.00    +0.000 A 
ATOM     13  C   UNL     1       3.330   3.815  17.573  0.00  0.00    +0.000 A 
ATOM     14  C   UNL     1       2.683   5.021  17.882  0.00  0.00    +0.000 A 
BRANCH  13  15
ATOM     15  S   UNL     1       2.572   2.201  17.732  0.00  0.00    +0.000 S 
ATOM     16  C   UNL     1       1.056   2.580  18.652  0.00  0.00    +0.000 C 
ENDBRANCH  13  15
ENDBRANCH   6   9
BRANCH   1  17
ATOM     17  N   UNL     1      -0.148  12.111  20.258  0.00  0.00    +0.000 NA
ATOM     18  C   UNL     1      -0.203  12.354  21.711  0.00  0.00    +0.000 C 
BRANCH  17  19
ATOM     19  C   UNL     1      -0.844  13.218  19.557  0.00  0.00    +0.000 C 
BRANCH  19  20
ATOM     20  C   UNL     1      -0.074  13.862  18.393  0.00  0.00    +0.000 C 
BRANCH  20  22
ATOM     21  C   UNL     1       2.107  15.002  18.886  0.00  0.00    +0.000 C 
ATOM     22  C   UNL     1       1.440  13.689  18.515  0.00  0.00    +0.000 C 
ENDBRANCH  20  22
ENDBRANCH  19  20
ENDBRANCH  17  19
ENDBRANCH   1  17
BRANCH   5  23
ATOM     23  S   UNL     1       2.148   6.395  20.611  0.00  0.00    +0.000 S 
ATOM     24  H   UNL     1       2.885   7.148  21.440  0.00  0.00    +0.000 HD
ENDBRANCH   5  23
TORSDOF 7
ENDMDL
MODEL 8
REMARK VINA RESULT:      -5.5      1.282      1.641
REMARK  Name = 
REMARK  10 active torsions:
REMARK  status: ('A' for Active; 'I' for Inactive)
REMARK    1  A    between atoms: C_1  and  C_2
REMARK    2  A    between atoms: C_2  and  C_3
REMARK    3  A    between atoms: C_3  and  C_4
REMARK    4  A    between atoms: C_4  and  N_5
REMARK    5  A    between atoms: N_5  and  C_6
REMARK    6  A    between atoms: N_5  and  C_7
REMARK    7  A    between atoms: C_11  and  S_12
REMARK    8  A    between atoms: N_13  and  C_14
REMARK    9  A    between atoms: C_18  and  S_19
REMARK   10  A    between atoms: S_19  and  C_20
REMARK                            x       y       z     vdW  Elec       q    Type
REMARK                         _______ _______ _______ _____ _____    ______ ____
ROOT
ATOM      1  C   UNL     1       4.271   5.455  18.292  0.00  0.00    +0.000 C 
ATOM      2  C   UNL     1       3.694   5.599  19.721  0.00  0.00    +0.000 C 
ATOM      3  C   UNL     1       2.251   6.098  19.700  0.00  0.00    +0.000 C 
ATOM      4  N   UNL     1       2.203   7.411  19.052  0.00  0.00    +0.000 N 
ATOM      5  C   UNL     1       1.514   8.529  19.521  0.00  0.00    +0.000 C 
ATOM      6  N   UNL     1       1.240   9.534  18.735  0.00  0.00    +0.000 NA
ATOM      7  C   UNL     1       2.674   7.362  17.657  0.00  0.00    +0.000 C 
ATOM      8  C   UNL     1       4.117   6.849  17.633  0.00  0.00    +0.000 C 
ENDROOT
BRANCH   6   9
ATOM      9  C   UNL     1       0.651  10.748  19.139  0.00  0.00    +0.000 A 
ATOM     10  C   UNL     1       1.399  11.906  19.357  0.00  0.00    +0.000 A 
ATOM     11  C   UNL     1       0.788  13.097  19.741  0.00  0.00    +0.000 A 
ATOM     12  C   UNL     1      -0.600  13.166  19.822  0.00  0.00    +0.000 A 
ATOM     13  C   UNL     1      -1.385  12.048  19.519  0.00  0.00    +0.000 A 
ATOM     14  C   UNL     1      -0.750  10.836  19.206  0.00  0.00    +0.000 A 
BRANCH  13  15
ATOM     15  S   UNL     1      -3.162  12.259  19.590  0.00  0.00    +0.000 S 
ATOM     16  C   UNL     1      -3.366  13.286  21.070  0.00  0.00    +0.000 C 
ENDBRANCH  13  15
ENDBRANCH   6   9
BRANCH   1  17
ATOM     17  N   UNL     1       3.662   4.344  17.494  0.00  0.00    +0.000 NA
ATOM     18  C   UNL     1       3.015   3.342  18.359  0.00  0.00    +0.000 C 
BRANCH  17  19
ATOM     19  C   UNL     1       4.683   3.670  16.654  0.00  0.00    +0.000 C 
BRANCH  19  20
ATOM     20  C   UNL     1       5.234   4.495  15.480  0.00  0.00    +0.000 C 
BRANCH  20  22
ATOM     21  C   UNL     1       7.427   4.736  16.676  0.00  0.00    +0.000 C 
ATOM     22  C   UNL     1       6.756   4.405  15.355  0.00  0.00    +0.000 C 
ENDBRANCH  20  22
ENDBRANCH  19  20
ENDBRANCH  17  19
ENDBRANCH   1  17
BRANCH   5  23
ATOM     23  S   UNL     1       1.106   8.525  21.244  0.00  0.00    +0.000 S 
ATOM     24  H   UNL     1       1.110   9.862  21.350  0.00  0.00    +0.000 HD
ENDBRANCH   5  23
TORSDOF 7
ENDMDL
MODEL 9
REMARK VINA RESULT:      -5.5      3.247      9.549
REMARK  Name = 
REMARK  10 active torsions:
REMARK  status: ('A' for Active; 'I' for Inactive)
REMARK    1  A    between atoms: C_1  and  C_2
REMARK    2  A    between atoms: C_2  and  C_3
REMARK    3  A    between atoms: C_3  and  C_4
REMARK    4  A    between atoms: C_4  and  N_5
REMARK    5  A    between atoms: N_5  and  C_6
REMARK    6  A    between atoms: N_5  and  C_7
REMARK    7  A    between atoms: C_11  and  S_12
REMARK    8  A    between atoms: N_13  and  C_14
REMARK    9  A    between atoms: C_18  and  S_19
REMARK   10  A    between atoms: S_19  and  C_20
REMARK                            x       y       z     vdW  Elec       q    Type
REMARK                         _______ _______ _______ _____ _____    ______ ____
ROOT
ATOM      1  C   UNL     1       0.556  11.104  21.341  0.00  0.00    +0.000 C 
ATOM      2  C   UNL     1       1.108  11.112  19.896  0.00  0.00    +0.000 C 
ATOM      3  C   UNL     1       0.766   9.822  19.154  0.00  0.00    +0.000 C 
ATOM      4  N   UNL     1       1.357   8.685  19.863  0.00  0.00    +0.000 N 
ATOM      5  C   UNL     1       2.068   7.637  19.279  0.00  0.00    +0.000 C 
ATOM      6  N   UNL     1       2.260   6.513  19.914  0.00  0.00    +0.000 NA
ATOM      7  C   UNL     1       0.840   8.555  21.237  0.00  0.00    +0.000 C 
ATOM      8  C   UNL     1       1.149   9.840  22.012  0.00  0.00    +0.000 C 
ENDROOT
BRANCH   6   9
ATOM      9  C   UNL     1       3.054   5.443  19.456  0.00  0.00    +0.000 A 
ATOM     10  C   UNL     1       2.538   4.163  19.251  0.00  0.00    +0.000 A 
ATOM     11  C   UNL     1       3.344   3.128  18.783  0.00  0.00    +0.000 A 
ATOM     12  C   UNL     1       4.664   3.388  18.425  0.00  0.00    +0.000 A 
ATOM     13  C   UNL     1       5.185   4.682  18.530  0.00  0.00    +0.000 A 
ATOM     14  C   UNL     1       4.382   5.697  19.073  0.00  0.00    +0.000 A 
BRANCH  13  15
ATOM     15  S   UNL     1       6.872   4.925  17.983  0.00  0.00    +0.000 S 
ATOM     16  C   UNL     1       7.625   5.746  19.414  0.00  0.00    +0.000 C 
ENDBRANCH  13  15
ENDBRANCH   6   9
BRANCH   1  17
ATOM     17  N   UNL     1      -0.936  11.186  21.429  0.00  0.00    +0.000 NA
ATOM     18  C   UNL     1      -1.466  12.333  20.670  0.00  0.00    +0.000 C 
BRANCH  17  19
ATOM     19  C   UNL     1      -1.383  11.292  22.840  0.00  0.00    +0.000 C 
BRANCH  19  20
ATOM     20  C   UNL     1      -2.085  12.604  23.224  0.00  0.00    +0.000 C 
BRANCH  20  22
ATOM     21  C   UNL     1      -4.290  13.639  23.830  0.00  0.00    +0.000 C 
ATOM     22  C   UNL     1      -3.446  12.377  23.883  0.00  0.00    +0.000 C 
ENDBRANCH  20  22
ENDBRANCH  19  20
ENDBRANCH  17  19
ENDBRANCH   1  17
BRANCH   5  23
ATOM     23  S   UNL     1       2.743   7.955  17.674  0.00  0.00    +0.000 S 
ATOM     24  H   UNL     1       2.034   6.988  17.075  0.00  0.00    +0.000 HD
ENDBRANCH   5  23
TORSDOF 7
ENDMDL
