MODEL 1
REMARK VINA RESULT:      -8.9      0.000      0.000
REMARK  Name = 
REMARK  8 active torsions:
REMARK  status: ('A' for Active; 'I' for Inactive)
REMARK    1  A    between atoms: C_1  and  O_2
REMARK    2  A    between atoms: O_2  and  C_3
REMARK    3  A    between atoms: C_7  and  C_8
REMARK    4  A    between atoms: N_9  and  N_10
REMARK    5  A    between atoms: C_11  and  C_13
REMARK    6  A    between atoms: C_23  and  C_24
REMARK    7  A    between atoms: C_24  and  C_25
REMARK    8  A    between atoms: C_24  and  C_26
REMARK                            x       y       z     vdW  Elec       q    Type
REMARK                         _______ _______ _______ _____ _____    ______ ____
ROOT
ATOM      1  C   UNL     1       6.806   6.131  18.140  0.00  0.00    +0.000 A 
ATOM      2  N   UNL     1       7.315   5.334  19.137  0.00  0.00    +0.000 NA
ATOM      3  N   UNL     1       6.425   4.405  19.431  0.00  0.00    +0.000 NA
ATOM      4  N   UNL     1       5.360   4.520  18.588  0.00  0.00    +0.000 N 
ATOM      5  C   UNL     1       4.340   3.522  18.533  0.00  0.00    +0.000 A 
ATOM      6  N   UNL     1       3.347   3.601  17.644  0.00  0.00    +0.000 NA
ATOM      7  O   UNL     1       2.607   2.443  17.827  0.00  0.00    +0.000 OA
ATOM      8  N   UNL     1       3.140   1.668  18.844  0.00  0.00    +0.000 NA
ATOM      9  C   UNL     1       4.207   2.335  19.283  0.00  0.00    +0.000 A 
ATOM     10  N   UNL     1       4.986   1.895  20.289  0.00  0.00    +0.000 N 
ATOM     11  C   UNL     1       5.505   5.713  17.846  0.00  0.00    +0.000 A 
ATOM     12  H   UNL     1       4.669   1.095  20.826  0.00  0.00    +0.000 HD
ATOM     13  H   UNL     1       5.627   2.512  20.779  0.00  0.00    +0.000 HD
ENDROOT
BRANCH   1  15
ATOM     14  N   UNL     1       7.897   8.258  18.439  0.00  0.00    +0.000 N 
ATOM     15  C   UNL     1       7.611   7.212  17.560  0.00  0.00    +0.000 C 
ATOM     16  O   UNL     1       8.028   7.183  16.406  0.00  0.00    +0.000 OA
ATOM     17  H   UNL     1       7.577   8.219  19.401  0.00  0.00    +0.000 HD
BRANCH  14  19
ATOM     18  C   UNL     1       8.936  10.244  18.815  0.00  0.00    +0.000 C 
ATOM     19  N   UNL     1       8.597   9.334  17.967  0.00  0.00    +0.000 NA
BRANCH  18  24
ATOM     20  C   UNL     1       9.636  13.848  17.958  0.00  0.00    +0.000 A 
ATOM     21  C   UNL     1      10.945  13.760  17.474  0.00  0.00    +0.000 A 
ATOM     22  C   UNL     1      11.617  12.537  17.451  0.00  0.00    +0.000 A 
ATOM     23  C   UNL     1      10.976  11.384  17.897  0.00  0.00    +0.000 A 
ATOM     24  C   UNL     1       9.659  11.466  18.379  0.00  0.00    +0.000 A 
ATOM     25  C   UNL     1       9.000  12.695  18.422  0.00  0.00    +0.000 A 
BRANCH  20  27
ATOM     26  C   UNL     1       8.538  15.622  19.105  0.00  0.00    +0.000 C 
ATOM     27  O   UNL     1       9.090  15.101  17.903  0.00  0.00    +0.000 OA
ENDBRANCH  20  27
ENDBRANCH  18  24
ENDBRANCH  14  19
ENDBRANCH   1  15
BRANCH  11  28
ATOM     28  C   UNL     1       4.403   6.244  16.953  0.00  0.00    +0.000 C 
ATOM     29  C   UNL     1       3.578   7.397  17.525  0.00  0.00    +0.000 C 
ATOM     30  C   UNL     1       4.912   6.594  15.553  0.00  0.00    +0.000 C 
ENDBRANCH  11  28
TORSDOF 5
ENDMDL
MODEL 2
REMARK VINA RESULT:      -8.7      1.029      1.043
REMARK  Name = 
REMARK  8 active torsions:
REMARK  status: ('A' for Active; 'I' for Inactive)
REMARK    1  A    between atoms: C_1  and  O_2
REMARK    2  A    between atoms: O_2  and  C_3
REMARK    3  A    between atoms: C_7  and  C_8
REMARK    4  A    between atoms: N_9  and  N_10
REMARK    5  A    between atoms: C_11  and  C_13
REMARK    6  A    between atoms: C_23  and  C_24
REMARK    7  A    between atoms: C_24  and  C_25
REMARK    8  A    between atoms: C_24  and  C_26
REMARK                            x       y       z     vdW  Elec       q    Type
REMARK                         _______ _______ _______ _____ _____    ______ ____
ROOT
ATOM      1  C   UNL     1       6.815   6.171  18.221  0.00  0.00    +0.000 A 
ATOM      2  N   UNL     1       7.280   5.328  19.201  0.00  0.00    +0.000 NA
ATOM      3  N   UNL     1       6.387   4.377  19.400  0.00  0.00    +0.000 NA
ATOM      4  N   UNL     1       5.365   4.527  18.510  0.00  0.00    +0.000 N 
ATOM      5  C   UNL     1       4.361   3.524  18.350  0.00  0.00    +0.000 A 
ATOM      6  N   UNL     1       3.415   3.641  17.416  0.00  0.00    +0.000 NA
ATOM      7  O   UNL     1       2.680   2.469  17.500  0.00  0.00    +0.000 OA
ATOM      8  N   UNL     1       3.168   1.646  18.503  0.00  0.00    +0.000 NA
ATOM      9  C   UNL     1       4.202   2.299  19.031  0.00  0.00    +0.000 A 
ATOM     10  N   UNL     1       4.933   1.814  20.053  0.00  0.00    +0.000 N 
ATOM     11  C   UNL     1       5.536   5.757  17.838  0.00  0.00    +0.000 A 
ATOM     12  H   UNL     1       4.598   0.985  20.530  0.00  0.00    +0.000 HD
ATOM     13  H   UNL     1       5.542   2.410  20.606  0.00  0.00    +0.000 HD
ENDROOT
BRANCH   1  15
ATOM     14  N   UNL     1       7.912   8.261  18.702  0.00  0.00    +0.000 N 
ATOM     15  C   UNL     1       7.637   7.287  17.740  0.00  0.00    +0.000 C 
ATOM     16  O   UNL     1       8.075   7.344  16.596  0.00  0.00    +0.000 OA
ATOM     17  H   UNL     1       7.574   8.151  19.653  0.00  0.00    +0.000 HD
BRANCH  14  19
ATOM     18  C   UNL     1       9.278   9.994  19.245  0.00  0.00    +0.000 C 
ATOM     19  N   UNL     1       8.627   9.365  18.327  0.00  0.00    +0.000 NA
BRANCH  18  24
ATOM     20  C   UNL     1      10.891  13.378  19.643  0.00  0.00    +0.000 A 
ATOM     21  C   UNL     1      11.383  13.597  18.352  0.00  0.00    +0.000 A 
ATOM     22  C   UNL     1      11.220  12.634  17.354  0.00  0.00    +0.000 A 
ATOM     23  C   UNL     1      10.544  11.449  17.637  0.00  0.00    +0.000 A 
ATOM     24  C   UNL     1      10.044  11.228  18.931  0.00  0.00    +0.000 A 
ATOM     25  C   UNL     1      10.231  12.183  19.930  0.00  0.00    +0.000 A 
BRANCH  20  27
ATOM     26  C   UNL     1      10.846  15.726  20.039  0.00  0.00    +0.000 C 
ATOM     27  O   UNL     1      11.101  14.411  20.515  0.00  0.00    +0.000 OA
ENDBRANCH  20  27
ENDBRANCH  18  24
ENDBRANCH  14  19
ENDBRANCH   1  15
BRANCH  11  28
ATOM     28  C   UNL     1       4.475   6.325  16.917  0.00  0.00    +0.000 C 
ATOM     29  C   UNL     1       3.711   7.538  17.448  0.00  0.00    +0.000 C 
ATOM     30  C   UNL     1       5.019   6.607  15.515  0.00  0.00    +0.000 C 
ENDBRANCH  11  28
TORSDOF 5
ENDMDL
MODEL 3
REMARK VINA RESULT:      -8.4      1.311      1.670
REMARK  Name = 
REMARK  8 active torsions:
REMARK  status: ('A' for Active; 'I' for Inactive)
REMARK    1  A    between atoms: C_1  and  O_2
REMARK    2  A    between atoms: O_2  and  C_3
REMARK    3  A    between atoms: C_7  and  C_8
REMARK    4  A    between atoms: N_9  and  N_10
REMARK    5  A    between atoms: C_11  and  C_13
REMARK    6  A    between atoms: C_23  and  C_24
REMARK    7  A    between atoms: C_24  and  C_25
REMARK    8  A    between atoms: C_24  and  C_26
REMARK                            x       y       z     vdW  Elec       q    Type
REMARK                         _______ _______ _______ _____ _____    ______ ____
ROOT
ATOM      1  C   UNL     1       6.746   6.311  18.356  0.00  0.00    +0.000 A 
ATOM      2  N   UNL     1       7.192   5.411  19.293  0.00  0.00    +0.000 NA
ATOM      3  N   UNL     1       6.307   4.436  19.397  0.00  0.00    +0.000 NA
ATOM      4  N   UNL     1       5.314   4.631  18.484  0.00  0.00    +0.000 N 
ATOM      5  C   UNL     1       4.333   3.627  18.222  0.00  0.00    +0.000 A 
ATOM      6  N   UNL     1       3.417   3.793  17.265  0.00  0.00    +0.000 NA
ATOM      7  O   UNL     1       2.699   2.608  17.245  0.00  0.00    +0.000 OA
ATOM      8  N   UNL     1       3.166   1.727  18.207  0.00  0.00    +0.000 NA
ATOM      9  C   UNL     1       4.171   2.357  18.813  0.00  0.00    +0.000 A 
ATOM     10  N   UNL     1       4.875   1.814  19.825  0.00  0.00    +0.000 N 
ATOM     11  C   UNL     1       5.488   5.906  17.902  0.00  0.00    +0.000 A 
ATOM     12  H   UNL     1       4.537   0.950  20.235  0.00  0.00    +0.000 HD
ATOM     13  H   UNL     1       5.454   2.380  20.438  0.00  0.00    +0.000 HD
ENDROOT
BRANCH   1  15
ATOM     14  N   UNL     1       8.346   7.987  19.015  0.00  0.00    +0.000 N 
ATOM     15  C   UNL     1       7.565   7.468  17.980  0.00  0.00    +0.000 C 
ATOM     16  O   UNL     1       7.588   7.923  16.841  0.00  0.00    +0.000 OA
ATOM     17  H   UNL     1       8.337   7.550  19.931  0.00  0.00    +0.000 HD
BRANCH  14  19
ATOM     18  C   UNL     1       9.227   9.959  19.722  0.00  0.00    +0.000 C 
ATOM     19  N   UNL     1       9.101   9.101  18.768  0.00  0.00    +0.000 NA
BRANCH  18  24
ATOM     20  C   UNL     1      11.438  12.564  18.128  0.00  0.00    +0.000 A 
ATOM     21  C   UNL     1      11.520  13.513  19.153  0.00  0.00    +0.000 A 
ATOM     22  C   UNL     1      10.833  13.325  20.354  0.00  0.00    +0.000 A 
ATOM     23  C   UNL     1      10.072  12.175  20.547  0.00  0.00    +0.000 A 
ATOM     24  C   UNL     1       9.992  11.217  19.523  0.00  0.00    +0.000 A 
ATOM     25  C   UNL     1      10.660  11.420  18.316  0.00  0.00    +0.000 A 
BRANCH  20  27
ATOM     26  C   UNL     1      11.601  13.762  16.077  0.00  0.00    +0.000 C 
ATOM     27  O   UNL     1      12.176  12.862  17.016  0.00  0.00    +0.000 OA
ENDBRANCH  20  27
ENDBRANCH  18  24
ENDBRANCH  14  19
ENDBRANCH   1  15
BRANCH  11  28
ATOM     28  C   UNL     1       4.450   6.520  16.985  0.00  0.00    +0.000 C 
ATOM     29  C   UNL     1       3.842   7.841  17.454  0.00  0.00    +0.000 C 
ATOM     30  C   UNL     1       4.953   6.644  15.545  0.00  0.00    +0.000 C 
ENDBRANCH  11  28
TORSDOF 5
ENDMDL
MODEL 4
REMARK VINA RESULT:      -7.5      7.342     10.788
REMARK  Name = 
REMARK  8 active torsions:
REMARK  status: ('A' for Active; 'I' for Inactive)
REMARK    1  A    between atoms: C_1  and  O_2
REMARK    2  A    between atoms: O_2  and  C_3
REMARK    3  A    between atoms: C_7  and  C_8
REMARK    4  A    between atoms: N_9  and  N_10
REMARK    5  A    between atoms: C_11  and  C_13
REMARK    6  A    between atoms: C_23  and  C_24
REMARK    7  A    between atoms: C_24  and  C_25
REMARK    8  A    between atoms: C_24  and  C_26
REMARK                            x       y       z     vdW  Elec       q    Type
REMARK                         _______ _______ _______ _____ _____    ______ ____
ROOT
ATOM      1  C   UNL     1      -0.064  10.141  21.648  0.00  0.00    +0.000 A 
ATOM      2  N   UNL     1      -0.161  10.449  22.983  0.00  0.00    +0.000 NA
ATOM      3  N   UNL     1      -0.638  11.674  23.101  0.00  0.00    +0.000 NA
ATOM      4  N   UNL     1      -0.937  12.161  21.863  0.00  0.00    +0.000 N 
ATOM      5  C   UNL     1      -1.664  13.379  21.695  0.00  0.00    +0.000 A 
ATOM      6  N   UNL     1      -2.025  13.802  20.482  0.00  0.00    +0.000 NA
ATOM      7  O   UNL     1      -2.767  14.951  20.708  0.00  0.00    +0.000 OA
ATOM      8  N   UNL     1      -2.837  15.239  22.062  0.00  0.00    +0.000 NA
ATOM      9  C   UNL     1      -2.153  14.272  22.670  0.00  0.00    +0.000 A 
ATOM     10  N   UNL     1      -1.987  14.217  24.006  0.00  0.00    +0.000 N 
ATOM     11  C   UNL     1      -0.439  11.259  20.897  0.00  0.00    +0.000 A 
ATOM     12  H   UNL     1      -2.276  15.018  24.558  0.00  0.00    +0.000 HD
ATOM     13  H   UNL     1      -1.270  13.639  24.433  0.00  0.00    +0.000 HD
ENDROOT
BRANCH   1  15
ATOM     14  N   UNL     1       1.591   8.792  20.533  0.00  0.00    +0.000 N 
ATOM     15  C   UNL     1       0.374   8.809  21.216  0.00  0.00    +0.000 C 
ATOM     16  O   UNL     1      -0.262   7.790  21.464  0.00  0.00    +0.000 OA
ATOM     17  H   UNL     1       2.112   9.652  20.393  0.00  0.00    +0.000 HD
BRANCH  14  19
ATOM     18  C   UNL     1       2.385   7.550  18.802  0.00  0.00    +0.000 C 
ATOM     19  N   UNL     1       2.050   7.598  20.046  0.00  0.00    +0.000 NA
BRANCH  18  24
ATOM     20  C   UNL     1       2.433   3.959  17.656  0.00  0.00    +0.000 A 
ATOM     21  C   UNL     1       3.724   3.862  17.125  0.00  0.00    +0.000 A 
ATOM     22  C   UNL     1       4.573   4.970  17.109  0.00  0.00    +0.000 A 
ATOM     23  C   UNL     1       4.143   6.182  17.643  0.00  0.00    +0.000 A 
ATOM     24  C   UNL     1       2.850   6.282  18.183  0.00  0.00    +0.000 A 
ATOM     25  C   UNL     1       1.997   5.179  18.175  0.00  0.00    +0.000 A 
BRANCH  20  27
ATOM     26  C   UNL     1       0.904   2.503  18.758  0.00  0.00    +0.000 C 
ATOM     27  O   UNL     1       1.717   2.794  17.628  0.00  0.00    +0.000 OA
ENDBRANCH  20  27
ENDBRANCH  18  24
ENDBRANCH  14  19
ENDBRANCH   1  15
BRANCH  11  28
ATOM     28  C   UNL     1      -0.432  11.587  19.418  0.00  0.00    +0.000 C 
ATOM     29  C   UNL     1       0.942  11.848  18.800  0.00  0.00    +0.000 C 
ATOM     30  C   UNL     1      -1.202  10.554  18.593  0.00  0.00    +0.000 C 
ENDBRANCH  11  28
TORSDOF 5
ENDMDL
MODEL 5
REMARK VINA RESULT:      -7.5      7.273     10.902
REMARK  Name = 
REMARK  8 active torsions:
REMARK  status: ('A' for Active; 'I' for Inactive)
REMARK    1  A    between atoms: C_1  and  O_2
REMARK    2  A    between atoms: O_2  and  C_3
REMARK    3  A    between atoms: C_7  and  C_8
REMARK    4  A    between atoms: N_9  and  N_10
REMARK    5  A    between atoms: C_11  and  C_13
REMARK    6  A    between atoms: C_23  and  C_24
REMARK    7  A    between atoms: C_24  and  C_25
REMARK    8  A    between atoms: C_24  and  C_26
REMARK                            x       y       z     vdW  Elec       q    Type
REMARK                         _______ _______ _______ _____ _____    ______ ____
ROOT
ATOM      1  C   UNL     1      -0.168  10.073  21.845  0.00  0.00    +0.000 A 
ATOM      2  N   UNL     1      -0.291  10.458  23.159  0.00  0.00    +0.000 NA
ATOM      3  N   UNL     1      -0.604  11.740  23.196  0.00  0.00    +0.000 NA
ATOM      4  N   UNL     1      -0.771  12.198  21.923  0.00  0.00    +0.000 N 
ATOM      5  C   UNL     1      -1.317  13.492  21.662  0.00  0.00    +0.000 A 
ATOM      6  N   UNL     1      -1.556  13.897  20.413  0.00  0.00    +0.000 NA
ATOM      7  O   UNL     1      -2.146  15.145  20.546  0.00  0.00    +0.000 OA
ATOM      8  N   UNL     1      -2.246  15.507  21.880  0.00  0.00    +0.000 NA
ATOM      9  C   UNL     1      -1.731  14.490  22.568  0.00  0.00    +0.000 A 
ATOM     10  N   UNL     1      -1.642  14.481  23.912  0.00  0.00    +0.000 N 
ATOM     11  C   UNL     1      -0.351  11.191  21.027  0.00  0.00    +0.000 A 
ATOM     12  H   UNL     1      -1.848  15.340  24.411  0.00  0.00    +0.000 HD
ATOM     13  H   UNL     1      -1.032  13.836  24.404  0.00  0.00    +0.000 HD
ENDROOT
BRANCH   1  15
ATOM     14  N   UNL     1       1.440   8.408  21.177  0.00  0.00    +0.000 N 
ATOM     15  C   UNL     1       0.107   8.674  21.497  0.00  0.00    +0.000 C 
ATOM     16  O   UNL     1      -0.756   7.804  21.518  0.00  0.00    +0.000 OA
ATOM     17  H   UNL     1       2.134   9.147  21.223  0.00  0.00    +0.000 HD
BRANCH  14  19
ATOM     18  C   UNL     1       2.260   6.990  19.602  0.00  0.00    +0.000 C 
ATOM     19  N   UNL     1       1.777   7.140  20.788  0.00  0.00    +0.000 NA
BRANCH  18  24
ATOM     20  C   UNL     1       4.022   3.682  19.195  0.00  0.00    +0.000 A 
ATOM     21  C   UNL     1       3.362   3.159  18.078  0.00  0.00    +0.000 A 
ATOM     22  C   UNL     1       2.321   3.864  17.471  0.00  0.00    +0.000 A 
ATOM     23  C   UNL     1       1.945   5.111  17.967  0.00  0.00    +0.000 A 
ATOM     24  C   UNL     1       2.610   5.642  19.084  0.00  0.00    +0.000 A 
ATOM     25  C   UNL     1       3.632   4.922  19.702  0.00  0.00    +0.000 A 
BRANCH  20  27
ATOM     26  C   UNL     1       4.689   1.905  20.633  0.00  0.00    +0.000 C 
ATOM     27  O   UNL     1       5.035   2.898  19.676  0.00  0.00    +0.000 OA
ENDBRANCH  20  27
ENDBRANCH  18  24
ENDBRANCH  14  19
ENDBRANCH   1  15
BRANCH  11  28
ATOM     28  C   UNL     1      -0.223  11.441  19.538  0.00  0.00    +0.000 C 
ATOM     29  C   UNL     1       1.181  11.287  18.954  0.00  0.00    +0.000 C 
ATOM     30  C   UNL     1      -1.233  10.625  18.728  0.00  0.00    +0.000 C 
ENDBRANCH  11  28
TORSDOF 5
ENDMDL
MODEL 6
REMARK VINA RESULT:      -7.5      0.947      1.033
REMARK  Name = 
REMARK  8 active torsions:
REMARK  status: ('A' for Active; 'I' for Inactive)
REMARK    1  A    between atoms: C_1  and  O_2
REMARK    2  A    between atoms: O_2  and  C_3
REMARK    3  A    between atoms: C_7  and  C_8
REMARK    4  A    between atoms: N_9  and  N_10
REMARK    5  A    between atoms: C_11  and  C_13
REMARK    6  A    between atoms: C_23  and  C_24
REMARK    7  A    between atoms: C_24  and  C_25
REMARK    8  A    between atoms: C_24  and  C_26
REMARK                            x       y       z     vdW  Elec       q    Type
REMARK                         _______ _______ _______ _____ _____    ______ ____
ROOT
ATOM      1  C   UNL     1       6.162   5.955  18.102  0.00  0.00    +0.000 A 
ATOM      2  N   UNL     1       6.929   4.899  18.531  0.00  0.00    +0.000 NA
ATOM      3  N   UNL     1       6.128   3.937  18.952  0.00  0.00    +0.000 NA
ATOM      4  N   UNL     1       4.833   4.305  18.736  0.00  0.00    +0.000 N 
ATOM      5  C   UNL     1       3.758   3.380  18.897  0.00  0.00    +0.000 A 
ATOM      6  N   UNL     1       2.503   3.725  18.601  0.00  0.00    +0.000 NA
ATOM      7  O   UNL     1       1.756   2.575  18.802  0.00  0.00    +0.000 OA
ATOM      8  N   UNL     1       2.556   1.533  19.243  0.00  0.00    +0.000 NA
ATOM      9  C   UNL     1       3.790   2.031  19.306  0.00  0.00    +0.000 A 
ATOM     10  N   UNL     1       4.854   1.310  19.711  0.00  0.00    +0.000 N 
ATOM     11  C   UNL     1       4.815   5.658  18.330  0.00  0.00    +0.000 A 
ATOM     12  H   UNL     1       4.686   0.394  20.115  0.00  0.00    +0.000 HD
ATOM     13  H   UNL     1       5.722   1.751  19.996  0.00  0.00    +0.000 HD
ENDROOT
BRANCH   1  15
ATOM     14  N   UNL     1       7.775   7.733  18.303  0.00  0.00    +0.000 N 
ATOM     15  C   UNL     1       6.787   7.144  17.511  0.00  0.00    +0.000 C 
ATOM     16  O   UNL     1       6.489   7.566  16.399  0.00  0.00    +0.000 OA
ATOM     17  H   UNL     1       8.028   7.321  19.195  0.00  0.00    +0.000 HD
BRANCH  14  19
ATOM     18  C   UNL     1       8.794   9.717  18.738  0.00  0.00    +0.000 C 
ATOM     19  N   UNL     1       8.374   8.878  17.854  0.00  0.00    +0.000 NA
BRANCH  18  24
ATOM     20  C   UNL     1       9.175  13.369  17.882  0.00  0.00    +0.000 A 
ATOM     21  C   UNL     1      10.517  13.416  17.490  0.00  0.00    +0.000 A 
ATOM     22  C   UNL     1      11.312  12.269  17.530  0.00  0.00    +0.000 A 
ATOM     23  C   UNL     1      10.764  11.058  17.947  0.00  0.00    +0.000 A 
ATOM     24  C   UNL     1       9.415  11.006  18.336  0.00  0.00    +0.000 A 
ATOM     25  C   UNL     1       8.632  12.159  18.317  0.00  0.00    +0.000 A 
BRANCH  20  27
ATOM     26  C   UNL     1       9.271  15.748  17.925  0.00  0.00    +0.000 C 
ATOM     27  O   UNL     1       8.508  14.558  17.773  0.00  0.00    +0.000 OA
ENDBRANCH  20  27
ENDBRANCH  18  24
ENDBRANCH  14  19
ENDBRANCH   1  15
BRANCH  11  28
ATOM     28  C   UNL     1       3.525   6.439  18.190  0.00  0.00    +0.000 C 
ATOM     29  C   UNL     1       2.884   6.906  19.497  0.00  0.00    +0.000 C 
ATOM     30  C   UNL     1       3.661   7.608  17.213  0.00  0.00    +0.000 C 
ENDBRANCH  11  28
TORSDOF 5
ENDMDL
MODEL 7
REMARK VINA RESULT:      -7.5      6.649      9.417
REMARK  Name = 
REMARK  8 active torsions:
REMARK  status: ('A' for Active; 'I' for Inactive)
REMARK    1  A    between atoms: C_1  and  O_2
REMARK    2  A    between atoms: O_2  and  C_3
REMARK    3  A    between atoms: C_7  and  C_8
REMARK    4  A    between atoms: N_9  and  N_10
REMARK    5  A    between atoms: C_11  and  C_13
REMARK    6  A    between atoms: C_23  and  C_24
REMARK    7  A    between atoms: C_24  and  C_25
REMARK    8  A    between atoms: C_24  and  C_26
REMARK                            x       y       z     vdW  Elec       q    Type
REMARK                         _______ _______ _______ _____ _____    ______ ____
ROOT
ATOM      1  C   UNL     1       0.106   9.986  18.150  0.00  0.00    +0.000 A 
ATOM      2  N   UNL     1      -0.856   9.599  17.248  0.00  0.00    +0.000 NA
ATOM      3  N   UNL     1      -2.019  10.087  17.636  0.00  0.00    +0.000 NA
ATOM      4  N   UNL     1      -1.835  10.862  18.743  0.00  0.00    +0.000 N 
ATOM      5  C   UNL     1      -2.881  11.686  19.259  0.00  0.00    +0.000 A 
ATOM      6  N   UNL     1      -2.665  12.506  20.290  0.00  0.00    +0.000 NA
ATOM      7  O   UNL     1      -3.858  13.191  20.461  0.00  0.00    +0.000 OA
ATOM      8  N   UNL     1      -4.808  12.771  19.544  0.00  0.00    +0.000 NA
ATOM      9  C   UNL     1      -4.208  11.839  18.806  0.00  0.00    +0.000 A 
ATOM     10  N   UNL     1      -4.826  11.182  17.806  0.00  0.00    +0.000 N 
ATOM     11  C   UNL     1      -0.505  10.697  19.186  0.00  0.00    +0.000 A 
ATOM     12  H   UNL     1      -5.828  11.302  17.702  0.00  0.00    +0.000 HD
ATOM     13  H   UNL     1      -4.456  10.317  17.424  0.00  0.00    +0.000 HD
ENDROOT
BRANCH   1  15
ATOM     14  N   UNL     1       1.797   8.278  17.981  0.00  0.00    +0.000 N 
ATOM     15  C   UNL     1       1.517   9.645  17.933  0.00  0.00    +0.000 C 
ATOM     16  O   UNL     1       2.374  10.490  17.696  0.00  0.00    +0.000 OA
ATOM     17  H   UNL     1       1.049   7.608  18.128  0.00  0.00    +0.000 HD
BRANCH  14  19
ATOM     18  C   UNL     1       3.343   6.613  17.955  0.00  0.00    +0.000 C 
ATOM     19  N   UNL     1       3.096   7.873  17.843  0.00  0.00    +0.000 NA
BRANCH  18  24
ATOM     20  C   UNL     1       6.665   5.575  16.505  0.00  0.00    +0.000 A 
ATOM     21  C   UNL     1       7.295   5.037  17.632  0.00  0.00    +0.000 A 
ATOM     22  C   UNL     1       6.657   5.036  18.874  0.00  0.00    +0.000 A 
ATOM     23  C   UNL     1       5.371   5.558  18.994  0.00  0.00    +0.000 A 
ATOM     24  C   UNL     1       4.732   6.094  17.863  0.00  0.00    +0.000 A 
ATOM     25  C   UNL     1       5.384   6.115  16.631  0.00  0.00    +0.000 A 
BRANCH  20  27
ATOM     26  C   UNL     1       6.793   4.821  14.250  0.00  0.00    +0.000 C 
ATOM     27  O   UNL     1       7.393   5.491  15.351  0.00  0.00    +0.000 OA
ENDBRANCH  20  27
ENDBRANCH  18  24
ENDBRANCH  14  19
ENDBRANCH   1  15
BRANCH  11  28
ATOM     28  C   UNL     1      -0.019  11.267  20.503  0.00  0.00    +0.000 C 
ATOM     29  C   UNL     1       0.498  10.250  21.520  0.00  0.00    +0.000 C 
ATOM     30  C   UNL     1       0.999  12.392  20.305  0.00  0.00    +0.000 C 
ENDBRANCH  11  28
TORSDOF 5
ENDMDL
MODEL 8
REMARK VINA RESULT:      -7.4      7.314     10.568
REMARK  Name = 
REMARK  8 active torsions:
REMARK  status: ('A' for Active; 'I' for Inactive)
REMARK    1  A    between atoms: C_1  and  O_2
REMARK    2  A    between atoms: O_2  and  C_3
REMARK    3  A    between atoms: C_7  and  C_8
REMARK    4  A    between atoms: N_9  and  N_10
REMARK    5  A    between atoms: C_11  and  C_13
REMARK    6  A    between atoms: C_23  and  C_24
REMARK    7  A    between atoms: C_24  and  C_25
REMARK    8  A    between atoms: C_24  and  C_26
REMARK                            x       y       z     vdW  Elec       q    Type
REMARK                         _______ _______ _______ _____ _____    ______ ____
ROOT
ATOM      1  C   UNL     1      -0.122  10.114  21.720  0.00  0.00    +0.000 A 
ATOM      2  N   UNL     1      -0.200  10.443  23.052  0.00  0.00    +0.000 NA
ATOM      3  N   UNL     1      -0.574  11.705  23.154  0.00  0.00    +0.000 NA
ATOM      4  N   UNL     1      -0.825  12.202  21.910  0.00  0.00    +0.000 N 
ATOM      5  C   UNL     1      -1.446  13.474  21.726  0.00  0.00    +0.000 A 
ATOM      6  N   UNL     1      -1.766  13.913  20.506  0.00  0.00    +0.000 NA
ATOM      7  O   UNL     1      -2.409  15.123  20.717  0.00  0.00    +0.000 OA
ATOM      8  N   UNL     1      -2.462  15.430  22.067  0.00  0.00    +0.000 NA
ATOM      9  C   UNL     1      -1.864  14.415  22.689  0.00  0.00    +0.000 A 
ATOM     10  N   UNL     1      -1.709  14.362  24.026  0.00  0.00    +0.000 N 
ATOM     11  C   UNL     1      -0.400  11.251  20.956  0.00  0.00    +0.000 A 
ATOM     12  H   UNL     1      -1.933  15.190  24.568  0.00  0.00    +0.000 HD
ATOM     13  H   UNL     1      -1.045  13.730  24.464  0.00  0.00    +0.000 HD
ENDROOT
BRANCH   1  15
ATOM     14  N   UNL     1       1.435   8.614  20.658  0.00  0.00    +0.000 N 
ATOM     15  C   UNL     1       0.204   8.746  21.305  0.00  0.00    +0.000 C 
ATOM     16  O   UNL     1      -0.529   7.790  21.536  0.00  0.00    +0.000 OA
ATOM     17  H   UNL     1       2.035   9.422  20.532  0.00  0.00    +0.000 HD
BRANCH  14  19
ATOM     18  C   UNL     1       2.427   7.333  19.064  0.00  0.00    +0.000 C 
ATOM     19  N   UNL     1       1.796   7.381  20.187  0.00  0.00    +0.000 NA
BRANCH  18  24
ATOM     20  C   UNL     1       4.528   4.633  17.480  0.00  0.00    +0.000 A 
ATOM     21  C   UNL     1       3.563   3.650  17.234  0.00  0.00    +0.000 A 
ATOM     22  C   UNL     1       2.233   3.846  17.609  0.00  0.00    +0.000 A 
ATOM     23  C   UNL     1       1.852   5.040  18.217  0.00  0.00    +0.000 A 
ATOM     24  C   UNL     1       2.816   6.032  18.461  0.00  0.00    +0.000 A 
ATOM     25  C   UNL     1       4.148   5.821  18.107  0.00  0.00    +0.000 A 
BRANCH  20  27
ATOM     26  C   UNL     1       6.878   4.760  17.838  0.00  0.00    +0.000 C 
ATOM     27  O   UNL     1       5.785   4.319  17.043  0.00  0.00    +0.000 OA
ENDBRANCH  20  27
ENDBRANCH  18  24
ENDBRANCH  14  19
ENDBRANCH   1  15
BRANCH  11  28
ATOM     28  C   UNL     1      -0.358  11.562  19.474  0.00  0.00    +0.000 C 
ATOM     29  C   UNL     1       1.036  11.692  18.859  0.00  0.00    +0.000 C 
ATOM     30  C   UNL     1      -1.215  10.593  18.657  0.00  0.00    +0.000 C 
ENDBRANCH  11  28
TORSDOF 5
ENDMDL
MODEL 9
REMARK VINA RESULT:      -7.4      1.737      2.235
REMARK  Name = 
REMARK  8 active torsions:
REMARK  status: ('A' for Active; 'I' for Inactive)
REMARK    1  A    between atoms: C_1  and  O_2
REMARK    2  A    between atoms: O_2  and  C_3
REMARK    3  A    between atoms: C_7  and  C_8
REMARK    4  A    between atoms: N_9  and  N_10
REMARK    5  A    between atoms: C_11  and  C_13
REMARK    6  A    between atoms: C_23  and  C_24
REMARK    7  A    between atoms: C_24  and  C_25
REMARK    8  A    between atoms: C_24  and  C_26
REMARK                            x       y       z     vdW  Elec       q    Type
REMARK                         _______ _______ _______ _____ _____    ______ ____
ROOT
ATOM      1  C   UNL     1       5.379   5.757  17.543  0.00  0.00    +0.000 A 
ATOM      2  N   UNL     1       6.060   4.566  17.603  0.00  0.00    +0.000 NA
ATOM      3  N   UNL     1       5.223   3.619  17.985  0.00  0.00    +0.000 NA
ATOM      4  N   UNL     1       3.972   4.146  18.104  0.00  0.00    +0.000 N 
ATOM      5  C   UNL     1       2.827   3.315  18.297  0.00  0.00    +0.000 A 
ATOM      6  N   UNL     1       1.598   3.834  18.326  0.00  0.00    +0.000 NA
ATOM      7  O   UNL     1       0.749   2.745  18.449  0.00  0.00    +0.000 OA
ATOM      8  N   UNL     1       1.467   1.561  18.517  0.00  0.00    +0.000 NA
ATOM      9  C   UNL     1       2.749   1.913  18.428  0.00  0.00    +0.000 A 
ATOM     10  N   UNL     1       3.760   1.024  18.469  0.00  0.00    +0.000 N 
ATOM     11  C   UNL     1       4.065   5.549  17.973  0.00  0.00    +0.000 A 
ATOM     12  H   UNL     1       3.545   0.065  18.718  0.00  0.00    +0.000 HD
ATOM     13  H   UNL     1       4.717   1.310  18.655  0.00  0.00    +0.000 HD
ENDROOT
BRANCH   1  15
ATOM     14  N   UNL     1       7.128   7.383  17.859  0.00  0.00    +0.000 N 
ATOM     15  C   UNL     1       6.045   6.978  17.077  0.00  0.00    +0.000 C 
ATOM     16  O   UNL     1       5.699   7.577  16.064  0.00  0.00    +0.000 OA
ATOM     17  H   UNL     1       7.415   6.830  18.661  0.00  0.00    +0.000 HD
BRANCH  14  19
ATOM     18  C   UNL     1       8.234   9.265  18.492  0.00  0.00    +0.000 C 
ATOM     19  N   UNL     1       7.775   8.542  17.529  0.00  0.00    +0.000 NA
BRANCH  18  24
ATOM     20  C   UNL     1      10.865  11.965  18.455  0.00  0.00    +0.000 A 
ATOM     21  C   UNL     1      10.173  13.007  17.828  0.00  0.00    +0.000 A 
ATOM     22  C   UNL     1       8.860  12.829  17.388  0.00  0.00    +0.000 A 
ATOM     23  C   UNL     1       8.221  11.608  17.589  0.00  0.00    +0.000 A 
ATOM     24  C   UNL     1       8.910  10.560  18.223  0.00  0.00    +0.000 A 
ATOM     25  C   UNL     1      10.229  10.736  18.639  0.00  0.00    +0.000 A 
BRANCH  20  27
ATOM     26  C   UNL     1      12.331  13.564  19.435  0.00  0.00    +0.000 C 
ATOM     27  O   UNL     1      12.134  12.282  18.854  0.00  0.00    +0.000 OA
ENDBRANCH  20  27
ENDBRANCH  18  24
ENDBRANCH  14  19
ENDBRANCH   1  15
BRANCH  11  28
ATOM     28  C   UNL     1       2.887   6.463  18.243  0.00  0.00    +0.000 C 
ATOM     29  C   UNL     1       2.579   6.737  19.715  0.00  0.00    +0.000 C 
ATOM     30  C   UNL     1       2.984   7.775  17.464  0.00  0.00    +0.000 C 
ENDBRANCH  11  28
TORSDOF 5
ENDMDL
