MODEL 1
REMARK VINA RESULT:      -7.6      0.000      0.000
REMARK  Name = 
REMARK  5 active torsions:
REMARK  status: ('A' for Active; 'I' for Inactive)
REMARK    1  A    between atoms: C_1  and  C_2
REMARK    2  A    between atoms: C_2  and  O_3
REMARK    3  A    between atoms: O_3  and  C_4
REMARK    4  A    between atoms: C_7  and  N_8
REMARK    5  A    between atoms: C_11  and  C_12
REMARK                            x       y       z     vdW  Elec       q    Type
REMARK                         _______ _______ _______ _____ _____    ______ ____
ROOT
ATOM      1  N   UNL     1       5.797   6.450  17.281  0.00  0.00    +0.000 N 
ATOM      2  C   UNL     1       6.172   5.859  16.132  0.00  0.00    +0.000 A 
ATOM      3  N   UNL     1       5.508   5.121  15.277  0.00  0.00    +0.000 NA
ATOM      4  C   UNL     1       6.463   4.762  14.356  0.00  0.00    +0.000 A 
ATOM      5  N   UNL     1       7.683   5.259  14.621  0.00  0.00    +0.000 NA
ATOM      6  O   UNL     1       7.488   5.999  15.786  0.00  0.00    +0.000 OA
ATOM      7  H   UNL     1       6.524   6.929  17.795  0.00  0.00    +0.000 HD
ENDROOT
BRANCH   1  11
ATOM      8  C   UNL     1       2.437   5.268  19.568  0.00  0.00    +0.000 A 
ATOM      9  C   UNL     1       3.653   4.595  19.669  0.00  0.00    +0.000 A 
ATOM     10  C   UNL     1       4.761   5.020  18.933  0.00  0.00    +0.000 A 
ATOM     11  C   UNL     1       4.671   6.107  18.054  0.00  0.00    +0.000 A 
ATOM     12  C   UNL     1       3.443   6.776  17.971  0.00  0.00    +0.000 A 
ATOM     13  C   UNL     1       2.330   6.354  18.705  0.00  0.00    +0.000 A 
BRANCH   8  14
ATOM     14  O   UNL     1       1.429   4.773  20.342  0.00  0.00    +0.000 OA
BRANCH  14  16
ATOM     15  C   UNL     1       1.416   2.762  21.604  0.00  0.00    +0.000 C 
ATOM     16  C   UNL     1       1.190   3.369  20.234  0.00  0.00    +0.000 C 
ENDBRANCH  14  16
ENDBRANCH   8  14
ENDBRANCH   1  11
BRANCH   4  17
ATOM     17  C   UNL     1       6.140   3.934  13.204  0.00  0.00    +0.000 A 
ATOM     18  C   UNL     1       7.159   3.256  12.515  0.00  0.00    +0.000 A 
ATOM     19  C   UNL     1       6.862   2.437  11.425  0.00  0.00    +0.000 A 
ATOM     20  C   UNL     1       5.539   2.290  11.007  0.00  0.00    +0.000 A 
ATOM     21  C   UNL     1       4.519   2.967  11.672  0.00  0.00    +0.000 A 
ATOM     22  C   UNL     1       4.818   3.787  12.764  0.00  0.00    +0.000 A 
ENDBRANCH   4  17
TORSDOF 4
ENDMDL
MODEL 2
REMARK VINA RESULT:      -7.5      0.338      1.180
REMARK  Name = 
REMARK  5 active torsions:
REMARK  status: ('A' for Active; 'I' for Inactive)
REMARK    1  A    between atoms: C_1  and  C_2
REMARK    2  A    between atoms: C_2  and  O_3
REMARK    3  A    between atoms: O_3  and  C_4
REMARK    4  A    between atoms: C_7  and  N_8
REMARK    5  A    between atoms: C_11  and  C_12
REMARK                            x       y       z     vdW  Elec       q    Type
REMARK                         _______ _______ _______ _____ _____    ______ ____
ROOT
ATOM      1  N   UNL     1       5.779   6.313  17.276  0.00  0.00    +0.000 N 
ATOM      2  C   UNL     1       6.155   5.778  16.099  0.00  0.00    +0.000 A 
ATOM      3  N   UNL     1       5.534   4.974  15.273  0.00  0.00    +0.000 NA
ATOM      4  C   UNL     1       6.469   4.736  14.295  0.00  0.00    +0.000 A 
ATOM      5  N   UNL     1       7.636   5.372  14.497  0.00  0.00    +0.000 NA
ATOM      6  O   UNL     1       7.423   6.076  15.681  0.00  0.00    +0.000 OA
ATOM      7  H   UNL     1       6.474   6.872  17.754  0.00  0.00    +0.000 HD
ENDROOT
BRANCH   1  11
ATOM      8  C   UNL     1       2.644   5.022  19.808  0.00  0.00    +0.000 A 
ATOM      9  C   UNL     1       2.468   6.086  18.926  0.00  0.00    +0.000 A 
ATOM     10  C   UNL     1       3.502   6.477  18.073  0.00  0.00    +0.000 A 
ATOM     11  C   UNL     1       4.747   5.834  18.106  0.00  0.00    +0.000 A 
ATOM     12  C   UNL     1       4.903   4.762  18.993  0.00  0.00    +0.000 A 
ATOM     13  C   UNL     1       3.871   4.368  19.850  0.00  0.00    +0.000 A 
BRANCH   8  14
ATOM     14  O   UNL     1       1.562   4.721  20.583  0.00  0.00    +0.000 OA
BRANCH  14  16
ATOM     15  C   UNL     1       0.756   2.776  19.486  0.00  0.00    +0.000 C 
ATOM     16  C   UNL     1       1.305   3.330  20.785  0.00  0.00    +0.000 C 
ENDBRANCH  14  16
ENDBRANCH   8  14
ENDBRANCH   1  11
BRANCH   4  17
ATOM     17  C   UNL     1       6.181   3.884  13.151  0.00  0.00    +0.000 A 
ATOM     18  C   UNL     1       7.223   3.215  12.489  0.00  0.00    +0.000 A 
ATOM     19  C   UNL     1       6.958   2.373  11.408  0.00  0.00    +0.000 A 
ATOM     20  C   UNL     1       5.645   2.195  10.972  0.00  0.00    +0.000 A 
ATOM     21  C   UNL     1       4.602   2.862  11.610  0.00  0.00    +0.000 A 
ATOM     22  C   UNL     1       4.869   3.705  12.693  0.00  0.00    +0.000 A 
ENDBRANCH   4  17
TORSDOF 4
ENDMDL
MODEL 3
REMARK VINA RESULT:      -7.4      0.490      1.257
REMARK  Name = 
REMARK  5 active torsions:
REMARK  status: ('A' for Active; 'I' for Inactive)
REMARK    1  A    between atoms: C_1  and  C_2
REMARK    2  A    between atoms: C_2  and  O_3
REMARK    3  A    between atoms: O_3  and  C_4
REMARK    4  A    between atoms: C_7  and  N_8
REMARK    5  A    between atoms: C_11  and  C_12
REMARK                            x       y       z     vdW  Elec       q    Type
REMARK                         _______ _______ _______ _____ _____    ______ ____
ROOT
ATOM      1  N   UNL     1       5.827   6.293  17.278  0.00  0.00    +0.000 N 
ATOM      2  C   UNL     1       6.182   5.752  16.098  0.00  0.00    +0.000 A 
ATOM      3  N   UNL     1       5.542   4.952  15.282  0.00  0.00    +0.000 NA
ATOM      4  C   UNL     1       6.462   4.703  14.292  0.00  0.00    +0.000 A 
ATOM      5  N   UNL     1       7.638   5.327  14.478  0.00  0.00    +0.000 NA
ATOM      6  O   UNL     1       7.448   6.035  15.664  0.00  0.00    +0.000 OA
ATOM      7  H   UNL     1       6.533   6.845  17.746  0.00  0.00    +0.000 HD
ENDROOT
BRANCH   1  11
ATOM      8  C   UNL     1       2.771   4.746  19.763  0.00  0.00    +0.000 A 
ATOM      9  C   UNL     1       4.016   4.127  19.679  0.00  0.00    +0.000 A 
ATOM     10  C   UNL     1       5.025   4.670  18.880  0.00  0.00    +0.000 A 
ATOM     11  C   UNL     1       4.801   5.827  18.122  0.00  0.00    +0.000 A 
ATOM     12  C   UNL     1       3.546   6.440  18.225  0.00  0.00    +0.000 A 
ATOM     13  C   UNL     1       2.532   5.899  19.022  0.00  0.00    +0.000 A 
BRANCH   8  14
ATOM     14  O   UNL     1       1.868   4.134  20.583  0.00  0.00    +0.000 OA
BRANCH  14  16
ATOM     15  C   UNL     1       0.763   2.675  19.069  0.00  0.00    +0.000 C 
ATOM     16  C   UNL     1       1.620   2.752  20.318  0.00  0.00    +0.000 C 
ENDBRANCH  14  16
ENDBRANCH   8  14
ENDBRANCH   1  11
BRANCH   4  17
ATOM     17  C   UNL     1       6.151   3.851  13.154  0.00  0.00    +0.000 A 
ATOM     18  C   UNL     1       4.828   3.745  12.693  0.00  0.00    +0.000 A 
ATOM     19  C   UNL     1       4.519   2.954  11.586  0.00  0.00    +0.000 A 
ATOM     20  C   UNL     1       5.530   2.253  10.929  0.00  0.00    +0.000 A 
ATOM     21  C   UNL     1       6.845   2.338  11.383  0.00  0.00    +0.000 A 
ATOM     22  C   UNL     1       7.153   3.131  12.491  0.00  0.00    +0.000 A 
ENDBRANCH   4  17
TORSDOF 4
ENDMDL
MODEL 4
REMARK VINA RESULT:      -7.4      0.362      1.586
REMARK  Name = 
REMARK  5 active torsions:
REMARK  status: ('A' for Active; 'I' for Inactive)
REMARK    1  A    between atoms: C_1  and  C_2
REMARK    2  A    between atoms: C_2  and  O_3
REMARK    3  A    between atoms: O_3  and  C_4
REMARK    4  A    between atoms: C_7  and  N_8
REMARK    5  A    between atoms: C_11  and  C_12
REMARK                            x       y       z     vdW  Elec       q    Type
REMARK                         _______ _______ _______ _____ _____    ______ ____
ROOT
ATOM      1  N   UNL     1       5.801   6.296  17.306  0.00  0.00    +0.000 N 
ATOM      2  C   UNL     1       6.147   5.753  16.125  0.00  0.00    +0.000 A 
ATOM      3  N   UNL     1       5.503   4.949  15.316  0.00  0.00    +0.000 NA
ATOM      4  C   UNL     1       6.416   4.699  14.320  0.00  0.00    +0.000 A 
ATOM      5  N   UNL     1       7.592   5.326  14.495  0.00  0.00    +0.000 NA
ATOM      6  O   UNL     1       7.409   6.037  15.680  0.00  0.00    +0.000 OA
ATOM      7  H   UNL     1       6.509   6.851  17.767  0.00  0.00    +0.000 HD
ENDROOT
BRANCH   1  11
ATOM      8  C   UNL     1       2.711   5.044  19.913  0.00  0.00    +0.000 A 
ATOM      9  C   UNL     1       2.543   6.137  19.067  0.00  0.00    +0.000 A 
ATOM     10  C   UNL     1       3.560   6.516  18.188  0.00  0.00    +0.000 A 
ATOM     11  C   UNL     1       4.782   5.830  18.159  0.00  0.00    +0.000 A 
ATOM     12  C   UNL     1       4.930   4.729  19.012  0.00  0.00    +0.000 A 
ATOM     13  C   UNL     1       3.914   4.347  19.894  0.00  0.00    +0.000 A 
BRANCH   8  14
ATOM     14  O   UNL     1       1.646   4.758  20.718  0.00  0.00    +0.000 OA
BRANCH  14  16
ATOM     15  C   UNL     1       0.706   2.922  19.543  0.00  0.00    +0.000 C 
ATOM     16  C   UNL     1       1.319   3.375  20.854  0.00  0.00    +0.000 C 
ENDBRANCH  14  16
ENDBRANCH   8  14
ENDBRANCH   1  11
BRANCH   4  17
ATOM     17  C   UNL     1       6.097   3.844  13.186  0.00  0.00    +0.000 A 
ATOM     18  C   UNL     1       4.777   3.765  12.710  0.00  0.00    +0.000 A 
ATOM     19  C   UNL     1       4.463   2.971  11.607  0.00  0.00    +0.000 A 
ATOM     20  C   UNL     1       5.464   2.240  10.969  0.00  0.00    +0.000 A 
ATOM     21  C   UNL     1       6.775   2.298  11.437  0.00  0.00    +0.000 A 
ATOM     22  C   UNL     1       7.090   3.094  12.542  0.00  0.00    +0.000 A 
ENDBRANCH   4  17
TORSDOF 4
ENDMDL
MODEL 5
REMARK VINA RESULT:      -7.1      2.073      7.336
REMARK  Name = 
REMARK  5 active torsions:
REMARK  status: ('A' for Active; 'I' for Inactive)
REMARK    1  A    between atoms: C_1  and  C_2
REMARK    2  A    between atoms: C_2  and  O_3
REMARK    3  A    between atoms: O_3  and  C_4
REMARK    4  A    between atoms: C_7  and  N_8
REMARK    5  A    between atoms: C_11  and  C_12
REMARK                            x       y       z     vdW  Elec       q    Type
REMARK                         _______ _______ _______ _____ _____    ______ ____
ROOT
ATOM      1  N   UNL     1       7.436   4.672  16.320  0.00  0.00    +0.000 N 
ATOM      2  C   UNL     1       6.691   4.689  17.440  0.00  0.00    +0.000 A 
ATOM      3  N   UNL     1       5.488   4.234  17.690  0.00  0.00    +0.000 NA
ATOM      4  C   UNL     1       5.264   4.623  18.989  0.00  0.00    +0.000 A 
ATOM      5  N   UNL     1       6.291   5.295  19.537  0.00  0.00    +0.000 NA
ATOM      6  O   UNL     1       7.243   5.324  18.519  0.00  0.00    +0.000 OA
ATOM      7  H   UNL     1       8.328   5.145  16.370  0.00  0.00    +0.000 HD
ENDROOT
BRANCH   1  11
ATOM      8  C   UNL     1       5.935   3.965  12.426  0.00  0.00    +0.000 A 
ATOM      9  C   UNL     1       5.215   3.588  13.557  0.00  0.00    +0.000 A 
ATOM     10  C   UNL     1       5.709   3.860  14.835  0.00  0.00    +0.000 A 
ATOM     11  C   UNL     1       6.951   4.486  15.011  0.00  0.00    +0.000 A 
ATOM     12  C   UNL     1       7.657   4.864  13.862  0.00  0.00    +0.000 A 
ATOM     13  C   UNL     1       7.166   4.593  12.581  0.00  0.00    +0.000 A 
BRANCH   8  14
ATOM     14  O   UNL     1       5.349   3.660  11.232  0.00  0.00    +0.000 OA
BRANCH  14  16
ATOM     15  C   UNL     1       3.270   3.671  10.085  0.00  0.00    +0.000 C 
ATOM     16  C   UNL     1       4.014   3.157  11.302  0.00  0.00    +0.000 C 
ENDBRANCH  14  16
ENDBRANCH   8  14
ENDBRANCH   1  11
BRANCH   4  17
ATOM     17  C   UNL     1       4.025   4.301  19.681  0.00  0.00    +0.000 A 
ATOM     18  C   UNL     1       3.775   2.987  20.109  0.00  0.00    +0.000 A 
ATOM     19  C   UNL     1       2.603   2.671  20.798  0.00  0.00    +0.000 A 
ATOM     20  C   UNL     1       1.663   3.666  21.062  0.00  0.00    +0.000 A 
ATOM     21  C   UNL     1       1.891   4.972  20.632  0.00  0.00    +0.000 A 
ATOM     22  C   UNL     1       3.065   5.288  19.943  0.00  0.00    +0.000 A 
ENDBRANCH   4  17
TORSDOF 4
ENDMDL
MODEL 6
REMARK VINA RESULT:      -7.1      4.659      8.512
REMARK  Name = 
REMARK  5 active torsions:
REMARK  status: ('A' for Active; 'I' for Inactive)
REMARK    1  A    between atoms: C_1  and  C_2
REMARK    2  A    between atoms: C_2  and  O_3
REMARK    3  A    between atoms: O_3  and  C_4
REMARK    4  A    between atoms: C_7  and  N_8
REMARK    5  A    between atoms: C_11  and  C_12
REMARK                            x       y       z     vdW  Elec       q    Type
REMARK                         _______ _______ _______ _____ _____    ______ ____
ROOT
ATOM      1  N   UNL     1       2.958   7.581  17.649  0.00  0.00    +0.000 N 
ATOM      2  C   UNL     1       2.197   8.477  18.304  0.00  0.00    +0.000 A 
ATOM      3  N   UNL     1       1.737   8.495  19.531  0.00  0.00    +0.000 NA
ATOM      4  C   UNL     1       0.970   9.635  19.567  0.00  0.00    +0.000 A 
ATOM      5  N   UNL     1       0.950  10.311  18.405  0.00  0.00    +0.000 NA
ATOM      6  O   UNL     1       1.776   9.555  17.574  0.00  0.00    +0.000 OA
ATOM      7  H   UNL     1       3.136   7.775  16.673  0.00  0.00    +0.000 HD
ENDROOT
BRANCH   1  11
ATOM      8  C   UNL     1       3.657   3.537  18.681  0.00  0.00    +0.000 A 
ATOM      9  C   UNL     1       4.652   4.501  18.827  0.00  0.00    +0.000 A 
ATOM     10  C   UNL     1       4.394   5.838  18.514  0.00  0.00    +0.000 A 
ATOM     11  C   UNL     1       3.145   6.235  18.017  0.00  0.00    +0.000 A 
ATOM     12  C   UNL     1       2.155   5.253  17.885  0.00  0.00    +0.000 A 
ATOM     13  C   UNL     1       2.410   3.913  18.195  0.00  0.00    +0.000 A 
BRANCH   8  14
ATOM     14  O   UNL     1       4.019   2.268  19.029  0.00  0.00    +0.000 OA
BRANCH  14  16
ATOM     15  C   UNL     1       3.101   2.379  21.216  0.00  0.00    +0.000 C 
ATOM     16  C   UNL     1       4.343   2.066  20.406  0.00  0.00    +0.000 C 
ENDBRANCH  14  16
ENDBRANCH   8  14
ENDBRANCH   1  11
BRANCH   4  17
ATOM     17  C   UNL     1       0.272  10.049  20.775  0.00  0.00    +0.000 A 
ATOM     18  C   UNL     1      -0.481  11.234  20.784  0.00  0.00    +0.000 A 
ATOM     19  C   UNL     1      -1.178  11.629  21.927  0.00  0.00    +0.000 A 
ATOM     20  C   UNL     1      -1.125  10.844  23.079  0.00  0.00    +0.000 A 
ATOM     21  C   UNL     1      -0.372   9.672  23.089  0.00  0.00    +0.000 A 
ATOM     22  C   UNL     1       0.325   9.277  21.944  0.00  0.00    +0.000 A 
ENDBRANCH   4  17
TORSDOF 4
ENDMDL
MODEL 7
REMARK VINA RESULT:      -7.0      1.957      7.328
REMARK  Name = 
REMARK  5 active torsions:
REMARK  status: ('A' for Active; 'I' for Inactive)
REMARK    1  A    between atoms: C_1  and  C_2
REMARK    2  A    between atoms: C_2  and  O_3
REMARK    3  A    between atoms: O_3  and  C_4
REMARK    4  A    between atoms: C_7  and  N_8
REMARK    5  A    between atoms: C_11  and  C_12
REMARK                            x       y       z     vdW  Elec       q    Type
REMARK                         _______ _______ _______ _____ _____    ______ ____
ROOT
ATOM      1  N   UNL     1       7.325   5.200  15.580  0.00  0.00    +0.000 N 
ATOM      2  C   UNL     1       6.695   5.194  16.769  0.00  0.00    +0.000 A 
ATOM      3  N   UNL     1       5.685   4.489  17.214  0.00  0.00    +0.000 NA
ATOM      4  C   UNL     1       5.468   4.999  18.472  0.00  0.00    +0.000 A 
ATOM      5  N   UNL     1       6.314   5.989  18.806  0.00  0.00    +0.000 NA
ATOM      6  O   UNL     1       7.137   6.107  17.687  0.00  0.00    +0.000 OA
ATOM      7  H   UNL     1       8.055   5.889  15.465  0.00  0.00    +0.000 HD
ENDROOT
BRANCH   1  11
ATOM      8  C   UNL     1       5.707   3.567  12.027  0.00  0.00    +0.000 A 
ATOM      9  C   UNL     1       4.966   3.608  13.205  0.00  0.00    +0.000 A 
ATOM     10  C   UNL     1       5.502   4.181  14.360  0.00  0.00    +0.000 A 
ATOM     11  C   UNL     1       6.805   4.698  14.371  0.00  0.00    +0.000 A 
ATOM     12  C   UNL     1       7.532   4.655  13.175  0.00  0.00    +0.000 A 
ATOM     13  C   UNL     1       7.000   4.080  12.017  0.00  0.00    +0.000 A 
BRANCH   8  14
ATOM     14  O   UNL     1       5.077   2.995  10.960  0.00  0.00    +0.000 OA
BRANCH  14  16
ATOM     15  C   UNL     1       3.209   3.991   9.884  0.00  0.00    +0.000 C 
ATOM     16  C   UNL     1       3.649   3.040  10.979  0.00  0.00    +0.000 C 
ENDBRANCH  14  16
ENDBRANCH   8  14
ENDBRANCH   1  11
BRANCH   4  17
ATOM     17  C   UNL     1       4.422   4.478  19.339  0.00  0.00    +0.000 A 
ATOM     18  C   UNL     1       3.429   5.336  19.840  0.00  0.00    +0.000 A 
ATOM     19  C   UNL     1       2.404   4.845  20.650  0.00  0.00    +0.000 A 
ATOM     20  C   UNL     1       2.364   3.489  20.974  0.00  0.00    +0.000 A 
ATOM     21  C   UNL     1       3.349   2.629  20.495  0.00  0.00    +0.000 A 
ATOM     22  C   UNL     1       4.375   3.121  19.683  0.00  0.00    +0.000 A 
ENDBRANCH   4  17
TORSDOF 4
ENDMDL
MODEL 8
REMARK VINA RESULT:      -7.0      4.857      8.540
REMARK  Name = 
REMARK  5 active torsions:
REMARK  status: ('A' for Active; 'I' for Inactive)
REMARK    1  A    between atoms: C_1  and  C_2
REMARK    2  A    between atoms: C_2  and  O_3
REMARK    3  A    between atoms: O_3  and  C_4
REMARK    4  A    between atoms: C_7  and  N_8
REMARK    5  A    between atoms: C_11  and  C_12
REMARK                            x       y       z     vdW  Elec       q    Type
REMARK                         _______ _______ _______ _____ _____    ______ ____
ROOT
ATOM      1  N   UNL     1       2.944   7.660  17.780  0.00  0.00    +0.000 N 
ATOM      2  C   UNL     1       2.177   8.591  18.378  0.00  0.00    +0.000 A 
ATOM      3  N   UNL     1       1.642   8.640  19.572  0.00  0.00    +0.000 NA
ATOM      4  C   UNL     1       0.918   9.808  19.550  0.00  0.00    +0.000 A 
ATOM      5  N   UNL     1       0.997  10.470  18.383  0.00  0.00    +0.000 NA
ATOM      6  O   UNL     1       1.844   9.675  17.613  0.00  0.00    +0.000 OA
ATOM      7  H   UNL     1       3.190   7.836  16.816  0.00  0.00    +0.000 HD
ENDROOT
BRANCH   1  11
ATOM      8  C   UNL     1       3.133   3.616  19.013  0.00  0.00    +0.000 A 
ATOM      9  C   UNL     1       2.011   4.119  18.359  0.00  0.00    +0.000 A 
ATOM     10  C   UNL     1       1.979   5.448  17.928  0.00  0.00    +0.000 A 
ATOM     11  C   UNL     1       3.055   6.312  18.171  0.00  0.00    +0.000 A 
ATOM     12  C   UNL     1       4.177   5.785  18.823  0.00  0.00    +0.000 A 
ATOM     13  C   UNL     1       4.213   4.457  19.258  0.00  0.00    +0.000 A 
BRANCH   8  14
ATOM     14  O   UNL     1       3.057   2.302  19.376  0.00  0.00    +0.000 OA
BRANCH  14  16
ATOM     15  C   UNL     1       1.994   2.558  21.484  0.00  0.00    +0.000 C 
ATOM     16  C   UNL     1       1.892   1.924  20.111  0.00  0.00    +0.000 C 
ENDBRANCH  14  16
ENDBRANCH   8  14
ENDBRANCH   1  11
BRANCH   4  17
ATOM     17  C   UNL     1       0.161  10.261  20.707  0.00  0.00    +0.000 A 
ATOM     18  C   UNL     1       0.150   9.498  21.886  0.00  0.00    +0.000 A 
ATOM     19  C   UNL     1      -0.549   9.934  23.013  0.00  0.00    +0.000 A 
ATOM     20  C   UNL     1      -1.250  11.139  22.972  0.00  0.00    +0.000 A 
ATOM     21  C   UNL     1      -1.258  11.900  21.805  0.00  0.00    +0.000 A 
ATOM     22  C   UNL     1      -0.558  11.463  20.677  0.00  0.00    +0.000 A 
ENDBRANCH   4  17
TORSDOF 4
ENDMDL
MODEL 9
REMARK VINA RESULT:      -7.0      4.871      8.588
REMARK  Name = 
REMARK  5 active torsions:
REMARK  status: ('A' for Active; 'I' for Inactive)
REMARK    1  A    between atoms: C_1  and  C_2
REMARK    2  A    between atoms: C_2  and  O_3
REMARK    3  A    between atoms: O_3  and  C_4
REMARK    4  A    between atoms: C_7  and  N_8
REMARK    5  A    between atoms: C_11  and  C_12
REMARK                            x       y       z     vdW  Elec       q    Type
REMARK                         _______ _______ _______ _____ _____    ______ ____
ROOT
ATOM      1  N   UNL     1       2.907   7.669  17.778  0.00  0.00    +0.000 N 
ATOM      2  C   UNL     1       2.153   8.604  18.386  0.00  0.00    +0.000 A 
ATOM      3  N   UNL     1       1.643   8.660  19.591  0.00  0.00    +0.000 NA
ATOM      4  C   UNL     1       0.918   9.827  19.578  0.00  0.00    +0.000 A 
ATOM      5  N   UNL     1       0.974  10.484  18.406  0.00  0.00    +0.000 NA
ATOM      6  O   UNL     1       1.805   9.684  17.623  0.00  0.00    +0.000 OA
ATOM      7  H   UNL     1       3.133   7.840  16.808  0.00  0.00    +0.000 HD
ENDROOT
BRANCH   1  11
ATOM      8  C   UNL     1       3.117   3.630  19.024  0.00  0.00    +0.000 A 
ATOM      9  C   UNL     1       1.995   4.124  18.362  0.00  0.00    +0.000 A 
ATOM     10  C   UNL     1       1.956   5.451  17.928  0.00  0.00    +0.000 A 
ATOM     11  C   UNL     1       3.025   6.323  18.174  0.00  0.00    +0.000 A 
ATOM     12  C   UNL     1       4.147   5.806  18.834  0.00  0.00    +0.000 A 
ATOM     13  C   UNL     1       4.190   4.479  19.272  0.00  0.00    +0.000 A 
BRANCH   8  14
ATOM     14  O   UNL     1       3.048   2.317  19.391  0.00  0.00    +0.000 OA
BRANCH  14  16
ATOM     15  C   UNL     1       1.999   2.559  21.508  0.00  0.00    +0.000 C 
ATOM     16  C   UNL     1       1.887   1.935  20.131  0.00  0.00    +0.000 C 
ENDBRANCH  14  16
ENDBRANCH   8  14
ENDBRANCH   1  11
BRANCH   4  17
ATOM     17  C   UNL     1       0.186  10.287  20.748  0.00  0.00    +0.000 A 
ATOM     18  C   UNL     1      -0.524  11.499  20.706  0.00  0.00    +0.000 A 
ATOM     19  C   UNL     1      -1.253  11.938  21.812  0.00  0.00    +0.000 A 
ATOM     20  C   UNL     1      -1.275  11.173  22.978  0.00  0.00    +0.000 A 
ATOM     21  C   UNL     1      -0.565   9.976  23.039  0.00  0.00    +0.000 A 
ATOM     22  C   UNL     1       0.164   9.536  21.931  0.00  0.00    +0.000 A 
ENDBRANCH   4  17
TORSDOF 4
ENDMDL
