MODEL 1
REMARK VINA RESULT:      -8.4      0.000      0.000
REMARK  Name = 
REMARK  8 active torsions:
REMARK  status: ('A' for Active; 'I' for Inactive)
REMARK    1  A    between atoms: C_1  and  C_2
REMARK    2  A    between atoms: C_2  and  O_3
REMARK    3  A    between atoms: O_3  and  C_4
REMARK    4  A    between atoms: C_9  and  N_10
REMARK    5  A    between atoms: C_11  and  C_13
REMARK    6  A    between atoms: C_17  and  N_18
REMARK    7  A    between atoms: C_19  and  C_21
REMARK    8  A    between atoms: C_24  and  C_25
REMARK                            x       y       z     vdW  Elec       q    Type
REMARK                         _______ _______ _______ _____ _____    ______ ____
ROOT
ATOM      1  C   UNL     1       3.815   4.105  19.521  0.00  0.00    +0.000 A 
ATOM      2  C   UNL     1       3.548   2.904  20.199  0.00  0.00    +0.000 A 
ATOM      3  C   UNL     1       2.552   2.844  21.163  0.00  0.00    +0.000 A 
ATOM      4  C   UNL     1       1.821   3.989  21.464  0.00  0.00    +0.000 A 
ATOM      5  C   UNL     1       2.064   5.197  20.797  0.00  0.00    +0.000 A 
ATOM      6  C   UNL     1       3.049   5.246  19.797  0.00  0.00    +0.000 A 
ENDROOT
BRANCH   1   8
ATOM      7  N   UNL     1       4.631   4.797  17.294  0.00  0.00    +0.000 N 
ATOM      8  C   UNL     1       4.845   4.055  18.451  0.00  0.00    +0.000 C 
ATOM      9  O   UNL     1       5.843   3.383  18.699  0.00  0.00    +0.000 OA
ATOM     10  H   UNL     1       3.916   5.516  17.288  0.00  0.00    +0.000 HD
BRANCH   7  16
ATOM     11  C   UNL     1       6.734   5.469  16.197  0.00  0.00    +0.000 A 
ATOM     12  C   UNL     1       7.601   5.386  15.090  0.00  0.00    +0.000 A 
ATOM     13  C   UNL     1       7.221   4.720  13.925  0.00  0.00    +0.000 A 
ATOM     14  C   UNL     1       5.978   4.114  13.859  0.00  0.00    +0.000 A 
ATOM     15  C   UNL     1       5.132   4.145  14.967  0.00  0.00    +0.000 A 
ATOM     16  C   UNL     1       5.495   4.793  16.157  0.00  0.00    +0.000 A 
BRANCH  11  17
ATOM     17  O   UNL     1       7.043   6.187  17.336  0.00  0.00    +0.000 OA
BRANCH  17  19
ATOM     18  C   UNL     1       8.118   8.250  17.984  0.00  0.00    +0.000 C 
ATOM     19  C   UNL     1       7.009   7.613  17.172  0.00  0.00    +0.000 C 
ENDBRANCH  17  19
ENDBRANCH  11  17
ENDBRANCH   7  16
ENDBRANCH   1   8
BRANCH   5  20
ATOM     20  N   UNL     1       1.321   6.369  21.074  0.00  0.00    +0.000 N 
ATOM     21  C   UNL     1       1.519   7.597  20.460  0.00  0.00    +0.000 C 
ATOM     22  O   UNL     1       2.284   7.817  19.526  0.00  0.00    +0.000 OA
ATOM     23  H   UNL     1       0.578   6.277  21.752  0.00  0.00    +0.000 HD
BRANCH  21  24
ATOM     24  C   UNL     1       0.728   8.752  20.973  0.00  0.00    +0.000 A 
ATOM     25  C   UNL     1       0.459   8.775  22.350  0.00  0.00    +0.000 A 
ATOM     26  C   UNL     1      -0.281   9.813  22.915  0.00  0.00    +0.000 A 
ATOM     27  C   UNL     1      -0.768  10.853  22.115  0.00  0.00    +0.000 A 
ATOM     28  C   UNL     1      -0.477  10.839  20.738  0.00  0.00    +0.000 A 
ATOM     29  C   UNL     1       0.270   9.798  20.170  0.00  0.00    +0.000 A 
BRANCH  27  30
ATOM     30  C   UNL     1      -1.590  11.973  22.706  0.00  0.00    +0.000 C 
ATOM     31  F   UNL     1      -2.333  12.649  21.787  0.00  0.00    +0.000 F 
ATOM     32  F   UNL     1      -2.469  11.532  23.647  0.00  0.00    +0.000 F 
ATOM     33  F   UNL     1      -0.817  12.909  23.324  0.00  0.00    +0.000 F 
ENDBRANCH  27  30
ENDBRANCH  21  24
ENDBRANCH   5  20
TORSDOF 7
ENDMDL
MODEL 2
REMARK VINA RESULT:      -8.4      0.909      1.137
REMARK  Name = 
REMARK  8 active torsions:
REMARK  status: ('A' for Active; 'I' for Inactive)
REMARK    1  A    between atoms: C_1  and  C_2
REMARK    2  A    between atoms: C_2  and  O_3
REMARK    3  A    between atoms: O_3  and  C_4
REMARK    4  A    between atoms: C_9  and  N_10
REMARK    5  A    between atoms: C_11  and  C_13
REMARK    6  A    between atoms: C_17  and  N_18
REMARK    7  A    between atoms: C_19  and  C_21
REMARK    8  A    between atoms: C_24  and  C_25
REMARK                            x       y       z     vdW  Elec       q    Type
REMARK                         _______ _______ _______ _____ _____    ______ ____
ROOT
ATOM      1  C   UNL     1       3.497   3.768  19.149  0.00  0.00    +0.000 A 
ATOM      2  C   UNL     1       3.484   2.696  20.056  0.00  0.00    +0.000 A 
ATOM      3  C   UNL     1       2.774   2.787  21.246  0.00  0.00    +0.000 A 
ATOM      4  C   UNL     1       2.080   3.957  21.541  0.00  0.00    +0.000 A 
ATOM      5  C   UNL     1       2.073   5.037  20.649  0.00  0.00    +0.000 A 
ATOM      6  C   UNL     1       2.764   4.929  19.430  0.00  0.00    +0.000 A 
ENDROOT
BRANCH   1   8
ATOM      7  N   UNL     1       4.847   4.641  17.273  0.00  0.00    +0.000 N 
ATOM      8  C   UNL     1       4.219   3.552  17.868  0.00  0.00    +0.000 C 
ATOM      9  O   UNL     1       4.237   2.396  17.451  0.00  0.00    +0.000 OA
ATOM     10  H   UNL     1       4.999   5.485  17.813  0.00  0.00    +0.000 HD
BRANCH   7  16
ATOM     11  C   UNL     1       6.809   5.151  15.870  0.00  0.00    +0.000 A 
ATOM     12  C   UNL     1       7.478   5.031  14.635  0.00  0.00    +0.000 A 
ATOM     13  C   UNL     1       6.853   4.455  13.530  0.00  0.00    +0.000 A 
ATOM     14  C   UNL     1       5.559   3.976  13.649  0.00  0.00    +0.000 A 
ATOM     15  C   UNL     1       4.906   4.042  14.879  0.00  0.00    +0.000 A 
ATOM     16  C   UNL     1       5.517   4.601  16.012  0.00  0.00    +0.000 A 
BRANCH  11  17
ATOM     17  O   UNL     1       7.366   5.787  16.962  0.00  0.00    +0.000 OA
BRANCH  17  19
ATOM     18  C   UNL     1       7.940   5.680  19.305  0.00  0.00    +0.000 C 
ATOM     19  C   UNL     1       7.805   4.908  18.008  0.00  0.00    +0.000 C 
ENDBRANCH  17  19
ENDBRANCH  11  17
ENDBRANCH   7  16
ENDBRANCH   1   8
BRANCH   5  20
ATOM     20  N   UNL     1       1.360   6.229  20.920  0.00  0.00    +0.000 N 
ATOM     21  C   UNL     1       1.652   7.470  20.373  0.00  0.00    +0.000 C 
ATOM     22  O   UNL     1       2.491   7.691  19.507  0.00  0.00    +0.000 OA
ATOM     23  H   UNL     1       0.567   6.142  21.539  0.00  0.00    +0.000 HD
BRANCH  21  24
ATOM     24  C   UNL     1       0.874   8.637  20.876  0.00  0.00    +0.000 A 
ATOM     25  C   UNL     1       0.607   8.677  22.252  0.00  0.00    +0.000 A 
ATOM     26  C   UNL     1      -0.123   9.727  22.808  0.00  0.00    +0.000 A 
ATOM     27  C   UNL     1      -0.600  10.764  21.998  0.00  0.00    +0.000 A 
ATOM     28  C   UNL     1      -0.312  10.734  20.621  0.00  0.00    +0.000 A 
ATOM     29  C   UNL     1       0.424   9.680  20.062  0.00  0.00    +0.000 A 
BRANCH  27  30
ATOM     30  C   UNL     1      -1.411  11.897  22.579  0.00  0.00    +0.000 C 
ATOM     31  F   UNL     1      -0.651  12.892  23.117  0.00  0.00    +0.000 F 
ATOM     32  F   UNL     1      -2.208  12.495  21.653  0.00  0.00    +0.000 F 
ATOM     33  F   UNL     1      -2.241  11.480  23.575  0.00  0.00    +0.000 F 
ENDBRANCH  27  30
ENDBRANCH  21  24
ENDBRANCH   5  20
TORSDOF 7
ENDMDL
MODEL 3
REMARK VINA RESULT:      -8.3      0.674      1.198
REMARK  Name = 
REMARK  8 active torsions:
REMARK  status: ('A' for Active; 'I' for Inactive)
REMARK    1  A    between atoms: C_1  and  C_2
REMARK    2  A    between atoms: C_2  and  O_3
REMARK    3  A    between atoms: O_3  and  C_4
REMARK    4  A    between atoms: C_9  and  N_10
REMARK    5  A    between atoms: C_11  and  C_13
REMARK    6  A    between atoms: C_17  and  N_18
REMARK    7  A    between atoms: C_19  and  C_21
REMARK    8  A    between atoms: C_24  and  C_25
REMARK                            x       y       z     vdW  Elec       q    Type
REMARK                         _______ _______ _______ _____ _____    ______ ____
ROOT
ATOM      1  C   UNL     1       3.506   3.768  19.256  0.00  0.00    +0.000 A 
ATOM      2  C   UNL     1       3.490   2.694  20.161  0.00  0.00    +0.000 A 
ATOM      3  C   UNL     1       2.781   2.784  21.351  0.00  0.00    +0.000 A 
ATOM      4  C   UNL     1       2.090   3.955  21.649  0.00  0.00    +0.000 A 
ATOM      5  C   UNL     1       2.085   5.037  20.759  0.00  0.00    +0.000 A 
ATOM      6  C   UNL     1       2.776   4.930  19.540  0.00  0.00    +0.000 A 
ENDROOT
BRANCH   1   8
ATOM      7  N   UNL     1       4.850   4.643  17.377  0.00  0.00    +0.000 N 
ATOM      8  C   UNL     1       4.227   3.552  17.975  0.00  0.00    +0.000 C 
ATOM      9  O   UNL     1       4.251   2.396  17.561  0.00  0.00    +0.000 OA
ATOM     10  H   UNL     1       4.999   5.489  17.916  0.00  0.00    +0.000 HD
BRANCH   7  16
ATOM     11  C   UNL     1       6.867   5.007  16.006  0.00  0.00    +0.000 A 
ATOM     12  C   UNL     1       7.525   4.887  14.766  0.00  0.00    +0.000 A 
ATOM     13  C   UNL     1       6.844   4.457  13.628  0.00  0.00    +0.000 A 
ATOM     14  C   UNL     1       5.503   4.125  13.718  0.00  0.00    +0.000 A 
ATOM     15  C   UNL     1       4.854   4.190  14.951  0.00  0.00    +0.000 A 
ATOM     16  C   UNL     1       5.519   4.603  16.116  0.00  0.00    +0.000 A 
BRANCH  11  17
ATOM     17  O   UNL     1       7.487   5.506  17.135  0.00  0.00    +0.000 OA
BRANCH  17  19
ATOM     18  C   UNL     1       8.149   7.361  18.532  0.00  0.00    +0.000 C 
ATOM     19  C   UNL     1       7.443   6.936  17.261  0.00  0.00    +0.000 C 
ENDBRANCH  17  19
ENDBRANCH  11  17
ENDBRANCH   7  16
ENDBRANCH   1   8
BRANCH   5  20
ATOM     20  N   UNL     1       1.375   6.230  21.033  0.00  0.00    +0.000 N 
ATOM     21  C   UNL     1       1.635   7.460  20.446  0.00  0.00    +0.000 C 
ATOM     22  O   UNL     1       2.436   7.667  19.540  0.00  0.00    +0.000 OA
ATOM     23  H   UNL     1       0.609   6.153  21.686  0.00  0.00    +0.000 HD
BRANCH  21  24
ATOM     24  C   UNL     1       0.869   8.634  20.954  0.00  0.00    +0.000 A 
ATOM     25  C   UNL     1       0.514   9.614  20.016  0.00  0.00    +0.000 A 
ATOM     26  C   UNL     1      -0.195  10.751  20.405  0.00  0.00    +0.000 A 
ATOM     27  C   UNL     1      -0.566  10.930  21.742  0.00  0.00    +0.000 A 
ATOM     28  C   UNL     1      -0.228   9.934  22.677  0.00  0.00    +0.000 A 
ATOM     29  C   UNL     1       0.482   8.790  22.287  0.00  0.00    +0.000 A 
BRANCH  27  30
ATOM     30  C   UNL     1      -1.314  12.164  22.185  0.00  0.00    +0.000 C 
ATOM     31  F   UNL     1      -2.630  11.938  22.456  0.00  0.00    +0.000 F 
ATOM     32  F   UNL     1      -0.788  12.715  23.313  0.00  0.00    +0.000 F 
ATOM     33  F   UNL     1      -1.290  13.147  21.242  0.00  0.00    +0.000 F 
ENDBRANCH  27  30
ENDBRANCH  21  24
ENDBRANCH   5  20
TORSDOF 7
ENDMDL
MODEL 4
REMARK VINA RESULT:      -8.1      2.636      4.877
REMARK  Name = 
REMARK  8 active torsions:
REMARK  status: ('A' for Active; 'I' for Inactive)
REMARK    1  A    between atoms: C_1  and  C_2
REMARK    2  A    between atoms: C_2  and  O_3
REMARK    3  A    between atoms: O_3  and  C_4
REMARK    4  A    between atoms: C_9  and  N_10
REMARK    5  A    between atoms: C_11  and  C_13
REMARK    6  A    between atoms: C_17  and  N_18
REMARK    7  A    between atoms: C_19  and  C_21
REMARK    8  A    between atoms: C_24  and  C_25
REMARK                            x       y       z     vdW  Elec       q    Type
REMARK                         _______ _______ _______ _____ _____    ______ ____
ROOT
ATOM      1  C   UNL     1       1.766   8.122  19.220  0.00  0.00    +0.000 A 
ATOM      2  C   UNL     1       2.180   8.719  18.017  0.00  0.00    +0.000 A 
ATOM      3  C   UNL     1       1.979  10.075  17.797  0.00  0.00    +0.000 A 
ATOM      4  C   UNL     1       1.354  10.842  18.775  0.00  0.00    +0.000 A 
ATOM      5  C   UNL     1       0.939  10.271  19.985  0.00  0.00    +0.000 A 
ATOM      6  C   UNL     1       1.174   8.906  20.219  0.00  0.00    +0.000 A 
ENDROOT
BRANCH   1   8
ATOM      7  N   UNL     1       2.687   6.005  18.341  0.00  0.00    +0.000 N 
ATOM      8  C   UNL     1       2.091   6.683  19.400  0.00  0.00    +0.000 C 
ATOM      9  O   UNL     1       1.841   6.211  20.506  0.00  0.00    +0.000 OA
ATOM     10  H   UNL     1       3.089   6.532  17.574  0.00  0.00    +0.000 HD
BRANCH   7  16
ATOM     11  C   UNL     1       4.164   4.134  18.971  0.00  0.00    +0.000 A 
ATOM     12  C   UNL     1       4.403   2.746  19.024  0.00  0.00    +0.000 A 
ATOM     13  C   UNL     1       3.548   1.843  18.395  0.00  0.00    +0.000 A 
ATOM     14  C   UNL     1       2.434   2.313  17.720  0.00  0.00    +0.000 A 
ATOM     15  C   UNL     1       2.158   3.679  17.704  0.00  0.00    +0.000 A 
ATOM     16  C   UNL     1       2.992   4.609  18.343  0.00  0.00    +0.000 A 
BRANCH  11  17
ATOM     17  O   UNL     1       5.031   5.062  19.513  0.00  0.00    +0.000 OA
BRANCH  17  19
ATOM     18  C   UNL     1       6.263   6.060  17.691  0.00  0.00    +0.000 C 
ATOM     19  C   UNL     1       6.318   5.121  18.879  0.00  0.00    +0.000 C 
ENDBRANCH  17  19
ENDBRANCH  11  17
ENDBRANCH   7  16
ENDBRANCH   1   8
BRANCH   5  20
ATOM     20  N   UNL     1       0.317  11.036  21.000  0.00  0.00    +0.000 N 
ATOM     21  C   UNL     1      -0.916  11.661  20.879  0.00  0.00    +0.000 C 
ATOM     22  O   UNL     1      -1.682  11.557  19.927  0.00  0.00    +0.000 OA
ATOM     23  H   UNL     1       0.810  11.095  21.879  0.00  0.00    +0.000 HD
BRANCH  21  24
ATOM     24  C   UNL     1      -1.353  12.532  22.007  0.00  0.00    +0.000 A 
ATOM     25  C   UNL     1      -0.546  13.642  22.301  0.00  0.00    +0.000 A 
ATOM     26  C   UNL     1      -0.874  14.505  23.347  0.00  0.00    +0.000 A 
ATOM     27  C   UNL     1      -2.019  14.279  24.119  0.00  0.00    +0.000 A 
ATOM     28  C   UNL     1      -2.839  13.178  23.807  0.00  0.00    +0.000 A 
ATOM     29  C   UNL     1      -2.511  12.312  22.755  0.00  0.00    +0.000 A 
BRANCH  27  30
ATOM     30  C   UNL     1      -2.377  15.190  25.268  0.00  0.00    +0.000 C 
ATOM     31  F   UNL     1      -1.311  15.538  26.042  0.00  0.00    +0.000 F 
ATOM     32  F   UNL     1      -2.933  16.360  24.850  0.00  0.00    +0.000 F 
ATOM     33  F   UNL     1      -3.284  14.625  26.112  0.00  0.00    +0.000 F 
ENDBRANCH  27  30
ENDBRANCH  21  24
ENDBRANCH   5  20
TORSDOF 7
ENDMDL
MODEL 5
REMARK VINA RESULT:      -8.1      2.705      4.985
REMARK  Name = 
REMARK  8 active torsions:
REMARK  status: ('A' for Active; 'I' for Inactive)
REMARK    1  A    between atoms: C_1  and  C_2
REMARK    2  A    between atoms: C_2  and  O_3
REMARK    3  A    between atoms: O_3  and  C_4
REMARK    4  A    between atoms: C_9  and  N_10
REMARK    5  A    between atoms: C_11  and  C_13
REMARK    6  A    between atoms: C_17  and  N_18
REMARK    7  A    between atoms: C_19  and  C_21
REMARK    8  A    between atoms: C_24  and  C_25
REMARK                            x       y       z     vdW  Elec       q    Type
REMARK                         _______ _______ _______ _____ _____    ______ ____
ROOT
ATOM      1  C   UNL     1       1.769   8.290  19.125  0.00  0.00    +0.000 A 
ATOM      2  C   UNL     1       2.235   8.901  17.950  0.00  0.00    +0.000 A 
ATOM      3  C   UNL     1       2.064  10.263  17.747  0.00  0.00    +0.000 A 
ATOM      4  C   UNL     1       1.415  11.023  18.715  0.00  0.00    +0.000 A 
ATOM      5  C   UNL     1       0.948  10.438  19.899  0.00  0.00    +0.000 A 
ATOM      6  C   UNL     1       1.153   9.065  20.117  0.00  0.00    +0.000 A 
ENDROOT
BRANCH   1   8
ATOM      7  N   UNL     1       2.335   6.091  18.152  0.00  0.00    +0.000 N 
ATOM      8  C   UNL     1       2.066   6.843  19.291  0.00  0.00    +0.000 C 
ATOM      9  O   UNL     1       2.093   6.430  20.448  0.00  0.00    +0.000 OA
ATOM     10  H   UNL     1       2.546   6.563  17.281  0.00  0.00    +0.000 HD
BRANCH   7  16
ATOM     11  C   UNL     1       3.877   4.173  18.004  0.00  0.00    +0.000 A 
ATOM     12  C   UNL     1       4.088   2.781  18.080  0.00  0.00    +0.000 A 
ATOM     13  C   UNL     1       3.019   1.896  18.209  0.00  0.00    +0.000 A 
ATOM     14  C   UNL     1       1.728   2.390  18.283  0.00  0.00    +0.000 A 
ATOM     15  C   UNL     1       1.509   3.767  18.261  0.00  0.00    +0.000 A 
ATOM     16  C   UNL     1       2.568   4.682  18.149  0.00  0.00    +0.000 A 
BRANCH  11  17
ATOM     17  O   UNL     1       4.902   5.074  17.795  0.00  0.00    +0.000 OA
BRANCH  17  19
ATOM     18  C   UNL     1       7.260   4.686  17.444  0.00  0.00    +0.000 C 
ATOM     19  C   UNL     1       6.134   4.744  18.456  0.00  0.00    +0.000 C 
ENDBRANCH  17  19
ENDBRANCH  11  17
ENDBRANCH   7  16
ENDBRANCH   1   8
BRANCH   5  20
ATOM     20  N   UNL     1       0.301  11.195  20.905  0.00  0.00    +0.000 N 
ATOM     21  C   UNL     1      -0.975  11.730  20.798  0.00  0.00    +0.000 C 
ATOM     22  O   UNL     1      -1.756  11.540  19.872  0.00  0.00    +0.000 OA
ATOM     23  H   UNL     1       0.811  11.319  21.767  0.00  0.00    +0.000 HD
BRANCH  21  24
ATOM     24  C   UNL     1      -1.441  12.609  21.907  0.00  0.00    +0.000 A 
ATOM     25  C   UNL     1      -2.784  12.486  22.293  0.00  0.00    +0.000 A 
ATOM     26  C   UNL     1      -3.309  13.276  23.316  0.00  0.00    +0.000 A 
ATOM     27  C   UNL     1      -2.499  14.205  23.978  0.00  0.00    +0.000 A 
ATOM     28  C   UNL     1      -1.146  14.311  23.605  0.00  0.00    +0.000 A 
ATOM     29  C   UNL     1      -0.617  13.515  22.579  0.00  0.00    +0.000 A 
BRANCH  27  30
ATOM     30  C   UNL     1      -3.055  15.084  25.073  0.00  0.00    +0.000 C 
ATOM     31  F   UNL     1      -3.020  14.507  26.307  0.00  0.00    +0.000 F 
ATOM     32  F   UNL     1      -2.380  16.260  25.190  0.00  0.00    +0.000 F 
ATOM     33  F   UNL     1      -4.357  15.419  24.853  0.00  0.00    +0.000 F 
ENDBRANCH  27  30
ENDBRANCH  21  24
ENDBRANCH   5  20
TORSDOF 7
ENDMDL
MODEL 6
REMARK VINA RESULT:      -8.1      5.785     10.312
REMARK  Name = 
REMARK  8 active torsions:
REMARK  status: ('A' for Active; 'I' for Inactive)
REMARK    1  A    between atoms: C_1  and  C_2
REMARK    2  A    between atoms: C_2  and  O_3
REMARK    3  A    between atoms: O_3  and  C_4
REMARK    4  A    between atoms: C_9  and  N_10
REMARK    5  A    between atoms: C_11  and  C_13
REMARK    6  A    between atoms: C_17  and  N_18
REMARK    7  A    between atoms: C_19  and  C_21
REMARK    8  A    between atoms: C_24  and  C_25
REMARK                            x       y       z     vdW  Elec       q    Type
REMARK                         _______ _______ _______ _____ _____    ______ ____
ROOT
ATOM      1  C   UNL     1      -0.646  10.497  19.957  0.00  0.00    +0.000 A 
ATOM      2  C   UNL     1      -0.529  10.500  21.357  0.00  0.00    +0.000 A 
ATOM      3  C   UNL     1       0.474   9.772  21.983  0.00  0.00    +0.000 A 
ATOM      4  C   UNL     1       1.361   9.027  21.212  0.00  0.00    +0.000 A 
ATOM      5  C   UNL     1       1.269   9.014  19.814  0.00  0.00    +0.000 A 
ATOM      6  C   UNL     1       0.275   9.779  19.182  0.00  0.00    +0.000 A 
ENDROOT
BRANCH   1   8
ATOM      7  N   UNL     1      -2.928  10.795  19.059  0.00  0.00    +0.000 N 
ATOM      8  C   UNL     1      -1.699  11.367  19.372  0.00  0.00    +0.000 C 
ATOM      9  O   UNL     1      -1.407  12.554  19.248  0.00  0.00    +0.000 OA
ATOM     10  H   UNL     1      -3.163   9.882  19.433  0.00  0.00    +0.000 HD
BRANCH   7  16
ATOM     11  C   UNL     1      -4.090  11.555  17.022  0.00  0.00    +0.000 A 
ATOM     12  C   UNL     1      -5.205  12.179  16.426  0.00  0.00    +0.000 A 
ATOM     13  C   UNL     1      -6.181  12.802  17.201  0.00  0.00    +0.000 A 
ATOM     14  C   UNL     1      -6.067  12.795  18.581  0.00  0.00    +0.000 A 
ATOM     15  C   UNL     1      -4.996  12.137  19.185  0.00  0.00    +0.000 A 
ATOM     16  C   UNL     1      -4.007  11.487  18.430  0.00  0.00    +0.000 A 
BRANCH  11  17
ATOM     17  O   UNL     1      -3.063  10.999  16.285  0.00  0.00    +0.000 OA
BRANCH  17  19
ATOM     18  C   UNL     1      -3.084  10.066  14.058  0.00  0.00    +0.000 C 
ATOM     19  C   UNL     1      -3.435   9.845  15.515  0.00  0.00    +0.000 C 
ENDBRANCH  17  19
ENDBRANCH  11  17
ENDBRANCH   7  16
ENDBRANCH   1   8
BRANCH   5  20
ATOM     20  N   UNL     1       2.171   8.277  19.011  0.00  0.00    +0.000 N 
ATOM     21  C   UNL     1       2.472   6.934  19.184  0.00  0.00    +0.000 C 
ATOM     22  O   UNL     1       1.929   6.175  19.980  0.00  0.00    +0.000 OA
ATOM     23  H   UNL     1       2.595   8.777  18.243  0.00  0.00    +0.000 HD
BRANCH  21  24
ATOM     24  C   UNL     1       3.544   6.358  18.323  0.00  0.00    +0.000 A 
ATOM     25  C   UNL     1       4.025   5.088  18.672  0.00  0.00    +0.000 A 
ATOM     26  C   UNL     1       5.035   4.477  17.928  0.00  0.00    +0.000 A 
ATOM     27  C   UNL     1       5.584   5.125  16.816  0.00  0.00    +0.000 A 
ATOM     28  C   UNL     1       5.084   6.390  16.454  0.00  0.00    +0.000 A 
ATOM     29  C   UNL     1       4.068   7.002  17.200  0.00  0.00    +0.000 A 
BRANCH  27  30
ATOM     30  C   UNL     1       6.693   4.488  16.013  0.00  0.00    +0.000 C 
ATOM     31  F   UNL     1       7.167   5.282  15.012  0.00  0.00    +0.000 F 
ATOM     32  F   UNL     1       7.771   4.166  16.778  0.00  0.00    +0.000 F 
ATOM     33  F   UNL     1       6.297   3.330  15.415  0.00  0.00    +0.000 F 
ENDBRANCH  27  30
ENDBRANCH  21  24
ENDBRANCH   5  20
TORSDOF 7
ENDMDL
MODEL 7
REMARK VINA RESULT:      -8.0      2.825      5.013
REMARK  Name = 
REMARK  8 active torsions:
REMARK  status: ('A' for Active; 'I' for Inactive)
REMARK    1  A    between atoms: C_1  and  C_2
REMARK    2  A    between atoms: C_2  and  O_3
REMARK    3  A    between atoms: O_3  and  C_4
REMARK    4  A    between atoms: C_9  and  N_10
REMARK    5  A    between atoms: C_11  and  C_13
REMARK    6  A    between atoms: C_17  and  N_18
REMARK    7  A    between atoms: C_19  and  C_21
REMARK    8  A    between atoms: C_24  and  C_25
REMARK                            x       y       z     vdW  Elec       q    Type
REMARK                         _______ _______ _______ _____ _____    ______ ____
ROOT
ATOM      1  C   UNL     1       1.758   8.558  18.879  0.00  0.00    +0.000 A 
ATOM      2  C   UNL     1       2.563   9.349  18.043  0.00  0.00    +0.000 A 
ATOM      3  C   UNL     1       2.290  10.700  17.872  0.00  0.00    +0.000 A 
ATOM      4  C   UNL     1       1.202  11.266  18.529  0.00  0.00    +0.000 A 
ATOM      5  C   UNL     1       0.389  10.499  19.374  0.00  0.00    +0.000 A 
ATOM      6  C   UNL     1       0.688   9.141  19.572  0.00  0.00    +0.000 A 
ENDROOT
BRANCH   1   8
ATOM      7  N   UNL     1       2.324   6.348  17.931  0.00  0.00    +0.000 N 
ATOM      8  C   UNL     1       2.173   7.143  19.062  0.00  0.00    +0.000 C 
ATOM      9  O   UNL     1       2.393   6.794  20.220  0.00  0.00    +0.000 OA
ATOM     10  H   UNL     1       2.375   6.785  17.018  0.00  0.00    +0.000 HD
BRANCH   7  16
ATOM     11  C   UNL     1       3.995   4.535  17.922  0.00  0.00    +0.000 A 
ATOM     12  C   UNL     1       4.290   3.161  18.024  0.00  0.00    +0.000 A 
ATOM     13  C   UNL     1       3.274   2.208  18.070  0.00  0.00    +0.000 A 
ATOM     14  C   UNL     1       1.952   2.615  18.033  0.00  0.00    +0.000 A 
ATOM     15  C   UNL     1       1.647   3.975  17.985  0.00  0.00    +0.000 A 
ATOM     16  C   UNL     1       2.648   4.957  17.955  0.00  0.00    +0.000 A 
BRANCH  11  17
ATOM     17  O   UNL     1       4.974   5.502  17.793  0.00  0.00    +0.000 OA
BRANCH  17  19
ATOM     18  C   UNL     1       7.318   5.226  18.303  0.00  0.00    +0.000 C 
ATOM     19  C   UNL     1       5.939   5.523  18.856  0.00  0.00    +0.000 C 
ENDBRANCH  17  19
ENDBRANCH  11  17
ENDBRANCH   7  16
ENDBRANCH   1   8
BRANCH   5  20
ATOM     20  N   UNL     1      -0.712  11.058  20.066  0.00  0.00    +0.000 N 
ATOM     21  C   UNL     1      -0.639  11.665  21.312  0.00  0.00    +0.000 C 
ATOM     22  O   UNL     1       0.390  11.895  21.938  0.00  0.00    +0.000 OA
ATOM     23  H   UNL     1      -1.601  11.028  19.588  0.00  0.00    +0.000 HD
BRANCH  21  24
ATOM     24  C   UNL     1      -1.924  12.080  21.943  0.00  0.00    +0.000 A 
ATOM     25  C   UNL     1      -2.891  12.650  21.101  0.00  0.00    +0.000 A 
ATOM     26  C   UNL     1      -4.118  13.076  21.609  0.00  0.00    +0.000 A 
ATOM     27  C   UNL     1      -4.406  12.940  22.971  0.00  0.00    +0.000 A 
ATOM     28  C   UNL     1      -3.443  12.347  23.810  0.00  0.00    +0.000 A 
ATOM     29  C   UNL     1      -2.211  11.916  23.300  0.00  0.00    +0.000 A 
BRANCH  27  30
ATOM     30  C   UNL     1      -5.720  13.415  23.541  0.00  0.00    +0.000 C 
ATOM     31  F   UNL     1      -5.664  14.668  24.074  0.00  0.00    +0.000 F 
ATOM     32  F   UNL     1      -6.710  13.450  22.608  0.00  0.00    +0.000 F 
ATOM     33  F   UNL     1      -6.173  12.605  24.538  0.00  0.00    +0.000 F 
ENDBRANCH  27  30
ENDBRANCH  21  24
ENDBRANCH   5  20
TORSDOF 7
ENDMDL
MODEL 8
REMARK VINA RESULT:      -8.0      2.688      4.925
REMARK  Name = 
REMARK  8 active torsions:
REMARK  status: ('A' for Active; 'I' for Inactive)
REMARK    1  A    between atoms: C_1  and  C_2
REMARK    2  A    between atoms: C_2  and  O_3
REMARK    3  A    between atoms: O_3  and  C_4
REMARK    4  A    between atoms: C_9  and  N_10
REMARK    5  A    between atoms: C_11  and  C_13
REMARK    6  A    between atoms: C_17  and  N_18
REMARK    7  A    between atoms: C_19  and  C_21
REMARK    8  A    between atoms: C_24  and  C_25
REMARK                            x       y       z     vdW  Elec       q    Type
REMARK                         _______ _______ _______ _____ _____    ______ ____
ROOT
ATOM      1  C   UNL     1       1.733   8.177  19.197  0.00  0.00    +0.000 A 
ATOM      2  C   UNL     1       2.233   8.807  18.045  0.00  0.00    +0.000 A 
ATOM      3  C   UNL     1       2.074  10.175  17.864  0.00  0.00    +0.000 A 
ATOM      4  C   UNL     1       1.405  10.920  18.830  0.00  0.00    +0.000 A 
ATOM      5  C   UNL     1       0.904  10.315  19.990  0.00  0.00    +0.000 A 
ATOM      6  C   UNL     1       1.096   8.938  20.187  0.00  0.00    +0.000 A 
ENDROOT
BRANCH   1   8
ATOM      7  N   UNL     1       2.254   5.982  18.191  0.00  0.00    +0.000 N 
ATOM      8  C   UNL     1       2.018   6.726  19.342  0.00  0.00    +0.000 C 
ATOM      9  O   UNL     1       2.064   6.301  20.494  0.00  0.00    +0.000 OA
ATOM     10  H   UNL     1       2.451   6.460  17.319  0.00  0.00    +0.000 HD
BRANCH   7  16
ATOM     11  C   UNL     1       3.689   4.041  17.691  0.00  0.00    +0.000 A 
ATOM     12  C   UNL     1       3.908   2.650  17.751  0.00  0.00    +0.000 A 
ATOM     13  C   UNL     1       2.910   1.782  18.193  0.00  0.00    +0.000 A 
ATOM     14  C   UNL     1       1.689   2.294  18.598  0.00  0.00    +0.000 A 
ATOM     15  C   UNL     1       1.479   3.673  18.592  0.00  0.00    +0.000 A 
ATOM     16  C   UNL     1       2.471   4.570  18.169  0.00  0.00    +0.000 A 
BRANCH  11  17
ATOM     17  O   UNL     1       4.624   4.922  17.184  0.00  0.00    +0.000 OA
BRANCH  17  19
ATOM     18  C   UNL     1       6.066   5.415  19.057  0.00  0.00    +0.000 C 
ATOM     19  C   UNL     1       5.953   4.750  17.701  0.00  0.00    +0.000 C 
ENDBRANCH  17  19
ENDBRANCH  11  17
ENDBRANCH   7  16
ENDBRANCH   1   8
BRANCH   5  20
ATOM     20  N   UNL     1       0.236  11.057  20.993  0.00  0.00    +0.000 N 
ATOM     21  C   UNL     1      -1.001  11.665  20.838  0.00  0.00    +0.000 C 
ATOM     22  O   UNL     1      -1.733  11.562  19.859  0.00  0.00    +0.000 OA
ATOM     23  H   UNL     1       0.698  11.111  21.889  0.00  0.00    +0.000 HD
BRANCH  21  24
ATOM     24  C   UNL     1      -1.490  12.514  21.962  0.00  0.00    +0.000 A 
ATOM     25  C   UNL     1      -0.649  13.554  22.384  0.00  0.00    +0.000 A 
ATOM     26  C   UNL     1      -1.022  14.392  23.435  0.00  0.00    +0.000 A 
ATOM     27  C   UNL     1      -2.247  14.208  24.086  0.00  0.00    +0.000 A 
ATOM     28  C   UNL     1      -3.099  13.178  23.646  0.00  0.00    +0.000 A 
ATOM     29  C   UNL     1      -2.726  12.338  22.587  0.00  0.00    +0.000 A 
BRANCH  27  30
ATOM     30  C   UNL     1      -2.656  15.091  25.239  0.00  0.00    +0.000 C 
ATOM     31  F   UNL     1      -3.732  15.882  24.967  0.00  0.00    +0.000 F 
ATOM     32  F   UNL     1      -2.988  14.377  26.349  0.00  0.00    +0.000 F 
ATOM     33  F   UNL     1      -1.659  15.936  25.621  0.00  0.00    +0.000 F 
ENDBRANCH  27  30
ENDBRANCH  21  24
ENDBRANCH   5  20
TORSDOF 7
ENDMDL
MODEL 9
REMARK VINA RESULT:      -8.0      5.111     11.118
REMARK  Name = 
REMARK  8 active torsions:
REMARK  status: ('A' for Active; 'I' for Inactive)
REMARK    1  A    between atoms: C_1  and  C_2
REMARK    2  A    between atoms: C_2  and  O_3
REMARK    3  A    between atoms: O_3  and  C_4
REMARK    4  A    between atoms: C_9  and  N_10
REMARK    5  A    between atoms: C_11  and  C_13
REMARK    6  A    between atoms: C_17  and  N_18
REMARK    7  A    between atoms: C_19  and  C_21
REMARK    8  A    between atoms: C_24  and  C_25
REMARK                            x       y       z     vdW  Elec       q    Type
REMARK                         _______ _______ _______ _____ _____    ______ ____
ROOT
ATOM      1  C   UNL     1       0.096  11.078  20.954  0.00  0.00    +0.000 A 
ATOM      2  C   UNL     1       0.079  11.886  19.805  0.00  0.00    +0.000 A 
ATOM      3  C   UNL     1       0.579  11.410  18.600  0.00  0.00    +0.000 A 
ATOM      4  C   UNL     1       1.108  10.124  18.539  0.00  0.00    +0.000 A 
ATOM      5  C   UNL     1       1.129   9.297  19.669  0.00  0.00    +0.000 A 
ATOM      6  C   UNL     1       0.591   9.768  20.878  0.00  0.00    +0.000 A 
ENDROOT
BRANCH   1   8
ATOM      7  N   UNL     1      -1.256  12.823  22.063  0.00  0.00    +0.000 N 
ATOM      8  C   UNL     1      -0.530  11.641  22.178  0.00  0.00    +0.000 C 
ATOM      9  O   UNL     1      -0.388  10.983  23.205  0.00  0.00    +0.000 OA
ATOM     10  H   UNL     1      -1.535  13.149  21.145  0.00  0.00    +0.000 HD
BRANCH   7  16
ATOM     11  C   UNL     1      -3.184  13.242  23.541  0.00  0.00    +0.000 A 
ATOM     12  C   UNL     1      -3.724  13.886  24.672  0.00  0.00    +0.000 A 
ATOM     13  C   UNL     1      -2.997  14.849  25.369  0.00  0.00    +0.000 A 
ATOM     14  C   UNL     1      -1.715  15.169  24.955  0.00  0.00    +0.000 A 
ATOM     15  C   UNL     1      -1.150  14.502  23.869  0.00  0.00    +0.000 A 
ATOM     16  C   UNL     1      -1.853  13.516  23.159  0.00  0.00    +0.000 A 
BRANCH  11  17
ATOM     17  O   UNL     1      -3.905  12.343  22.779  0.00  0.00    +0.000 OA
BRANCH  17  19
ATOM     18  C   UNL     1      -6.200  12.743  22.142  0.00  0.00    +0.000 C 
ATOM     19  C   UNL     1      -4.742  12.942  21.778  0.00  0.00    +0.000 C 
ENDBRANCH  17  19
ENDBRANCH  11  17
ENDBRANCH   7  16
ENDBRANCH   1   8
BRANCH   5  20
ATOM     20  N   UNL     1       1.646   7.980  19.625  0.00  0.00    +0.000 N 
ATOM     21  C   UNL     1       2.527   7.507  18.664  0.00  0.00    +0.000 C 
ATOM     22  O   UNL     1       3.060   8.179  17.787  0.00  0.00    +0.000 OA
ATOM     23  H   UNL     1       1.363   7.365  20.373  0.00  0.00    +0.000 HD
BRANCH  21  24
ATOM     24  C   UNL     1       2.863   6.055  18.702  0.00  0.00    +0.000 A 
ATOM     25  C   UNL     1       1.998   5.186  18.020  0.00  0.00    +0.000 A 
ATOM     26  C   UNL     1       2.230   3.810  18.010  0.00  0.00    +0.000 A 
ATOM     27  C   UNL     1       3.334   3.274  18.683  0.00  0.00    +0.000 A 
ATOM     28  C   UNL     1       4.212   4.151  19.347  0.00  0.00    +0.000 A 
ATOM     29  C   UNL     1       3.982   5.533  19.354  0.00  0.00    +0.000 A 
BRANCH  27  30
ATOM     30  C   UNL     1       3.588   1.786  18.701  0.00  0.00    +0.000 C 
ATOM     31  F   UNL     1       4.015   1.290  17.507  0.00  0.00    +0.000 F 
ATOM     32  F   UNL     1       4.533   1.431  19.614  0.00  0.00    +0.000 F 
ATOM     33  F   UNL     1       2.471   1.077  19.023  0.00  0.00    +0.000 F 
ENDBRANCH  27  30
ENDBRANCH  21  24
ENDBRANCH   5  20
TORSDOF 7
ENDMDL
