MODEL 1
REMARK VINA RESULT:      -7.2      0.000      0.000
REMARK  Name = 
REMARK  3 active torsions:
REMARK  status: ('A' for Active; 'I' for Inactive)
REMARK    1  A    between atoms: N_3  and  C_4
REMARK    2  A    between atoms: C_7  and  S_8
REMARK    3  A    between atoms: S_8  and  C_10
REMARK                            x       y       z     vdW  Elec       q    Type
REMARK                         _______ _______ _______ _____ _____    ______ ____
ROOT
ATOM      1  C   UNL     1       6.426   5.700  16.611  0.00  0.00    +0.000 A 
ATOM      2  C   UNL     1       6.245   5.036  17.825  0.00  0.00    +0.000 A 
ATOM      3  C   UNL     1       5.149   5.355  18.628  0.00  0.00    +0.000 A 
ATOM      4  C   UNL     1       4.266   6.348  18.214  0.00  0.00    +0.000 A 
ATOM      5  C   UNL     1       4.507   6.944  16.982  0.00  0.00    +0.000 A 
ATOM      6  N   UNL     1       5.552   6.643  16.171  0.00  0.00    +0.000 NA
ENDROOT
BRANCH   1   9
ATOM      7  O   UNL     1       8.280   5.279  13.734  0.00  0.00    +0.000 OA
ATOM      8  N   UNL     1       7.242   5.638  14.546  0.00  0.00    +0.000 NA
ATOM      9  N   UNL     1       7.526   5.483  15.752  0.00  0.00    +0.000 NA
ENDBRANCH   1   9
BRANCH   4  10
ATOM     10  S   UNL     1       2.826   6.830  19.181  0.00  0.00    +0.000 S 
ATOM     11  O   UNL     1       1.903   7.659  18.215  0.00  0.00    +0.000 OA
BRANCH  10  12
ATOM     12  C   UNL     1       2.118   5.160  19.278  0.00  0.00    +0.000 A 
ATOM     13  C   UNL     1       1.741   4.609  20.512  0.00  0.00    +0.000 A 
ATOM     14  C   UNL     1       1.170   3.335  20.572  0.00  0.00    +0.000 A 
ATOM     15  C   UNL     1       0.951   2.610  19.404  0.00  0.00    +0.000 A 
ATOM     16  C   UNL     1       1.296   3.158  18.170  0.00  0.00    +0.000 A 
ATOM     17  C   UNL     1       1.874   4.428  18.107  0.00  0.00    +0.000 A 
ENDBRANCH  10  12
ENDBRANCH   4  10
TORSDOF 3
ENDMDL
MODEL 2
REMARK VINA RESULT:      -7.1      0.144      1.179
REMARK  Name = 
REMARK  3 active torsions:
REMARK  status: ('A' for Active; 'I' for Inactive)
REMARK    1  A    between atoms: N_3  and  C_4
REMARK    2  A    between atoms: C_7  and  S_8
REMARK    3  A    between atoms: S_8  and  C_10
REMARK                            x       y       z     vdW  Elec       q    Type
REMARK                         _______ _______ _______ _____ _____    ______ ____
ROOT
ATOM      1  C   UNL     1       6.329   5.672  16.635  0.00  0.00    +0.000 A 
ATOM      2  C   UNL     1       6.195   4.999  17.850  0.00  0.00    +0.000 A 
ATOM      3  C   UNL     1       5.122   5.303  18.690  0.00  0.00    +0.000 A 
ATOM      4  C   UNL     1       4.217   6.290  18.311  0.00  0.00    +0.000 A 
ATOM      5  C   UNL     1       4.412   6.895  17.075  0.00  0.00    +0.000 A 
ATOM      6  N   UNL     1       5.433   6.609  16.229  0.00  0.00    +0.000 NA
ENDROOT
BRANCH   1   9
ATOM      7  O   UNL     1       8.083   5.219  13.700  0.00  0.00    +0.000 OA
ATOM      8  N   UNL     1       7.063   5.562  14.541  0.00  0.00    +0.000 NA
ATOM      9  N   UNL     1       7.403   5.470  15.739  0.00  0.00    +0.000 NA
ENDBRANCH   1   9
BRANCH   4  10
ATOM     10  S   UNL     1       2.805   6.752  19.327  0.00  0.00    +0.000 S 
ATOM     11  O   UNL     1       1.877   7.638  18.417  0.00  0.00    +0.000 OA
BRANCH  10  12
ATOM     12  C   UNL     1       2.070   5.091  19.365  0.00  0.00    +0.000 A 
ATOM     13  C   UNL     1       1.848   4.375  18.179  0.00  0.00    +0.000 A 
ATOM     14  C   UNL     1       1.309   3.087  18.222  0.00  0.00    +0.000 A 
ATOM     15  C   UNL     1       1.007   2.494  19.445  0.00  0.00    +0.000 A 
ATOM     16  C   UNL     1       1.248   3.185  20.631  0.00  0.00    +0.000 A 
ATOM     17  C   UNL     1       1.780   4.476  20.592  0.00  0.00    +0.000 A 
ENDBRANCH  10  12
ENDBRANCH   4  10
TORSDOF 3
ENDMDL
MODEL 3
REMARK VINA RESULT:      -7.0      2.130      2.652
REMARK  Name = 
REMARK  3 active torsions:
REMARK  status: ('A' for Active; 'I' for Inactive)
REMARK    1  A    between atoms: N_3  and  C_4
REMARK    2  A    between atoms: C_7  and  S_8
REMARK    3  A    between atoms: S_8  and  C_10
REMARK                            x       y       z     vdW  Elec       q    Type
REMARK                         _______ _______ _______ _____ _____    ______ ____
ROOT
ATOM      1  C   UNL     1       6.851   4.986  14.737  0.00  0.00    +0.000 A 
ATOM      2  C   UNL     1       5.992   3.915  14.987  0.00  0.00    +0.000 A 
ATOM      3  C   UNL     1       5.586   3.649  16.295  0.00  0.00    +0.000 A 
ATOM      4  C   UNL     1       6.065   4.443  17.333  0.00  0.00    +0.000 A 
ATOM      5  C   UNL     1       6.899   5.502  16.995  0.00  0.00    +0.000 A 
ATOM      6  N   UNL     1       7.296   5.798  15.732  0.00  0.00    +0.000 NA
ENDROOT
BRANCH   1   9
ATOM      7  O   UNL     1       8.870   6.288  12.263  0.00  0.00    +0.000 OA
ATOM      8  N   UNL     1       8.476   5.858  13.498  0.00  0.00    +0.000 NA
ATOM      9  N   UNL     1       7.355   5.308  13.457  0.00  0.00    +0.000 NA
ENDBRANCH   1   9
BRANCH   4  10
ATOM     10  S   UNL     1       5.600   4.176  19.052  0.00  0.00    +0.000 S 
ATOM     11  O   UNL     1       5.665   5.583  19.750  0.00  0.00    +0.000 OA
BRANCH  10  12
ATOM     12  C   UNL     1       3.848   3.843  18.706  0.00  0.00    +0.000 A 
ATOM     13  C   UNL     1       3.015   4.844  18.185  0.00  0.00    +0.000 A 
ATOM     14  C   UNL     1       1.676   4.569  17.895  0.00  0.00    +0.000 A 
ATOM     15  C   UNL     1       1.163   3.291  18.102  0.00  0.00    +0.000 A 
ATOM     16  C   UNL     1       1.987   2.282  18.595  0.00  0.00    +0.000 A 
ATOM     17  C   UNL     1       3.325   2.555  18.892  0.00  0.00    +0.000 A 
ENDBRANCH  10  12
ENDBRANCH   4  10
TORSDOF 3
ENDMDL
MODEL 4
REMARK VINA RESULT:      -7.0      2.106      2.561
REMARK  Name = 
REMARK  3 active torsions:
REMARK  status: ('A' for Active; 'I' for Inactive)
REMARK    1  A    between atoms: N_3  and  C_4
REMARK    2  A    between atoms: C_7  and  S_8
REMARK    3  A    between atoms: S_8  and  C_10
REMARK                            x       y       z     vdW  Elec       q    Type
REMARK                         _______ _______ _______ _____ _____    ______ ____
ROOT
ATOM      1  C   UNL     1       6.871   5.028  14.775  0.00  0.00    +0.000 A 
ATOM      2  C   UNL     1       6.041   3.929  15.000  0.00  0.00    +0.000 A 
ATOM      3  C   UNL     1       5.613   3.644  16.298  0.00  0.00    +0.000 A 
ATOM      4  C   UNL     1       6.042   4.448  17.350  0.00  0.00    +0.000 A 
ATOM      5  C   UNL     1       6.849   5.536  17.035  0.00  0.00    +0.000 A 
ATOM      6  N   UNL     1       7.266   5.849  15.783  0.00  0.00    +0.000 NA
ENDROOT
BRANCH   1   9
ATOM      7  O   UNL     1       8.993   6.256  12.350  0.00  0.00    +0.000 OA
ATOM      8  N   UNL     1       8.567   5.796  13.563  0.00  0.00    +0.000 NA
ATOM      9  N   UNL     1       7.393   5.372  13.508  0.00  0.00    +0.000 NA
ENDBRANCH   1   9
BRANCH   4  10
ATOM     10  S   UNL     1       5.546   4.160  19.056  0.00  0.00    +0.000 S 
ATOM     11  O   UNL     1       5.544   5.566  19.759  0.00  0.00    +0.000 OA
BRANCH  10  12
ATOM     12  C   UNL     1       3.816   3.766  18.667  0.00  0.00    +0.000 A 
ATOM     13  C   UNL     1       3.287   2.497  18.946  0.00  0.00    +0.000 A 
ATOM     14  C   UNL     1       1.947   2.213  18.670  0.00  0.00    +0.000 A 
ATOM     15  C   UNL     1       1.119   3.196  18.136  0.00  0.00    +0.000 A 
ATOM     16  C   UNL     1       1.625   4.468  17.879  0.00  0.00    +0.000 A 
ATOM     17  C   UNL     1       2.967   4.753  18.147  0.00  0.00    +0.000 A 
ENDBRANCH  10  12
ENDBRANCH   4  10
TORSDOF 3
ENDMDL
MODEL 5
REMARK VINA RESULT:      -6.9      2.246      3.076
REMARK  Name = 
REMARK  3 active torsions:
REMARK  status: ('A' for Active; 'I' for Inactive)
REMARK    1  A    between atoms: N_3  and  C_4
REMARK    2  A    between atoms: C_7  and  S_8
REMARK    3  A    between atoms: S_8  and  C_10
REMARK                            x       y       z     vdW  Elec       q    Type
REMARK                         _______ _______ _______ _____ _____    ______ ____
ROOT
ATOM      1  C   UNL     1       6.537   4.581  16.633  0.00  0.00    +0.000 A 
ATOM      2  C   UNL     1       6.591   4.812  18.008  0.00  0.00    +0.000 A 
ATOM      3  C   UNL     1       5.451   4.603  18.787  0.00  0.00    +0.000 A 
ATOM      4  C   UNL     1       4.272   4.191  18.173  0.00  0.00    +0.000 A 
ATOM      5  C   UNL     1       4.311   3.963  16.802  0.00  0.00    +0.000 A 
ATOM      6  N   UNL     1       5.407   4.139  16.022  0.00  0.00    +0.000 NA
ENDROOT
BRANCH   1   9
ATOM      7  O   UNL     1       8.347   5.649  13.899  0.00  0.00    +0.000 OA
ATOM      8  N   UNL     1       7.330   5.566  14.807  0.00  0.00    +0.000 NA
ATOM      9  N   UNL     1       7.620   4.807  15.755  0.00  0.00    +0.000 NA
ENDBRANCH   1   9
BRANCH   4  10
ATOM     10  S   UNL     1       2.752   3.898  19.091  0.00  0.00    +0.000 S 
ATOM     11  O   UNL     1       3.183   3.295  20.478  0.00  0.00    +0.000 OA
BRANCH  10  12
ATOM     12  C   UNL     1       2.382   5.654  19.375  0.00  0.00    +0.000 A 
ATOM     13  C   UNL     1       2.613   6.609  18.374  0.00  0.00    +0.000 A 
ATOM     14  C   UNL     1       2.297   7.953  18.592  0.00  0.00    +0.000 A 
ATOM     15  C   UNL     1       1.731   8.351  19.800  0.00  0.00    +0.000 A 
ATOM     16  C   UNL     1       1.472   7.408  20.792  0.00  0.00    +0.000 A 
ATOM     17  C   UNL     1       1.793   6.065  20.580  0.00  0.00    +0.000 A 
ENDBRANCH  10  12
ENDBRANCH   4  10
TORSDOF 3
ENDMDL
MODEL 6
REMARK VINA RESULT:      -6.8      2.187      2.745
REMARK  Name = 
REMARK  3 active torsions:
REMARK  status: ('A' for Active; 'I' for Inactive)
REMARK    1  A    between atoms: N_3  and  C_4
REMARK    2  A    between atoms: C_7  and  S_8
REMARK    3  A    between atoms: S_8  and  C_10
REMARK                            x       y       z     vdW  Elec       q    Type
REMARK                         _______ _______ _______ _____ _____    ______ ____
ROOT
ATOM      1  C   UNL     1       6.778   4.983  16.110  0.00  0.00    +0.000 A 
ATOM      2  C   UNL     1       6.889   4.950  17.501  0.00  0.00    +0.000 A 
ATOM      3  C   UNL     1       5.813   4.495  18.266  0.00  0.00    +0.000 A 
ATOM      4  C   UNL     1       4.639   4.105  17.628  0.00  0.00    +0.000 A 
ATOM      5  C   UNL     1       4.621   4.149  16.239  0.00  0.00    +0.000 A 
ATOM      6  N   UNL     1       5.656   4.568  15.468  0.00  0.00    +0.000 NA
ENDROOT
BRANCH   1   9
ATOM      7  O   UNL     1       8.514   5.771  13.236  0.00  0.00    +0.000 OA
ATOM      8  N   UNL     1       7.468   5.436  14.048  0.00  0.00    +0.000 NA
ATOM      9  N   UNL     1       7.791   5.469  15.253  0.00  0.00    +0.000 NA
ENDBRANCH   1   9
BRANCH   4  10
ATOM     10  S   UNL     1       3.199   3.508  18.528  0.00  0.00    +0.000 S 
ATOM     11  O   UNL     1       3.749   2.770  19.803  0.00  0.00    +0.000 OA
BRANCH  10  12
ATOM     12  C   UNL     1       2.643   5.149  19.072  0.00  0.00    +0.000 A 
ATOM     13  C   UNL     1       2.118   5.341  20.359  0.00  0.00    +0.000 A 
ATOM     14  C   UNL     1       1.720   6.614  20.778  0.00  0.00    +0.000 A 
ATOM     15  C   UNL     1       1.862   7.707  19.928  0.00  0.00    +0.000 A 
ATOM     16  C   UNL     1       2.407   7.534  18.657  0.00  0.00    +0.000 A 
ATOM     17  C   UNL     1       2.799   6.262  18.232  0.00  0.00    +0.000 A 
ENDBRANCH  10  12
ENDBRANCH   4  10
TORSDOF 3
ENDMDL
MODEL 7
REMARK VINA RESULT:      -6.8      0.755      1.203
REMARK  Name = 
REMARK  3 active torsions:
REMARK  status: ('A' for Active; 'I' for Inactive)
REMARK    1  A    between atoms: N_3  and  C_4
REMARK    2  A    between atoms: C_7  and  S_8
REMARK    3  A    between atoms: S_8  and  C_10
REMARK                            x       y       z     vdW  Elec       q    Type
REMARK                         _______ _______ _______ _____ _____    ______ ____
ROOT
ATOM      1  C   UNL     1       6.256   5.423  16.610  0.00  0.00    +0.000 A 
ATOM      2  C   UNL     1       5.330   6.386  16.205  0.00  0.00    +0.000 A 
ATOM      3  C   UNL     1       4.311   6.770  17.078  0.00  0.00    +0.000 A 
ATOM      4  C   UNL     1       4.221   6.168  18.329  0.00  0.00    +0.000 A 
ATOM      5  C   UNL     1       5.196   5.234  18.661  0.00  0.00    +0.000 A 
ATOM      6  N   UNL     1       6.209   4.854  17.843  0.00  0.00    +0.000 NA
ENDROOT
BRANCH   1   9
ATOM      7  O   UNL     1       8.297   4.966  13.868  0.00  0.00    +0.000 OA
ATOM      8  N   UNL     1       7.387   5.551  14.703  0.00  0.00    +0.000 NA
ATOM      9  N   UNL     1       7.293   4.935  15.785  0.00  0.00    +0.000 NA
ENDBRANCH   1   9
BRANCH   4  10
ATOM     10  S   UNL     1       2.941   6.595  19.521  0.00  0.00    +0.000 S 
ATOM     11  O   UNL     1       1.970   7.592  18.790  0.00  0.00    +0.000 OA
BRANCH  10  12
ATOM     12  C   UNL     1       2.135   4.967  19.499  0.00  0.00    +0.000 A 
ATOM     13  C   UNL     1       1.778   4.324  20.693  0.00  0.00    +0.000 A 
ATOM     14  C   UNL     1       1.132   3.085  20.664  0.00  0.00    +0.000 A 
ATOM     15  C   UNL     1       0.818   2.488  19.446  0.00  0.00    +0.000 A 
ATOM     16  C   UNL     1       1.144   3.129  18.252  0.00  0.00    +0.000 A 
ATOM     17  C   UNL     1       1.796   4.364  18.278  0.00  0.00    +0.000 A 
ENDBRANCH  10  12
ENDBRANCH   4  10
TORSDOF 3
ENDMDL
MODEL 8
REMARK VINA RESULT:      -6.8      3.852      6.517
REMARK  Name = 
REMARK  3 active torsions:
REMARK  status: ('A' for Active; 'I' for Inactive)
REMARK    1  A    between atoms: N_3  and  C_4
REMARK    2  A    between atoms: C_7  and  S_8
REMARK    3  A    between atoms: S_8  and  C_10
REMARK                            x       y       z     vdW  Elec       q    Type
REMARK                         _______ _______ _______ _____ _____    ______ ____
ROOT
ATOM      1  C   UNL     1       2.460   3.276  19.168  0.00  0.00    +0.000 A 
ATOM      2  C   UNL     1       2.575   4.562  18.638  0.00  0.00    +0.000 A 
ATOM      3  C   UNL     1       3.551   4.824  17.675  0.00  0.00    +0.000 A 
ATOM      4  C   UNL     1       4.410   3.804  17.278  0.00  0.00    +0.000 A 
ATOM      5  C   UNL     1       4.212   2.548  17.839  0.00  0.00    +0.000 A 
ATOM      6  N   UNL     1       3.262   2.256  18.762  0.00  0.00    +0.000 NA
ENDROOT
BRANCH   1   9
ATOM      7  O   UNL     1       1.167   2.453  22.257  0.00  0.00    +0.000 OA
ATOM      8  N   UNL     1       2.036   2.939  21.322  0.00  0.00    +0.000 NA
ATOM      9  N   UNL     1       1.538   2.921  20.178  0.00  0.00    +0.000 NA
ENDBRANCH   1   9
BRANCH   4  10
ATOM     10  S   UNL     1       5.699   4.046  16.046  0.00  0.00    +0.000 S 
ATOM     11  O   UNL     1       5.044   4.868  14.876  0.00  0.00    +0.000 OA
BRANCH  10  12
ATOM     12  C   UNL     1       6.664   5.224  17.037  0.00  0.00    +0.000 A 
ATOM     13  C   UNL     1       6.772   6.569  16.652  0.00  0.00    +0.000 A 
ATOM     14  C   UNL     1       7.492   7.473  17.438  0.00  0.00    +0.000 A 
ATOM     15  C   UNL     1       8.092   7.050  18.621  0.00  0.00    +0.000 A 
ATOM     16  C   UNL     1       7.970   5.723  19.027  0.00  0.00    +0.000 A 
ATOM     17  C   UNL     1       7.256   4.815  18.241  0.00  0.00    +0.000 A 
ENDBRANCH  10  12
ENDBRANCH   4  10
TORSDOF 3
ENDMDL
MODEL 9
REMARK VINA RESULT:      -6.8      0.857      1.721
REMARK  Name = 
REMARK  3 active torsions:
REMARK  status: ('A' for Active; 'I' for Inactive)
REMARK    1  A    between atoms: N_3  and  C_4
REMARK    2  A    between atoms: C_7  and  S_8
REMARK    3  A    between atoms: S_8  and  C_10
REMARK                            x       y       z     vdW  Elec       q    Type
REMARK                         _______ _______ _______ _____ _____    ______ ____
ROOT
ATOM      1  C   UNL     1       6.155   5.237  16.400  0.00  0.00    +0.000 A 
ATOM      2  C   UNL     1       5.182   6.200  16.127  0.00  0.00    +0.000 A 
ATOM      3  C   UNL     1       4.269   6.556  17.121  0.00  0.00    +0.000 A 
ATOM      4  C   UNL     1       4.330   5.927  18.361  0.00  0.00    +0.000 A 
ATOM      5  C   UNL     1       5.343   4.996  18.556  0.00  0.00    +0.000 A 
ATOM      6  N   UNL     1       6.256   4.642  17.617  0.00  0.00    +0.000 NA
ENDROOT
BRANCH   1   9
ATOM      7  O   UNL     1       8.281   5.174  13.685  0.00  0.00    +0.000 OA
ATOM      8  N   UNL     1       7.492   5.675  14.681  0.00  0.00    +0.000 NA
ATOM      9  N   UNL     1       7.092   4.775  15.449  0.00  0.00    +0.000 NA
ENDBRANCH   1   9
BRANCH   4  10
ATOM     10  S   UNL     1       3.196   6.318  19.703  0.00  0.00    +0.000 S 
ATOM     11  O   UNL     1       2.282   7.487  19.183  0.00  0.00    +0.000 OA
BRANCH  10  12
ATOM     12  C   UNL     1       2.225   4.789  19.557  0.00  0.00    +0.000 A 
ATOM     13  C   UNL     1       1.779   4.337  18.307  0.00  0.00    +0.000 A 
ATOM     14  C   UNL     1       1.058   3.144  18.202  0.00  0.00    +0.000 A 
ATOM     15  C   UNL     1       0.794   2.384  19.338  0.00  0.00    +0.000 A 
ATOM     16  C   UNL     1       1.254   2.810  20.583  0.00  0.00    +0.000 A 
ATOM     17  C   UNL     1       1.969   4.005  20.692  0.00  0.00    +0.000 A 
ENDBRANCH  10  12
ENDBRANCH   4  10
TORSDOF 3
ENDMDL
