MODEL 1
REMARK VINA RESULT:      -7.2      0.000      0.000
REMARK  Name = 
REMARK  3 active torsions:
REMARK  status: ('A' for Active; 'I' for Inactive)
REMARK    1  A    between atoms: C_1  and  O_2
REMARK    2  A    between atoms: O_2  and  C_3
REMARK    3  A    between atoms: N_10  and  C_11
REMARK                            x       y       z     vdW  Elec       q    Type
REMARK                         _______ _______ _______ _____ _____    ______ ____
ROOT
ATOM      1  C   UNL     1       6.544   4.572  15.100  0.00  0.00    +0.000 A 
ATOM      2  C   UNL     1       7.558   4.803  16.027  0.00  0.00    +0.000 A 
ATOM      3  C   UNL     1       7.324   4.694  17.402  0.00  0.00    +0.000 A 
ATOM      4  C   UNL     1       6.036   4.345  17.816  0.00  0.00    +0.000 A 
ATOM      5  N   UNL     1       5.536   4.174  19.083  0.00  0.00    +0.000 N 
ATOM      6  C   UNL     1       4.204   3.830  19.039  0.00  0.00    +0.000 A 
ATOM      7  C   UNL     1       3.308   3.565  20.064  0.00  0.00    +0.000 A 
ATOM      8  N   UNL     1       2.044   3.250  19.724  0.00  0.00    +0.000 N 
ATOM      9  C   UNL     1       1.059   2.960  20.784  0.00  0.00    +0.000 C 
ATOM     10  C   UNL     1       1.639   3.188  18.437  0.00  0.00    +0.000 A 
ATOM     11  C   UNL     1       2.512   3.448  17.387  0.00  0.00    +0.000 A 
ATOM     12  C   UNL     1       3.839   3.780  17.697  0.00  0.00    +0.000 A 
ATOM     13  C   UNL     1       4.995   4.106  16.921  0.00  0.00    +0.000 A 
ATOM     14  C   UNL     1       5.260   4.221  15.541  0.00  0.00    +0.000 A 
ATOM     15  H   UNL     1       6.090   4.290  19.922  0.00  0.00    +0.000 HD
ENDROOT
BRANCH   1  17
ATOM     16  C   UNL     1       6.117   3.591  12.975  0.00  0.00    +0.000 C 
ATOM     17  O   UNL     1       6.674   4.657  13.739  0.00  0.00    +0.000 OA
ENDBRANCH   1  17
TORSDOF 1
ENDMDL
MODEL 2
REMARK VINA RESULT:      -6.9      2.481      2.875
REMARK  Name = 
REMARK  3 active torsions:
REMARK  status: ('A' for Active; 'I' for Inactive)
REMARK    1  A    between atoms: C_1  and  O_2
REMARK    2  A    between atoms: O_2  and  C_3
REMARK    3  A    between atoms: N_10  and  C_11
REMARK                            x       y       z     vdW  Elec       q    Type
REMARK                         _______ _______ _______ _____ _____    ______ ____
ROOT
ATOM      1  C   UNL     1       6.949   7.075  17.573  0.00  0.00    +0.000 A 
ATOM      2  C   UNL     1       7.865   6.181  18.124  0.00  0.00    +0.000 A 
ATOM      3  C   UNL     1       7.455   4.940  18.624  0.00  0.00    +0.000 A 
ATOM      4  C   UNL     1       6.096   4.626  18.553  0.00  0.00    +0.000 A 
ATOM      5  N   UNL     1       5.430   3.498  18.965  0.00  0.00    +0.000 N 
ATOM      6  C   UNL     1       4.083   3.605  18.705  0.00  0.00    +0.000 A 
ATOM      7  C   UNL     1       3.046   2.717  18.950  0.00  0.00    +0.000 A 
ATOM      8  N   UNL     1       1.804   3.090  18.586  0.00  0.00    +0.000 N 
ATOM      9  C   UNL     1       0.673   2.175  18.828  0.00  0.00    +0.000 C 
ATOM     10  C   UNL     1       1.553   4.281  18.003  0.00  0.00    +0.000 A 
ATOM     11  C   UNL     1       2.571   5.193  17.743  0.00  0.00    +0.000 A 
ATOM     12  C   UNL     1       3.879   4.844  18.107  0.00  0.00    +0.000 A 
ATOM     13  C   UNL     1       5.150   5.493  18.010  0.00  0.00    +0.000 A 
ATOM     14  C   UNL     1       5.590   6.736  17.511  0.00  0.00    +0.000 A 
ATOM     15  H   UNL     1       5.889   2.707  19.399  0.00  0.00    +0.000 HD
ENDROOT
BRANCH   1  17
ATOM     16  C   UNL     1       8.114   9.132  17.843  0.00  0.00    +0.000 C 
ATOM     17  O   UNL     1       7.252   8.310  17.062  0.00  0.00    +0.000 OA
ENDBRANCH   1  17
TORSDOF 1
ENDMDL
MODEL 3
REMARK VINA RESULT:      -6.8      1.762      2.646
REMARK  Name = 
REMARK  3 active torsions:
REMARK  status: ('A' for Active; 'I' for Inactive)
REMARK    1  A    between atoms: C_1  and  O_2
REMARK    2  A    between atoms: O_2  and  C_3
REMARK    3  A    between atoms: N_10  and  C_11
REMARK                            x       y       z     vdW  Elec       q    Type
REMARK                         _______ _______ _______ _____ _____    ______ ____
ROOT
ATOM      1  C   UNL     1       6.987   6.079  16.627  0.00  0.00    +0.000 A 
ATOM      2  C   UNL     1       7.035   5.005  15.740  0.00  0.00    +0.000 A 
ATOM      3  C   UNL     1       6.168   3.915  15.875  0.00  0.00    +0.000 A 
ATOM      4  C   UNL     1       5.252   3.938  16.930  0.00  0.00    +0.000 A 
ATOM      5  N   UNL     1       4.304   3.014  17.292  0.00  0.00    +0.000 N 
ATOM      6  C   UNL     1       3.612   3.436  18.404  0.00  0.00    +0.000 A 
ATOM      7  C   UNL     1       2.581   2.830  19.107  0.00  0.00    +0.000 A 
ATOM      8  N   UNL     1       2.085   3.482  20.176  0.00  0.00    +0.000 N 
ATOM      9  C   UNL     1       0.987   2.872  20.951  0.00  0.00    +0.000 C 
ATOM     10  C   UNL     1       2.558   4.683  20.570  0.00  0.00    +0.000 A 
ATOM     11  C   UNL     1       3.590   5.318  19.886  0.00  0.00    +0.000 A 
ATOM     12  C   UNL     1       4.136   4.673  18.767  0.00  0.00    +0.000 A 
ATOM     13  C   UNL     1       5.174   4.993  17.837  0.00  0.00    +0.000 A 
ATOM     14  C   UNL     1       6.058   6.080  17.677  0.00  0.00    +0.000 A 
ATOM     15  H   UNL     1       4.152   2.147  16.794  0.00  0.00    +0.000 HD
ENDROOT
BRANCH   1  17
ATOM     16  C   UNL     1       7.806   8.019  17.735  0.00  0.00    +0.000 C 
ATOM     17  O   UNL     1       7.793   7.187  16.579  0.00  0.00    +0.000 OA
ENDBRANCH   1  17
TORSDOF 1
ENDMDL
MODEL 4
REMARK VINA RESULT:      -6.6      1.412      1.580
REMARK  Name = 
REMARK  3 active torsions:
REMARK  status: ('A' for Active; 'I' for Inactive)
REMARK    1  A    between atoms: C_1  and  O_2
REMARK    2  A    between atoms: O_2  and  C_3
REMARK    3  A    between atoms: N_10  and  C_11
REMARK                            x       y       z     vdW  Elec       q    Type
REMARK                         _______ _______ _______ _____ _____    ______ ____
ROOT
ATOM      1  C   UNL     1       5.935   4.638  15.017  0.00  0.00    +0.000 A 
ATOM      2  C   UNL     1       5.778   6.011  15.196  0.00  0.00    +0.000 A 
ATOM      3  C   UNL     1       5.006   6.522  16.246  0.00  0.00    +0.000 A 
ATOM      4  C   UNL     1       4.396   5.608  17.109  0.00  0.00    +0.000 A 
ATOM      5  N   UNL     1       3.594   5.831  18.201  0.00  0.00    +0.000 N 
ATOM      6  C   UNL     1       3.203   4.640  18.769  0.00  0.00    +0.000 A 
ATOM      7  C   UNL     1       2.402   4.389  19.872  0.00  0.00    +0.000 A 
ATOM      8  N   UNL     1       2.182   3.103  20.207  0.00  0.00    +0.000 N 
ATOM      9  C   UNL     1       1.335   2.792  21.375  0.00  0.00    +0.000 C 
ATOM     10  C   UNL     1       2.712   2.077  19.507  0.00  0.00    +0.000 A 
ATOM     11  C   UNL     1       3.520   2.295  18.396  0.00  0.00    +0.000 A 
ATOM     12  C   UNL     1       3.774   3.620  18.014  0.00  0.00    +0.000 A 
ATOM     13  C   UNL     1       4.528   4.229  16.963  0.00  0.00    +0.000 A 
ATOM     14  C   UNL     1       5.314   3.741  15.898  0.00  0.00    +0.000 A 
ATOM     15  H   UNL     1       3.339   6.754  18.526  0.00  0.00    +0.000 HD
ENDROOT
BRANCH   1  17
ATOM     16  C   UNL     1       5.943   3.583  12.884  0.00  0.00    +0.000 C 
ATOM     17  O   UNL     1       6.666   4.044  14.022  0.00  0.00    +0.000 OA
ENDBRANCH   1  17
TORSDOF 1
ENDMDL
MODEL 5
REMARK VINA RESULT:      -6.5      2.288      2.895
REMARK  Name = 
REMARK  3 active torsions:
REMARK  status: ('A' for Active; 'I' for Inactive)
REMARK    1  A    between atoms: C_1  and  O_2
REMARK    2  A    between atoms: O_2  and  C_3
REMARK    3  A    between atoms: N_10  and  C_11
REMARK                            x       y       z     vdW  Elec       q    Type
REMARK                         _______ _______ _______ _____ _____    ______ ____
ROOT
ATOM      1  C   UNL     1       6.761   6.861  17.338  0.00  0.00    +0.000 A 
ATOM      2  C   UNL     1       7.518   5.730  17.040  0.00  0.00    +0.000 A 
ATOM      3  C   UNL     1       7.137   4.462  17.493  0.00  0.00    +0.000 A 
ATOM      4  C   UNL     1       5.970   4.366  18.255  0.00  0.00    +0.000 A 
ATOM      5  N   UNL     1       5.376   3.265  18.820  0.00  0.00    +0.000 N 
ATOM      6  C   UNL     1       4.231   3.622  19.495  0.00  0.00    +0.000 A 
ATOM      7  C   UNL     1       3.327   2.847  20.206  0.00  0.00    +0.000 A 
ATOM      8  N   UNL     1       2.278   3.472  20.775  0.00  0.00    +0.000 N 
ATOM      9  C   UNL     1       1.292   2.685  21.539  0.00  0.00    +0.000 C 
ATOM     10  C   UNL     1       2.093   4.806  20.671  0.00  0.00    +0.000 A 
ATOM     11  C   UNL     1       2.982   5.610  19.966  0.00  0.00    +0.000 A 
ATOM     12  C   UNL     1       4.087   4.999  19.358  0.00  0.00    +0.000 A 
ATOM     13  C   UNL     1       5.186   5.473  18.574  0.00  0.00    +0.000 A 
ATOM     14  C   UNL     1       5.592   6.739  18.104  0.00  0.00    +0.000 A 
ATOM     15  H   UNL     1       5.748   2.328  18.739  0.00  0.00    +0.000 HD
ENDROOT
BRANCH   1  17
ATOM     16  C   UNL     1       7.968   8.867  17.757  0.00  0.00    +0.000 C 
ATOM     17  O   UNL     1       7.052   8.140  16.944  0.00  0.00    +0.000 OA
ENDBRANCH   1  17
TORSDOF 1
ENDMDL
MODEL 6
REMARK VINA RESULT:      -6.5      3.930      4.494
REMARK  Name = 
REMARK  3 active torsions:
REMARK  status: ('A' for Active; 'I' for Inactive)
REMARK    1  A    between atoms: C_1  and  O_2
REMARK    2  A    between atoms: O_2  and  C_3
REMARK    3  A    between atoms: N_10  and  C_11
REMARK                            x       y       z     vdW  Elec       q    Type
REMARK                         _______ _______ _______ _____ _____    ______ ____
ROOT
ATOM      1  C   UNL     1       4.721   4.292  17.391  0.00  0.00    +0.000 A 
ATOM      2  C   UNL     1       4.598   3.598  18.594  0.00  0.00    +0.000 A 
ATOM      3  C   UNL     1       3.879   4.132  19.669  0.00  0.00    +0.000 A 
ATOM      4  C   UNL     1       3.287   5.386  19.497  0.00  0.00    +0.000 A 
ATOM      5  N   UNL     1       2.540   6.133  20.374  0.00  0.00    +0.000 N 
ATOM      6  C   UNL     1       2.151   7.319  19.794  0.00  0.00    +0.000 A 
ATOM      7  C   UNL     1       1.397   8.366  20.304  0.00  0.00    +0.000 A 
ATOM      8  N   UNL     1       1.169   9.422  19.500  0.00  0.00    +0.000 N 
ATOM      9  C   UNL     1       0.370  10.556  20.003  0.00  0.00    +0.000 C 
ATOM     10  C   UNL     1       1.647   9.483  18.239  0.00  0.00    +0.000 A 
ATOM     11  C   UNL     1       2.407   8.451  17.699  0.00  0.00    +0.000 A 
ATOM     12  C   UNL     1       2.668   7.332  18.502  0.00  0.00    +0.000 A 
ATOM     13  C   UNL     1       3.387   6.110  18.312  0.00  0.00    +0.000 A 
ATOM     14  C   UNL     1       4.116   5.548  17.243  0.00  0.00    +0.000 A 
ATOM     15  H   UNL     1       2.318   5.833  21.314  0.00  0.00    +0.000 HD
ENDROOT
BRANCH   1  17
ATOM     16  C   UNL     1       6.654   4.481  16.018  0.00  0.00    +0.000 C 
ATOM     17  O   UNL     1       5.403   3.855  16.287  0.00  0.00    +0.000 OA
ENDBRANCH   1  17
TORSDOF 1
ENDMDL
MODEL 7
REMARK VINA RESULT:      -6.4      3.759      3.907
REMARK  Name = 
REMARK  3 active torsions:
REMARK  status: ('A' for Active; 'I' for Inactive)
REMARK    1  A    between atoms: C_1  and  O_2
REMARK    2  A    between atoms: O_2  and  C_3
REMARK    3  A    between atoms: N_10  and  C_11
REMARK                            x       y       z     vdW  Elec       q    Type
REMARK                         _______ _______ _______ _____ _____    ______ ____
ROOT
ATOM      1  C   UNL     1       5.569   5.491  16.375  0.00  0.00    +0.000 A 
ATOM      2  C   UNL     1       5.765   4.557  17.390  0.00  0.00    +0.000 A 
ATOM      3  C   UNL     1       5.059   4.637  18.596  0.00  0.00    +0.000 A 
ATOM      4  C   UNL     1       4.150   5.687  18.749  0.00  0.00    +0.000 A 
ATOM      5  N   UNL     1       3.340   6.002  19.811  0.00  0.00    +0.000 N 
ATOM      6  C   UNL     1       2.597   7.128  19.541  0.00  0.00    +0.000 A 
ATOM      7  C   UNL     1       1.661   7.797  20.317  0.00  0.00    +0.000 A 
ATOM      8  N   UNL     1       1.080   8.891  19.790  0.00  0.00    +0.000 N 
ATOM      9  C   UNL     1       0.079   9.632  20.581  0.00  0.00    +0.000 C 
ATOM     10  C   UNL     1       1.381   9.342  18.553  0.00  0.00    +0.000 A 
ATOM     11  C   UNL     1       2.314   8.694  17.751  0.00  0.00    +0.000 A 
ATOM     12  C   UNL     1       2.943   7.549  18.261  0.00  0.00    +0.000 A 
ATOM     13  C   UNL     1       3.926   6.640  17.758  0.00  0.00    +0.000 A 
ATOM     14  C   UNL     1       4.649   6.534  16.552  0.00  0.00    +0.000 A 
ATOM     15  H   UNL     1       3.310   5.464  20.668  0.00  0.00    +0.000 HD
ENDROOT
BRANCH   1  17
ATOM     16  C   UNL     1       6.229   4.270  14.443  0.00  0.00    +0.000 C 
ATOM     17  O   UNL     1       6.212   5.497  15.165  0.00  0.00    +0.000 OA
ENDBRANCH   1  17
TORSDOF 1
ENDMDL
MODEL 8
REMARK VINA RESULT:      -6.4      3.193      5.896
REMARK  Name = 
REMARK  3 active torsions:
REMARK  status: ('A' for Active; 'I' for Inactive)
REMARK    1  A    between atoms: C_1  and  O_2
REMARK    2  A    between atoms: O_2  and  C_3
REMARK    3  A    between atoms: N_10  and  C_11
REMARK                            x       y       z     vdW  Elec       q    Type
REMARK                         _______ _______ _______ _____ _____    ______ ____
ROOT
ATOM      1  C   UNL     1       1.995   5.734  20.485  0.00  0.00    +0.000 A 
ATOM      2  C   UNL     1       2.092   4.406  20.897  0.00  0.00    +0.000 A 
ATOM      3  C   UNL     1       2.873   3.483  20.192  0.00  0.00    +0.000 A 
ATOM      4  C   UNL     1       3.553   3.938  19.060  0.00  0.00    +0.000 A 
ATOM      5  N   UNL     1       4.374   3.257  18.195  0.00  0.00    +0.000 N 
ATOM      6  C   UNL     1       4.839   4.093  17.205  0.00  0.00    +0.000 A 
ATOM      7  C   UNL     1       5.682   3.837  16.134  0.00  0.00    +0.000 A 
ATOM      8  N   UNL     1       5.972   4.861  15.308  0.00  0.00    +0.000 N 
ATOM      9  C   UNL     1       6.865   4.633  14.156  0.00  0.00    +0.000 C 
ATOM     10  C   UNL     1       5.471   6.101  15.496  0.00  0.00    +0.000 A 
ATOM     11  C   UNL     1       4.624   6.389  16.560  0.00  0.00    +0.000 A 
ATOM     12  C   UNL     1       4.296   5.351  17.444  0.00  0.00    +0.000 A 
ATOM     13  C   UNL     1       3.482   5.256  18.616  0.00  0.00    +0.000 A 
ATOM     14  C   UNL     1       2.689   6.166  19.346  0.00  0.00    +0.000 A 
ATOM     15  H   UNL     1       4.594   2.274  18.292  0.00  0.00    +0.000 HD
ENDROOT
BRANCH   1  17
ATOM     16  C   UNL     1       1.519   8.053  20.719  0.00  0.00    +0.000 C 
ATOM     17  O   UNL     1       1.256   6.707  21.105  0.00  0.00    +0.000 OA
ENDBRANCH   1  17
TORSDOF 1
ENDMDL
MODEL 9
REMARK VINA RESULT:      -6.4      3.151      5.916
REMARK  Name = 
REMARK  3 active torsions:
REMARK  status: ('A' for Active; 'I' for Inactive)
REMARK    1  A    between atoms: C_1  and  O_2
REMARK    2  A    between atoms: O_2  and  C_3
REMARK    3  A    between atoms: N_10  and  C_11
REMARK                            x       y       z     vdW  Elec       q    Type
REMARK                         _______ _______ _______ _____ _____    ______ ____
ROOT
ATOM      1  C   UNL     1       1.745   4.618  20.315  0.00  0.00    +0.000 A 
ATOM      2  C   UNL     1       1.666   6.003  20.453  0.00  0.00    +0.000 A 
ATOM      3  C   UNL     1       2.397   6.858  19.621  0.00  0.00    +0.000 A 
ATOM      4  C   UNL     1       3.213   6.276  18.647  0.00  0.00    +0.000 A 
ATOM      5  N   UNL     1       4.027   6.869  17.714  0.00  0.00    +0.000 N 
ATOM      6  C   UNL     1       4.658   5.919  16.944  0.00  0.00    +0.000 A 
ATOM      7  C   UNL     1       5.559   6.060  15.899  0.00  0.00    +0.000 A 
ATOM      8  N   UNL     1       6.024   4.937  15.318  0.00  0.00    +0.000 N 
ATOM      9  C   UNL     1       6.983   5.042  14.202  0.00  0.00    +0.000 C 
ATOM     10  C   UNL     1       5.643   3.707  15.723  0.00  0.00    +0.000 A 
ATOM     11  C   UNL     1       4.742   3.532  16.768  0.00  0.00    +0.000 A 
ATOM     12  C   UNL     1       4.233   4.675  17.400  0.00  0.00    +0.000 A 
ATOM     13  C   UNL     1       3.319   4.898  18.477  0.00  0.00    +0.000 A 
ATOM     14  C   UNL     1       2.569   4.059  19.327  0.00  0.00    +0.000 A 
ATOM     15  H   UNL     1       4.134   7.871  17.623  0.00  0.00    +0.000 HD
ENDROOT
BRANCH   1  17
ATOM     16  C   UNL     1       1.843   2.640  21.633  0.00  0.00    +0.000 C 
ATOM     17  O   UNL     1       1.072   3.703  21.080  0.00  0.00    +0.000 OA
ENDBRANCH   1  17
TORSDOF 1
ENDMDL
