MODEL 1
REMARK VINA RESULT:      -7.5      0.000      0.000
REMARK  Name = 
REMARK  11 active torsions:
REMARK  status: ('A' for Active; 'I' for Inactive)
REMARK    1  A    between atoms: C_2  and  C_3
REMARK    2  A    between atoms: C_3  and  N_4
REMARK    3  A    between atoms: N_4  and  C_5
REMARK    4  A    between atoms: N_4  and  C_8
REMARK    5  A    between atoms: C_5  and  C_6
REMARK    6  A    between atoms: C_12  and  C_13
REMARK    7  A    between atoms: C_13  and  C_14
REMARK    8  A    between atoms: C_14  and  C_15
REMARK    9  A    between atoms: C_15  and  N_16
REMARK   10  A    between atoms: N_16  and  C_17
REMARK   11  A    between atoms: N_16  and  C_18
REMARK                            x       y       z     vdW  Elec       q    Type
REMARK                         _______ _______ _______ _____ _____    ______ ____
ROOT
ATOM      1  C   UNL     1       2.920   5.899  19.104  0.00  0.00    +0.000 C 
ATOM      2  C   UNL     1       3.203   6.171  17.571  0.00  0.00    +0.000 C 
ATOM      3  C   UNL     1       4.574   5.799  17.070  0.00  0.00    +0.000 A 
ATOM      4  C   UNL     1       5.132   6.356  15.910  0.00  0.00    +0.000 A 
ATOM      5  C   UNL     1       6.358   5.890  15.426  0.00  0.00    +0.000 A 
ATOM      6  C   UNL     1       7.008   4.836  16.069  0.00  0.00    +0.000 A 
ATOM      7  C   UNL     1       6.494   4.317  17.254  0.00  0.00    +0.000 A 
ATOM      8  C   UNL     1       5.305   4.855  17.778  0.00  0.00    +0.000 A 
ATOM      9  C   UNL     1       4.833   4.510  19.127  0.00  0.00    +0.000 C 
ATOM     10  O   UNL     1       5.041   3.436  19.660  0.00  0.00    +0.000 OA
ATOM     11  O   UNL     1       4.213   5.594  19.714  0.00  0.00    +0.000 OA
ENDROOT
BRANCH   1  16
ATOM     12  C   UNL     1       1.282   9.459  19.278  0.00  0.00    +0.000 A 
ATOM     13  C   UNL     1       0.754   9.361  20.585  0.00  0.00    +0.000 A 
ATOM     14  C   UNL     1       1.001   8.277  21.413  0.00  0.00    +0.000 A 
ATOM     15  C   UNL     1       1.745   7.218  20.923  0.00  0.00    +0.000 A 
ATOM     16  C   UNL     1       2.236   7.202  19.599  0.00  0.00    +0.000 A 
ATOM     17  C   UNL     1       2.022   8.342  18.809  0.00  0.00    +0.000 A 
BRANCH  12  18
ATOM     18  N   UNL     1       1.043  10.615  18.520  0.00  0.00    +0.000 N 
BRANCH  18  19
ATOM     19  C   UNL     1       2.146  11.424  18.004  0.00  0.00    +0.000 C 
BRANCH  19  21
ATOM     20  C   UNL     1       2.550  13.525  19.462  0.00  0.00    +0.000 C 
ATOM     21  C   UNL     1       2.076  12.880  18.387  0.00  0.00    +0.000 C 
ENDBRANCH  19  21
ENDBRANCH  18  19
BRANCH  18  22
ATOM     22  C   UNL     1      -0.296  11.219  18.558  0.00  0.00    +0.000 C 
BRANCH  22  23
ATOM     23  C   UNL     1      -1.423  10.286  18.187  0.00  0.00    +0.000 C 
ATOM     24  C   UNL     1      -1.864   9.916  16.978  0.00  0.00    +0.000 C 
ENDBRANCH  22  23
ENDBRANCH  18  22
ENDBRANCH  12  18
ENDBRANCH   1  16
BRANCH   1  25
ATOM     25  C   UNL     1       2.029   4.714  19.629  0.00  0.00    +0.000 C 
BRANCH  25  26
ATOM     26  C   UNL     1       1.191   3.842  18.700  0.00  0.00    +0.000 C 
BRANCH  26  27
ATOM     27  N   UNL     1       1.495   2.411  18.780  0.00  0.00    +0.000 NA
ATOM     28  C   UNL     1       2.526   2.023  17.808  0.00  0.00    +0.000 C 
ATOM     29  C   UNL     1       1.954   2.092  20.136  0.00  0.00    +0.000 C 
ENDBRANCH  26  27
ENDBRANCH  25  26
ENDBRANCH   1  25
TORSDOF 9
ENDMDL
MODEL 2
REMARK VINA RESULT:      -7.5      0.263      2.118
REMARK  Name = 
REMARK  11 active torsions:
REMARK  status: ('A' for Active; 'I' for Inactive)
REMARK    1  A    between atoms: C_2  and  C_3
REMARK    2  A    between atoms: C_3  and  N_4
REMARK    3  A    between atoms: N_4  and  C_5
REMARK    4  A    between atoms: N_4  and  C_8
REMARK    5  A    between atoms: C_5  and  C_6
REMARK    6  A    between atoms: C_12  and  C_13
REMARK    7  A    between atoms: C_13  and  C_14
REMARK    8  A    between atoms: C_14  and  C_15
REMARK    9  A    between atoms: C_15  and  N_16
REMARK   10  A    between atoms: N_16  and  C_17
REMARK   11  A    between atoms: N_16  and  C_18
REMARK                            x       y       z     vdW  Elec       q    Type
REMARK                         _______ _______ _______ _____ _____    ______ ____
ROOT
ATOM      1  C   UNL     1       2.963   5.830  19.143  0.00  0.00    +0.000 C 
ATOM      2  C   UNL     1       3.194   6.115  17.605  0.00  0.00    +0.000 C 
ATOM      3  C   UNL     1       4.562   5.792  17.065  0.00  0.00    +0.000 A 
ATOM      4  C   UNL     1       5.069   6.372  15.892  0.00  0.00    +0.000 A 
ATOM      5  C   UNL     1       6.296   5.949  15.373  0.00  0.00    +0.000 A 
ATOM      6  C   UNL     1       6.999   4.917  15.994  0.00  0.00    +0.000 A 
ATOM      7  C   UNL     1       6.537   4.377  17.191  0.00  0.00    +0.000 A 
ATOM      8  C   UNL     1       5.345   4.872  17.749  0.00  0.00    +0.000 A 
ATOM      9  C   UNL     1       4.922   4.508  19.110  0.00  0.00    +0.000 C 
ATOM     10  O   UNL     1       5.181   3.440  19.633  0.00  0.00    +0.000 OA
ATOM     11  O   UNL     1       4.282   5.568  19.717  0.00  0.00    +0.000 OA
ENDROOT
BRANCH   1  16
ATOM     12  C   UNL     1       1.266   9.358  19.387  0.00  0.00    +0.000 A 
ATOM     13  C   UNL     1       0.712   9.213  20.679  0.00  0.00    +0.000 A 
ATOM     14  C   UNL     1       0.959   8.110  21.480  0.00  0.00    +0.000 A 
ATOM     15  C   UNL     1       1.730   7.077  20.975  0.00  0.00    +0.000 A 
ATOM     16  C   UNL     1       2.248   7.107  19.662  0.00  0.00    +0.000 A 
ATOM     17  C   UNL     1       2.033   8.267  18.901  0.00  0.00    +0.000 A 
BRANCH  12  18
ATOM     18  N   UNL     1       1.025  10.532  18.659  0.00  0.00    +0.000 N 
BRANCH  18  19
ATOM     19  C   UNL     1      -0.336  10.965  18.347  0.00  0.00    +0.000 C 
BRANCH  19  21
ATOM     20  C   UNL     1      -2.441   9.956  17.228  0.00  0.00    +0.000 C 
ATOM     21  C   UNL     1      -1.151   9.948  17.589  0.00  0.00    +0.000 C 
ENDBRANCH  19  21
ENDBRANCH  18  19
BRANCH  18  22
ATOM     22  C   UNL     1       2.129  11.126  17.891  0.00  0.00    +0.000 C 
BRANCH  22  23
ATOM     23  C   UNL     1       2.435  12.565  18.232  0.00  0.00    +0.000 C 
ATOM     24  C   UNL     1       2.349  13.203  19.406  0.00  0.00    +0.000 C 
ENDBRANCH  22  23
ENDBRANCH  18  22
ENDBRANCH  12  18
ENDBRANCH   1  16
BRANCH   1  25
ATOM     25  C   UNL     1       2.128   4.613  19.689  0.00  0.00    +0.000 C 
BRANCH  25  26
ATOM     26  C   UNL     1       1.159   3.824  18.815  0.00  0.00    +0.000 C 
BRANCH  26  27
ATOM     27  N   UNL     1       1.498   2.407  18.668  0.00  0.00    +0.000 NA
ATOM     28  C   UNL     1       2.499   2.198  17.613  0.00  0.00    +0.000 C 
ATOM     29  C   UNL     1       2.016   1.902  19.943  0.00  0.00    +0.000 C 
ENDBRANCH  26  27
ENDBRANCH  25  26
ENDBRANCH   1  25
TORSDOF 9
ENDMDL
MODEL 3
REMARK VINA RESULT:      -7.3      3.748      8.375
REMARK  Name = 
REMARK  11 active torsions:
REMARK  status: ('A' for Active; 'I' for Inactive)
REMARK    1  A    between atoms: C_2  and  C_3
REMARK    2  A    between atoms: C_3  and  N_4
REMARK    3  A    between atoms: N_4  and  C_5
REMARK    4  A    between atoms: N_4  and  C_8
REMARK    5  A    between atoms: C_5  and  C_6
REMARK    6  A    between atoms: C_12  and  C_13
REMARK    7  A    between atoms: C_13  and  C_14
REMARK    8  A    between atoms: C_14  and  C_15
REMARK    9  A    between atoms: C_15  and  N_16
REMARK   10  A    between atoms: N_16  and  C_17
REMARK   11  A    between atoms: N_16  and  C_18
REMARK                            x       y       z     vdW  Elec       q    Type
REMARK                         _______ _______ _______ _____ _____    ______ ____
ROOT
ATOM      1  C   UNL     1       5.559   4.921  16.378  0.00  0.00    +0.000 C 
ATOM      2  C   UNL     1       4.312   3.950  16.419  0.00  0.00    +0.000 C 
ATOM      3  C   UNL     1       4.132   3.149  17.682  0.00  0.00    +0.000 A 
ATOM      4  C   UNL     1       3.384   1.963  17.725  0.00  0.00    +0.000 A 
ATOM      5  C   UNL     1       3.152   1.323  18.947  0.00  0.00    +0.000 A 
ATOM      6  C   UNL     1       3.623   1.887  20.132  0.00  0.00    +0.000 A 
ATOM      7  C   UNL     1       4.418   3.030  20.095  0.00  0.00    +0.000 A 
ATOM      8  C   UNL     1       4.717   3.615  18.852  0.00  0.00    +0.000 A 
ATOM      9  C   UNL     1       5.723   4.680  18.724  0.00  0.00    +0.000 C 
ATOM     10  O   UNL     1       5.964   5.489  19.601  0.00  0.00    +0.000 OA
ATOM     11  O   UNL     1       6.395   4.568  17.524  0.00  0.00    +0.000 OA
ENDROOT
BRANCH   1  16
ATOM     12  C   UNL     1       6.232   3.671  12.722  0.00  0.00    +0.000 A 
ATOM     13  C   UNL     1       7.316   4.528  12.424  0.00  0.00    +0.000 A 
ATOM     14  C   UNL     1       7.883   5.372  13.366  0.00  0.00    +0.000 A 
ATOM     15  C   UNL     1       7.329   5.426  14.633  0.00  0.00    +0.000 A 
ATOM     16  C   UNL     1       6.192   4.666  14.983  0.00  0.00    +0.000 A 
ATOM     17  C   UNL     1       5.683   3.774  14.026  0.00  0.00    +0.000 A 
BRANCH  12  18
ATOM     18  N   UNL     1       5.752   2.797  11.736  0.00  0.00    +0.000 N 
BRANCH  18  19
ATOM     19  C   UNL     1       4.328   2.725  11.414  0.00  0.00    +0.000 C 
BRANCH  19  21
ATOM     20  C   UNL     1       2.999   4.067   9.643  0.00  0.00    +0.000 C 
ATOM     21  C   UNL     1       3.788   3.949  10.720  0.00  0.00    +0.000 C 
ENDBRANCH  19  21
ENDBRANCH  18  19
BRANCH  18  22
ATOM     22  C   UNL     1       6.615   1.693  11.291  0.00  0.00    +0.000 C 
BRANCH  22  23
ATOM     23  C   UNL     1       5.885   0.417  10.947  0.00  0.00    +0.000 C 
ATOM     24  C   UNL     1       6.080  -0.829  11.397  0.00  0.00    +0.000 C 
ENDBRANCH  22  23
ENDBRANCH  18  22
ENDBRANCH  12  18
ENDBRANCH   1  16
BRANCH   1  25
ATOM     25  C   UNL     1       5.453   6.484  16.527  0.00  0.00    +0.000 C 
BRANCH  25  26
ATOM     26  C   UNL     1       4.123   7.227  16.462  0.00  0.00    +0.000 C 
BRANCH  26  27
ATOM     27  N   UNL     1       3.535   7.524  17.770  0.00  0.00    +0.000 NA
ATOM     28  C   UNL     1       2.811   8.803  17.758  0.00  0.00    +0.000 C 
ATOM     29  C   UNL     1       2.616   6.444  18.141  0.00  0.00    +0.000 C 
ENDBRANCH  26  27
ENDBRANCH  25  26
ENDBRANCH   1  25
TORSDOF 9
ENDMDL
MODEL 4
REMARK VINA RESULT:      -7.1      1.129      1.367
REMARK  Name = 
REMARK  11 active torsions:
REMARK  status: ('A' for Active; 'I' for Inactive)
REMARK    1  A    between atoms: C_2  and  C_3
REMARK    2  A    between atoms: C_3  and  N_4
REMARK    3  A    between atoms: N_4  and  C_5
REMARK    4  A    between atoms: N_4  and  C_8
REMARK    5  A    between atoms: C_5  and  C_6
REMARK    6  A    between atoms: C_12  and  C_13
REMARK    7  A    between atoms: C_13  and  C_14
REMARK    8  A    between atoms: C_14  and  C_15
REMARK    9  A    between atoms: C_15  and  N_16
REMARK   10  A    between atoms: N_16  and  C_17
REMARK   11  A    between atoms: N_16  and  C_18
REMARK                            x       y       z     vdW  Elec       q    Type
REMARK                         _______ _______ _______ _____ _____    ______ ____
ROOT
ATOM      1  C   UNL     1       2.741   6.298  19.104  0.00  0.00    +0.000 C 
ATOM      2  C   UNL     1       3.571   6.833  17.868  0.00  0.00    +0.000 C 
ATOM      3  C   UNL     1       5.009   6.393  17.789  0.00  0.00    +0.000 A 
ATOM      4  C   UNL     1       5.975   7.095  17.053  0.00  0.00    +0.000 A 
ATOM      5  C   UNL     1       7.268   6.578  16.918  0.00  0.00    +0.000 A 
ATOM      6  C   UNL     1       7.587   5.340  17.476  0.00  0.00    +0.000 A 
ATOM      7  C   UNL     1       6.655   4.665  18.259  0.00  0.00    +0.000 A 
ATOM      8  C   UNL     1       5.387   5.238  18.459  0.00  0.00    +0.000 A 
ATOM      9  C   UNL     1       4.442   4.692  19.446  0.00  0.00    +0.000 C 
ATOM     10  O   UNL     1       4.389   3.515  19.749  0.00  0.00    +0.000 OA
ATOM     11  O   UNL     1       3.710   5.708  20.026  0.00  0.00    +0.000 OA
ENDROOT
BRANCH   1  16
ATOM     12  C   UNL     1       0.767   9.678  19.343  0.00  0.00    +0.000 A 
ATOM     13  C   UNL     1       0.431   9.605  20.713  0.00  0.00    +0.000 A 
ATOM     14  C   UNL     1       0.902   8.603  21.547  0.00  0.00    +0.000 A 
ATOM     15  C   UNL     1       1.684   7.597  21.007  0.00  0.00    +0.000 A 
ATOM     16  C   UNL     1       1.993   7.552  19.630  0.00  0.00    +0.000 A 
ATOM     17  C   UNL     1       1.554   8.616  18.826  0.00  0.00    +0.000 A 
BRANCH  12  18
ATOM     18  N   UNL     1       0.306  10.757  18.575  0.00  0.00    +0.000 N 
BRANCH  18  19
ATOM     19  C   UNL     1       0.543  12.139  18.989  0.00  0.00    +0.000 C 
BRANCH  19  21
ATOM     20  C   UNL     1      -1.572  13.221  20.020  0.00  0.00    +0.000 C 
ATOM     21  C   UNL     1      -0.698  12.994  19.029  0.00  0.00    +0.000 C 
ENDBRANCH  19  21
ENDBRANCH  18  19
BRANCH  18  22
ATOM     22  C   UNL     1      -0.729  10.510  17.560  0.00  0.00    +0.000 C 
BRANCH  22  23
ATOM     23  C   UNL     1      -1.989   9.866  18.084  0.00  0.00    +0.000 C 
ATOM     24  C   UNL     1      -3.252   9.984  17.656  0.00  0.00    +0.000 C 
ENDBRANCH  22  23
ENDBRANCH  18  22
ENDBRANCH  12  18
ENDBRANCH   1  16
BRANCH   1  25
ATOM     25  C   UNL     1       1.661   5.159  19.000  0.00  0.00    +0.000 C 
BRANCH  25  26
ATOM     26  C   UNL     1       1.479   4.310  17.747  0.00  0.00    +0.000 C 
BRANCH  26  27
ATOM     27  N   UNL     1       1.253   2.887  18.009  0.00  0.00    +0.000 NA
ATOM     28  C   UNL     1       2.433   2.082  17.665  0.00  0.00    +0.000 C 
ATOM     29  C   UNL     1       0.932   2.705  19.428  0.00  0.00    +0.000 C 
ENDBRANCH  26  27
ENDBRANCH  25  26
ENDBRANCH   1  25
TORSDOF 9
ENDMDL
MODEL 5
REMARK VINA RESULT:      -7.1      3.575      6.534
REMARK  Name = 
REMARK  11 active torsions:
REMARK  status: ('A' for Active; 'I' for Inactive)
REMARK    1  A    between atoms: C_2  and  C_3
REMARK    2  A    between atoms: C_3  and  N_4
REMARK    3  A    between atoms: N_4  and  C_5
REMARK    4  A    between atoms: N_4  and  C_8
REMARK    5  A    between atoms: C_5  and  C_6
REMARK    6  A    between atoms: C_12  and  C_13
REMARK    7  A    between atoms: C_13  and  C_14
REMARK    8  A    between atoms: C_14  and  C_15
REMARK    9  A    between atoms: C_15  and  N_16
REMARK   10  A    between atoms: N_16  and  C_17
REMARK   11  A    between atoms: N_16  and  C_18
REMARK                            x       y       z     vdW  Elec       q    Type
REMARK                         _______ _______ _______ _____ _____    ______ ____
ROOT
ATOM      1  C   UNL     1       6.079   5.105  15.770  0.00  0.00    +0.000 C 
ATOM      2  C   UNL     1       5.579   3.757  15.110  0.00  0.00    +0.000 C 
ATOM      3  C   UNL     1       5.858   3.592  13.638  0.00  0.00    +0.000 A 
ATOM      4  C   UNL     1       5.128   2.714  12.825  0.00  0.00    +0.000 A 
ATOM      5  C   UNL     1       5.503   2.513  11.493  0.00  0.00    +0.000 A 
ATOM      6  C   UNL     1       6.634   3.151  10.982  0.00  0.00    +0.000 A 
ATOM      7  C   UNL     1       7.329   4.071  11.762  0.00  0.00    +0.000 A 
ATOM      8  C   UNL     1       6.889   4.329  13.072  0.00  0.00    +0.000 A 
ATOM      9  C   UNL     1       7.436   5.441  13.864  0.00  0.00    +0.000 C 
ATOM     10  O   UNL     1       8.575   5.853  13.749  0.00  0.00    +0.000 OA
ATOM     11  O   UNL     1       6.458   5.988  14.669  0.00  0.00    +0.000 OA
ENDROOT
BRANCH   1  16
ATOM     12  C   UNL     1       2.994   5.219  18.188  0.00  0.00    +0.000 A 
ATOM     13  C   UNL     1       2.909   6.623  18.323  0.00  0.00    +0.000 A 
ATOM     14  C   UNL     1       3.707   7.494  17.596  0.00  0.00    +0.000 A 
ATOM     15  C   UNL     1       4.667   6.970  16.749  0.00  0.00    +0.000 A 
ATOM     16  C   UNL     1       4.873   5.578  16.624  0.00  0.00    +0.000 A 
ATOM     17  C   UNL     1       4.005   4.725  17.325  0.00  0.00    +0.000 A 
BRANCH  12  18
ATOM     18  N   UNL     1       2.110   4.401  18.908  0.00  0.00    +0.000 N 
BRANCH  18  19
ATOM     19  C   UNL     1       1.313   3.373  18.240  0.00  0.00    +0.000 C 
BRANCH  19  21
ATOM     20  C   UNL     1       3.182   1.616  18.592  0.00  0.00    +0.000 C 
ATOM     21  C   UNL     1       2.008   2.043  18.105  0.00  0.00    +0.000 C 
ENDBRANCH  19  21
ENDBRANCH  18  19
BRANCH  18  22
ATOM     22  C   UNL     1       1.704   4.817  20.259  0.00  0.00    +0.000 C 
BRANCH  22  23
ATOM     23  C   UNL     1       2.116   3.874  21.362  0.00  0.00    +0.000 C 
ATOM     24  C   UNL     1       1.546   2.733  21.770  0.00  0.00    +0.000 C 
ENDBRANCH  22  23
ENDBRANCH  18  22
ENDBRANCH  12  18
ENDBRANCH   1  16
BRANCH   1  25
ATOM     25  C   UNL     1       7.339   5.201  16.708  0.00  0.00    +0.000 C 
BRANCH  25  26
ATOM     26  C   UNL     1       7.320   4.738  18.160  0.00  0.00    +0.000 C 
BRANCH  26  27
ATOM     27  N   UNL     1       7.434   5.820  19.140  0.00  0.00    +0.000 NA
ATOM     28  C   UNL     1       8.302   5.441  20.263  0.00  0.00    +0.000 C 
ATOM     29  C   UNL     1       7.977   7.011  18.480  0.00  0.00    +0.000 C 
ENDBRANCH  26  27
ENDBRANCH  25  26
ENDBRANCH   1  25
TORSDOF 9
ENDMDL
MODEL 6
REMARK VINA RESULT:      -6.9      1.071      2.116
REMARK  Name = 
REMARK  11 active torsions:
REMARK  status: ('A' for Active; 'I' for Inactive)
REMARK    1  A    between atoms: C_2  and  C_3
REMARK    2  A    between atoms: C_3  and  N_4
REMARK    3  A    between atoms: N_4  and  C_5
REMARK    4  A    between atoms: N_4  and  C_8
REMARK    5  A    between atoms: C_5  and  C_6
REMARK    6  A    between atoms: C_12  and  C_13
REMARK    7  A    between atoms: C_13  and  C_14
REMARK    8  A    between atoms: C_14  and  C_15
REMARK    9  A    between atoms: C_15  and  N_16
REMARK   10  A    between atoms: N_16  and  C_17
REMARK   11  A    between atoms: N_16  and  C_18
REMARK                            x       y       z     vdW  Elec       q    Type
REMARK                         _______ _______ _______ _____ _____    ______ ____
ROOT
ATOM      1  C   UNL     1       2.807   6.148  19.103  0.00  0.00    +0.000 C 
ATOM      2  C   UNL     1       3.593   6.692  17.843  0.00  0.00    +0.000 C 
ATOM      3  C   UNL     1       5.018   6.229  17.695  0.00  0.00    +0.000 A 
ATOM      4  C   UNL     1       5.965   6.928  16.931  0.00  0.00    +0.000 A 
ATOM      5  C   UNL     1       7.241   6.393  16.731  0.00  0.00    +0.000 A 
ATOM      6  C   UNL     1       7.562   5.139  17.252  0.00  0.00    +0.000 A 
ATOM      7  C   UNL     1       6.652   4.465  18.062  0.00  0.00    +0.000 A 
ATOM      8  C   UNL     1       5.403   5.055  18.327  0.00  0.00    +0.000 A 
ATOM      9  C   UNL     1       4.492   4.508  19.344  0.00  0.00    +0.000 C 
ATOM     10  O   UNL     1       4.431   3.326  19.628  0.00  0.00    +0.000 OA
ATOM     11  O   UNL     1       3.804   5.525  19.972  0.00  0.00    +0.000 OA
ENDROOT
BRANCH   1  16
ATOM     12  C   UNL     1       0.954   9.583  19.489  0.00  0.00    +0.000 A 
ATOM     13  C   UNL     1       0.617   9.465  20.856  0.00  0.00    +0.000 A 
ATOM     14  C   UNL     1       1.052   8.412  21.646  0.00  0.00    +0.000 A 
ATOM     15  C   UNL     1       1.798   7.403  21.062  0.00  0.00    +0.000 A 
ATOM     16  C   UNL     1       2.104   7.404  19.684  0.00  0.00    +0.000 A 
ATOM     17  C   UNL     1       1.703   8.516  18.927  0.00  0.00    +0.000 A 
BRANCH  12  18
ATOM     18  N   UNL     1       0.531  10.709  18.768  0.00  0.00    +0.000 N 
BRANCH  18  19
ATOM     19  C   UNL     1      -0.666  10.668  17.930  0.00  0.00    +0.000 C 
BRANCH  19  21
ATOM     20  C   UNL     1      -2.419  12.014  19.279  0.00  0.00    +0.000 C 
ATOM     21  C   UNL     1      -1.952  10.911  18.677  0.00  0.00    +0.000 C 
ENDBRANCH  19  21
ENDBRANCH  18  19
BRANCH  18  22
ATOM     22  C   UNL     1       1.483  11.809  18.554  0.00  0.00    +0.000 C 
BRANCH  22  23
ATOM     23  C   UNL     1       1.166  13.077  19.309  0.00  0.00    +0.000 C 
ATOM     24  C   UNL     1       0.929  13.259  20.615  0.00  0.00    +0.000 C 
ENDBRANCH  22  23
ENDBRANCH  18  22
ENDBRANCH  12  18
ENDBRANCH   1  16
BRANCH   1  25
ATOM     25  C   UNL     1       1.703   5.029  19.026  0.00  0.00    +0.000 C 
BRANCH  25  26
ATOM     26  C   UNL     1       0.969   4.514  20.259  0.00  0.00    +0.000 C 
BRANCH  26  27
ATOM     27  N   UNL     1       0.821   3.057  20.307  0.00  0.00    +0.000 NA
ATOM     28  C   UNL     1       1.255   2.430  19.052  0.00  0.00    +0.000 C 
ATOM     29  C   UNL     1       1.615   2.530  21.421  0.00  0.00    +0.000 C 
ENDBRANCH  26  27
ENDBRANCH  25  26
ENDBRANCH   1  25
TORSDOF 9
ENDMDL
MODEL 7
REMARK VINA RESULT:      -6.9      3.655      6.555
REMARK  Name = 
REMARK  11 active torsions:
REMARK  status: ('A' for Active; 'I' for Inactive)
REMARK    1  A    between atoms: C_2  and  C_3
REMARK    2  A    between atoms: C_3  and  N_4
REMARK    3  A    between atoms: N_4  and  C_5
REMARK    4  A    between atoms: N_4  and  C_8
REMARK    5  A    between atoms: C_5  and  C_6
REMARK    6  A    between atoms: C_12  and  C_13
REMARK    7  A    between atoms: C_13  and  C_14
REMARK    8  A    between atoms: C_14  and  C_15
REMARK    9  A    between atoms: C_15  and  N_16
REMARK   10  A    between atoms: N_16  and  C_17
REMARK   11  A    between atoms: N_16  and  C_18
REMARK                            x       y       z     vdW  Elec       q    Type
REMARK                         _______ _______ _______ _____ _____    ______ ____
ROOT
ATOM      1  C   UNL     1       6.127   5.113  15.604  0.00  0.00    +0.000 C 
ATOM      2  C   UNL     1       5.691   3.717  15.002  0.00  0.00    +0.000 C 
ATOM      3  C   UNL     1       5.969   3.507  13.536  0.00  0.00    +0.000 A 
ATOM      4  C   UNL     1       5.278   2.562  12.764  0.00  0.00    +0.000 A 
ATOM      5  C   UNL     1       5.656   2.327  11.438  0.00  0.00    +0.000 A 
ATOM      6  C   UNL     1       6.750   2.999  10.893  0.00  0.00    +0.000 A 
ATOM      7  C   UNL     1       7.403   3.983  11.630  0.00  0.00    +0.000 A 
ATOM      8  C   UNL     1       6.958   4.271  12.933  0.00  0.00    +0.000 A 
ATOM      9  C   UNL     1       7.454   5.440  13.675  0.00  0.00    +0.000 C 
ATOM     10  O   UNL     1       8.571   5.903  13.535  0.00  0.00    +0.000 OA
ATOM     11  O   UNL     1       6.455   5.969  14.466  0.00  0.00    +0.000 OA
ENDROOT
BRANCH   1  16
ATOM     12  C   UNL     1       2.940   5.142  17.890  0.00  0.00    +0.000 A 
ATOM     13  C   UNL     1       2.910   6.530  18.156  0.00  0.00    +0.000 A 
ATOM     14  C   UNL     1       3.778   7.427  17.552  0.00  0.00    +0.000 A 
ATOM     15  C   UNL     1       4.753   6.941  16.700  0.00  0.00    +0.000 A 
ATOM     16  C   UNL     1       4.904   5.560  16.449  0.00  0.00    +0.000 A 
ATOM     17  C   UNL     1       3.969   4.686  17.025  0.00  0.00    +0.000 A 
BRANCH  12  18
ATOM     18  N   UNL     1       1.989   4.303  18.488  0.00  0.00    +0.000 N 
BRANCH  18  19
ATOM     19  C   UNL     1       1.438   4.602  19.809  0.00  0.00    +0.000 C 
BRANCH  19  21
ATOM     20  C   UNL     1       2.158   2.881  21.605  0.00  0.00    +0.000 C 
ATOM     21  C   UNL     1       1.306   3.401  20.710  0.00  0.00    +0.000 C 
ENDBRANCH  19  21
ENDBRANCH  18  19
BRANCH  18  22
ATOM     22  C   UNL     1       1.822   2.939  17.964  0.00  0.00    +0.000 C 
BRANCH  22  23
ATOM     23  C   UNL     1       3.102   2.151  17.832  0.00  0.00    +0.000 C 
ATOM     24  C   UNL     1       3.657   1.271  18.676  0.00  0.00    +0.000 C 
ENDBRANCH  22  23
ENDBRANCH  18  22
ENDBRANCH  12  18
ENDBRANCH   1  16
BRANCH   1  25
ATOM     25  C   UNL     1       7.387   5.309  16.527  0.00  0.00    +0.000 C 
BRANCH  25  26
ATOM     26  C   UNL     1       7.607   4.498  17.799  0.00  0.00    +0.000 C 
BRANCH  26  27
ATOM     27  N   UNL     1       7.648   5.299  19.025  0.00  0.00    +0.000 NA
ATOM     28  C   UNL     1       8.051   6.685  18.750  0.00  0.00    +0.000 C 
ATOM     29  C   UNL     1       6.323   5.288  19.651  0.00  0.00    +0.000 C 
ENDBRANCH  26  27
ENDBRANCH  25  26
ENDBRANCH   1  25
TORSDOF 9
ENDMDL
MODEL 8
REMARK VINA RESULT:      -6.8      2.037      4.572
REMARK  Name = 
REMARK  11 active torsions:
REMARK  status: ('A' for Active; 'I' for Inactive)
REMARK    1  A    between atoms: C_2  and  C_3
REMARK    2  A    between atoms: C_3  and  N_4
REMARK    3  A    between atoms: N_4  and  C_5
REMARK    4  A    between atoms: N_4  and  C_8
REMARK    5  A    between atoms: C_5  and  C_6
REMARK    6  A    between atoms: C_12  and  C_13
REMARK    7  A    between atoms: C_13  and  C_14
REMARK    8  A    between atoms: C_14  and  C_15
REMARK    9  A    between atoms: C_15  and  N_16
REMARK   10  A    between atoms: N_16  and  C_17
REMARK   11  A    between atoms: N_16  and  C_18
REMARK                            x       y       z     vdW  Elec       q    Type
REMARK                         _______ _______ _______ _____ _____    ______ ____
ROOT
ATOM      1  C   UNL     1       2.888   6.569  18.284  0.00  0.00    +0.000 C 
ATOM      2  C   UNL     1       2.991   6.129  19.800  0.00  0.00    +0.000 C 
ATOM      3  C   UNL     1       2.506   4.741  20.127  0.00  0.00    +0.000 A 
ATOM      4  C   UNL     1       2.116   4.362  21.420  0.00  0.00    +0.000 A 
ATOM      5  C   UNL     1       1.786   3.030  21.691  0.00  0.00    +0.000 A 
ATOM      6  C   UNL     1       1.888   2.067  20.688  0.00  0.00    +0.000 A 
ATOM      7  C   UNL     1       2.214   2.443  19.388  0.00  0.00    +0.000 A 
ATOM      8  C   UNL     1       2.458   3.799  19.109  0.00  0.00    +0.000 A 
ATOM      9  C   UNL     1       2.587   4.291  17.729  0.00  0.00    +0.000 C 
ATOM     10  O   UNL     1       3.026   3.621  16.813  0.00  0.00    +0.000 OA
ATOM     11  O   UNL     1       2.063   5.562  17.619  0.00  0.00    +0.000 OA
ENDROOT
BRANCH   1  16
ATOM     12  C   UNL     1       0.726   9.705  19.218  0.00  0.00    +0.000 A 
ATOM     13  C   UNL     1       1.493  10.675  18.535  0.00  0.00    +0.000 A 
ATOM     14  C   UNL     1       2.567  10.344  17.724  0.00  0.00    +0.000 A 
ATOM     15  C   UNL     1       2.945   9.017  17.625  0.00  0.00    +0.000 A 
ATOM     16  C   UNL     1       2.283   7.997  18.344  0.00  0.00    +0.000 A 
ATOM     17  C   UNL     1       1.160   8.359  19.105  0.00  0.00    +0.000 A 
BRANCH  12  18
ATOM     18  N   UNL     1      -0.388  10.108  19.970  0.00  0.00    +0.000 N 
BRANCH  18  19
ATOM     19  C   UNL     1      -1.452  10.915  19.375  0.00  0.00    +0.000 C 
BRANCH  19  21
ATOM     20  C   UNL     1      -2.073  10.181  16.971  0.00  0.00    +0.000 C 
ATOM     21  C   UNL     1      -2.238  10.208  18.301  0.00  0.00    +0.000 C 
ENDBRANCH  19  21
ENDBRANCH  18  19
BRANCH  18  22
ATOM     22  C   UNL     1      -0.311  10.043  21.436  0.00  0.00    +0.000 C 
BRANCH  22  23
ATOM     23  C   UNL     1      -0.567  11.352  22.143  0.00  0.00    +0.000 C 
ATOM     24  C   UNL     1      -1.514  11.673  23.033  0.00  0.00    +0.000 C 
ENDBRANCH  22  23
ENDBRANCH  18  22
ENDBRANCH  12  18
ENDBRANCH   1  16
BRANCH   1  25
ATOM     25  C   UNL     1       4.125   6.661  17.317  0.00  0.00    +0.000 C 
BRANCH  25  26
ATOM     26  C   UNL     1       5.529   6.241  17.737  0.00  0.00    +0.000 C 
BRANCH  26  27
ATOM     27  N   UNL     1       6.395   5.835  16.628  0.00  0.00    +0.000 NA
ATOM     28  C   UNL     1       7.173   4.635  16.963  0.00  0.00    +0.000 C 
ATOM     29  C   UNL     1       5.569   5.570  15.446  0.00  0.00    +0.000 C 
ENDBRANCH  26  27
ENDBRANCH  25  26
ENDBRANCH   1  25
TORSDOF 9
ENDMDL
MODEL 9
REMARK VINA RESULT:      -6.8      0.995      2.429
REMARK  Name = 
REMARK  11 active torsions:
REMARK  status: ('A' for Active; 'I' for Inactive)
REMARK    1  A    between atoms: C_2  and  C_3
REMARK    2  A    between atoms: C_3  and  N_4
REMARK    3  A    between atoms: N_4  and  C_5
REMARK    4  A    between atoms: N_4  and  C_8
REMARK    5  A    between atoms: C_5  and  C_6
REMARK    6  A    between atoms: C_12  and  C_13
REMARK    7  A    between atoms: C_13  and  C_14
REMARK    8  A    between atoms: C_14  and  C_15
REMARK    9  A    between atoms: C_15  and  N_16
REMARK   10  A    between atoms: N_16  and  C_17
REMARK   11  A    between atoms: N_16  and  C_18
REMARK                            x       y       z     vdW  Elec       q    Type
REMARK                         _______ _______ _______ _____ _____    ______ ____
ROOT
ATOM      1  C   UNL     1       2.849   6.209  18.968  0.00  0.00    +0.000 C 
ATOM      2  C   UNL     1       3.720   6.827  17.801  0.00  0.00    +0.000 C 
ATOM      3  C   UNL     1       5.153   6.371  17.725  0.00  0.00    +0.000 A 
ATOM      4  C   UNL     1       6.149   7.113  17.073  0.00  0.00    +0.000 A 
ATOM      5  C   UNL     1       7.437   6.587  16.931  0.00  0.00    +0.000 A 
ATOM      6  C   UNL     1       7.723   5.303  17.396  0.00  0.00    +0.000 A 
ATOM      7  C   UNL     1       6.760   4.583  18.098  0.00  0.00    +0.000 A 
ATOM      8  C   UNL     1       5.495   5.159  18.310  0.00  0.00    +0.000 A 
ATOM      9  C   UNL     1       4.516   4.553  19.226  0.00  0.00    +0.000 C 
ATOM     10  O   UNL     1       4.438   3.356  19.431  0.00  0.00    +0.000 OA
ATOM     11  O   UNL     1       3.784   5.532  19.865  0.00  0.00    +0.000 OA
ENDROOT
BRANCH   1  16
ATOM     12  C   UNL     1       1.051   9.661  19.449  0.00  0.00    +0.000 A 
ATOM     13  C   UNL     1       0.523   9.422  20.738  0.00  0.00    +0.000 A 
ATOM     14  C   UNL     1       0.816   8.281  21.467  0.00  0.00    +0.000 A 
ATOM     15  C   UNL     1       1.609   7.305  20.889  0.00  0.00    +0.000 A 
ATOM     16  C   UNL     1       2.105   7.430  19.573  0.00  0.00    +0.000 A 
ATOM     17  C   UNL     1       1.843   8.626  18.887  0.00  0.00    +0.000 A 
BRANCH  12  18
ATOM     18  N   UNL     1       0.763  10.869  18.797  0.00  0.00    +0.000 N 
BRANCH  18  19
ATOM     19  C   UNL     1      -0.603  11.212  18.405  0.00  0.00    +0.000 C 
BRANCH  19  21
ATOM     20  C   UNL     1      -2.240  10.093  16.740  0.00  0.00    +0.000 C 
ATOM     21  C   UNL     1      -1.361  10.085  17.752  0.00  0.00    +0.000 C 
ENDBRANCH  19  21
ENDBRANCH  18  19
BRANCH  18  22
ATOM     22  C   UNL     1       1.866  11.616  18.175  0.00  0.00    +0.000 C 
BRANCH  22  23
ATOM     23  C   UNL     1       2.187  12.936  18.833  0.00  0.00    +0.000 C 
ATOM     24  C   UNL     1       2.622  14.080  18.289  0.00  0.00    +0.000 C 
ENDBRANCH  22  23
ENDBRANCH  18  22
ENDBRANCH  12  18
ENDBRANCH   1  16
BRANCH   1  25
ATOM     25  C   UNL     1       1.755   5.100  18.746  0.00  0.00    +0.000 C 
BRANCH  25  26
ATOM     26  C   UNL     1       1.065   4.384  19.902  0.00  0.00    +0.000 C 
BRANCH  26  27
ATOM     27  N   UNL     1       1.488   2.994  20.088  0.00  0.00    +0.000 NA
ATOM     28  C   UNL     1       1.395   2.586  21.497  0.00  0.00    +0.000 C 
ATOM     29  C   UNL     1       0.642   2.121  19.268  0.00  0.00    +0.000 C 
ENDBRANCH  26  27
ENDBRANCH  25  26
ENDBRANCH   1  25
TORSDOF 9
ENDMDL
