MODEL 1
REMARK VINA RESULT:      -8.3      0.000      0.000
REMARK  Name = 
REMARK  7 active torsions:
REMARK  status: ('A' for Active; 'I' for Inactive)
REMARK    1  A    between atoms: C_1  and  C_2
REMARK    2  A    between atoms: C_6  and  C_8
REMARK    3  A    between atoms: C_8  and  N_9
REMARK    4  A    between atoms: C_13  and  C_14
REMARK    5  A    between atoms: C_17  and  C_18
REMARK    6  A    between atoms: C_18  and  C_19
REMARK    7  A    between atoms: C_18  and  C_20
REMARK                            x       y       z     vdW  Elec       q    Type
REMARK                         _______ _______ _______ _____ _____    ______ ____
ROOT
ATOM      1  N   UNL     1       0.055  11.324  21.083  0.00  0.00    +0.000 N 
ATOM      2  C   UNL     1       0.570  10.204  21.714  0.00  0.00    +0.000 C 
ATOM      3  O   UNL     1       0.800  10.105  22.913  0.00  0.00    +0.000 OA
ATOM      4  C   UNL     1       0.910   9.154  20.713  0.00  0.00    +0.000 C 
ATOM      5  C   UNL     1       1.356   7.940  21.064  0.00  0.00    +0.000 C 
ATOM      6  S   UNL     1       0.679   9.764  19.125  0.00  0.00    +0.000 S 
ATOM      7  C   UNL     1       0.052  11.304  19.707  0.00  0.00    +0.000 C 
ATOM      8  S   UNL     1      -0.396  12.525  18.662  0.00  0.00    +0.000 S 
ENDROOT
BRANCH   5   9
ATOM      9  C   UNL     1       1.807   6.893  20.139  0.00  0.00    +0.000 A 
ATOM     10  C   UNL     1       1.531   5.555  20.436  0.00  0.00    +0.000 A 
ATOM     11  C   UNL     1       1.914   4.536  19.556  0.00  0.00    +0.000 A 
ATOM     12  C   UNL     1       2.574   4.836  18.356  0.00  0.00    +0.000 A 
ATOM     13  C   UNL     1       2.876   6.179  18.081  0.00  0.00    +0.000 A 
ATOM     14  C   UNL     1       2.492   7.200  18.961  0.00  0.00    +0.000 A 
BRANCH  12  15
ATOM     15  C   UNL     1       2.899   3.725  17.370  0.00  0.00    +0.000 C 
ATOM     16  C   UNL     1       4.377   3.767  16.965  0.00  0.00    +0.000 C 
ATOM     17  C   UNL     1       2.529   2.339  17.902  0.00  0.00    +0.000 C 
ENDBRANCH  12  15
ENDBRANCH   5   9
BRANCH   1  18
ATOM     18  C   UNL     1      -0.417  12.438  21.911  0.00  0.00    +0.000 C 
BRANCH  18  24
ATOM     19  C   UNL     1      -7.715  13.401  20.856  0.00  0.00    +0.000 C 
ATOM     20  C   UNL     1      -6.323  13.105  21.233  0.00  0.00    +0.000 A 
ATOM     21  C   UNL     1      -5.087  13.340  20.674  0.00  0.00    +0.000 A 
ATOM     22  C   UNL     1      -4.157  12.780  21.597  0.00  0.00    +0.000 A 
ATOM     23  N   UNL     1      -2.780  12.805  21.436  0.00  0.00    +0.000 N 
ATOM     24  C   UNL     1      -1.881  12.248  22.343  0.00  0.00    +0.000 C 
ATOM     25  O   UNL     1      -2.164  11.662  23.382  0.00  0.00    +0.000 OA
ATOM     26  N   UNL     1      -4.809  12.240  22.630  0.00  0.00    +0.000 NA
ATOM     27  O   UNL     1      -6.151  12.442  22.407  0.00  0.00    +0.000 OA
ATOM     28  H   UNL     1      -2.439  13.252  20.601  0.00  0.00    +0.000 HD
ENDBRANCH  18  24
ENDBRANCH   1  18
TORSDOF 4
ENDMDL
MODEL 2
REMARK VINA RESULT:      -8.1      1.122      1.128
REMARK  Name = 
REMARK  7 active torsions:
REMARK  status: ('A' for Active; 'I' for Inactive)
REMARK    1  A    between atoms: C_1  and  C_2
REMARK    2  A    between atoms: C_6  and  C_8
REMARK    3  A    between atoms: C_8  and  N_9
REMARK    4  A    between atoms: C_13  and  C_14
REMARK    5  A    between atoms: C_17  and  C_18
REMARK    6  A    between atoms: C_18  and  C_19
REMARK    7  A    between atoms: C_18  and  C_20
REMARK                            x       y       z     vdW  Elec       q    Type
REMARK                         _______ _______ _______ _____ _____    ______ ____
ROOT
ATOM      1  N   UNL     1       0.071  11.184  21.243  0.00  0.00    +0.000 N 
ATOM      2  C   UNL     1       0.683  10.088  21.825  0.00  0.00    +0.000 C 
ATOM      3  O   UNL     1       1.035  10.006  22.995  0.00  0.00    +0.000 OA
ATOM      4  C   UNL     1       0.955   9.039  20.801  0.00  0.00    +0.000 C 
ATOM      5  C   UNL     1       1.474   7.843  21.112  0.00  0.00    +0.000 C 
ATOM      6  S   UNL     1       0.546   9.628  19.241  0.00  0.00    +0.000 S 
ATOM      7  C   UNL     1      -0.069  11.152  19.874  0.00  0.00    +0.000 C 
ATOM      8  S   UNL     1      -0.660  12.349  18.873  0.00  0.00    +0.000 S 
ENDROOT
BRANCH   5   9
ATOM      9  C   UNL     1       1.864   6.804  20.152  0.00  0.00    +0.000 A 
ATOM     10  C   UNL     1       1.532   5.471  20.418  0.00  0.00    +0.000 A 
ATOM     11  C   UNL     1       1.856   4.461  19.505  0.00  0.00    +0.000 A 
ATOM     12  C   UNL     1       2.511   4.764  18.303  0.00  0.00    +0.000 A 
ATOM     13  C   UNL     1       2.868   6.099  18.059  0.00  0.00    +0.000 A 
ATOM     14  C   UNL     1       2.544   7.112  18.972  0.00  0.00    +0.000 A 
BRANCH  12  15
ATOM     15  C   UNL     1       2.771   3.667  17.283  0.00  0.00    +0.000 C 
ATOM     16  C   UNL     1       4.220   3.714  16.786  0.00  0.00    +0.000 C 
ATOM     17  C   UNL     1       2.434   2.274  17.817  0.00  0.00    +0.000 C 
ENDBRANCH  12  15
ENDBRANCH   5   9
BRANCH   1  18
ATOM     18  C   UNL     1      -0.352  12.290  22.108  0.00  0.00    +0.000 C 
BRANCH  18  24
ATOM     19  C   UNL     1      -7.298  14.166  23.988  0.00  0.00    +0.000 C 
ATOM     20  C   UNL     1      -5.959  13.617  23.712  0.00  0.00    +0.000 A 
ATOM     21  C   UNL     1      -4.855  14.039  23.007  0.00  0.00    +0.000 A 
ATOM     22  C   UNL     1      -3.896  13.000  23.175  0.00  0.00    +0.000 A 
ATOM     23  N   UNL     1      -2.618  13.018  22.638  0.00  0.00    +0.000 N 
ATOM     24  C   UNL     1      -1.690  11.991  22.804  0.00  0.00    +0.000 C 
ATOM     25  O   UNL     1      -1.863  10.946  23.423  0.00  0.00    +0.000 OA
ATOM     26  N   UNL     1      -4.410  12.022  23.925  0.00  0.00    +0.000 NA
ATOM     27  O   UNL     1      -5.688  12.404  24.261  0.00  0.00    +0.000 OA
ATOM     28  H   UNL     1      -2.376  13.829  22.094  0.00  0.00    +0.000 HD
ENDBRANCH  18  24
ENDBRANCH   1  18
TORSDOF 4
ENDMDL
MODEL 3
REMARK VINA RESULT:      -7.9      2.026      2.580
REMARK  Name = 
REMARK  7 active torsions:
REMARK  status: ('A' for Active; 'I' for Inactive)
REMARK    1  A    between atoms: C_1  and  C_2
REMARK    2  A    between atoms: C_6  and  C_8
REMARK    3  A    between atoms: C_8  and  N_9
REMARK    4  A    between atoms: C_13  and  C_14
REMARK    5  A    between atoms: C_17  and  C_18
REMARK    6  A    between atoms: C_18  and  C_19
REMARK    7  A    between atoms: C_18  and  C_20
REMARK                            x       y       z     vdW  Elec       q    Type
REMARK                         _______ _______ _______ _____ _____    ______ ____
ROOT
ATOM      1  N   UNL     1       0.209  10.995  20.731  0.00  0.00    +0.000 N 
ATOM      2  C   UNL     1       0.692  10.811  19.448  0.00  0.00    +0.000 C 
ATOM      3  O   UNL     1       0.541  11.586  18.512  0.00  0.00    +0.000 OA
ATOM      4  C   UNL     1       1.344   9.476  19.324  0.00  0.00    +0.000 C 
ATOM      5  C   UNL     1       1.963   9.075  18.205  0.00  0.00    +0.000 C 
ATOM      6  S   UNL     1       1.131   8.586  20.777  0.00  0.00    +0.000 S 
ATOM      7  C   UNL     1       0.317   9.922  21.586  0.00  0.00    +0.000 C 
ATOM      8  S   UNL     1      -0.260   9.789  23.146  0.00  0.00    +0.000 S 
ENDROOT
BRANCH   5   9
ATOM      9  C   UNL     1       2.535   7.743  17.973  0.00  0.00    +0.000 A 
ATOM     10  C   UNL     1       3.838   7.639  17.475  0.00  0.00    +0.000 A 
ATOM     11  C   UNL     1       4.426   6.384  17.279  0.00  0.00    +0.000 A 
ATOM     12  C   UNL     1       3.727   5.208  17.585  0.00  0.00    +0.000 A 
ATOM     13  C   UNL     1       2.409   5.322  18.054  0.00  0.00    +0.000 A 
ATOM     14  C   UNL     1       1.818   6.578  18.253  0.00  0.00    +0.000 A 
BRANCH  12  15
ATOM     15  C   UNL     1       4.415   3.859  17.453  0.00  0.00    +0.000 C 
ATOM     16  C   UNL     1       3.403   2.714  17.571  0.00  0.00    +0.000 C 
ATOM     17  C   UNL     1       5.217   3.732  16.157  0.00  0.00    +0.000 C 
ENDBRANCH  12  15
ENDBRANCH   5   9
BRANCH   1  18
ATOM     18  C   UNL     1      -0.396  12.287  21.073  0.00  0.00    +0.000 C 
BRANCH  18  24
ATOM     19  C   UNL     1      -7.131  13.069  24.126  0.00  0.00    +0.000 C 
ATOM     20  C   UNL     1      -5.897  12.869  23.347  0.00  0.00    +0.000 A 
ATOM     21  C   UNL     1      -4.550  13.000  23.598  0.00  0.00    +0.000 A 
ATOM     22  C   UNL     1      -3.913  12.627  22.380  0.00  0.00    +0.000 A 
ATOM     23  N   UNL     1      -2.541  12.600  22.188  0.00  0.00    +0.000 N 
ATOM     24  C   UNL     1      -1.931  12.239  20.988  0.00  0.00    +0.000 C 
ATOM     25  O   UNL     1      -2.499  11.911  19.952  0.00  0.00    +0.000 OA
ATOM     26  N   UNL     1      -4.833  12.307  21.465  0.00  0.00    +0.000 NA
ATOM     27  O   UNL     1      -6.062  12.454  22.064  0.00  0.00    +0.000 OA
ATOM     28  H   UNL     1      -1.977  12.869  22.977  0.00  0.00    +0.000 HD
ENDBRANCH  18  24
ENDBRANCH   1  18
TORSDOF 4
ENDMDL
MODEL 4
REMARK VINA RESULT:      -7.8      3.474      4.257
REMARK  Name = 
REMARK  7 active torsions:
REMARK  status: ('A' for Active; 'I' for Inactive)
REMARK    1  A    between atoms: C_1  and  C_2
REMARK    2  A    between atoms: C_6  and  C_8
REMARK    3  A    between atoms: C_8  and  N_9
REMARK    4  A    between atoms: C_13  and  C_14
REMARK    5  A    between atoms: C_17  and  C_18
REMARK    6  A    between atoms: C_18  and  C_19
REMARK    7  A    between atoms: C_18  and  C_20
REMARK                            x       y       z     vdW  Elec       q    Type
REMARK                         _______ _______ _______ _____ _____    ______ ____
ROOT
ATOM      1  N   UNL     1       0.847  10.286  19.620  0.00  0.00    +0.000 N 
ATOM      2  C   UNL     1       1.530   9.724  18.555  0.00  0.00    +0.000 C 
ATOM      3  O   UNL     1       1.659  10.229  17.446  0.00  0.00    +0.000 OA
ATOM      4  C   UNL     1       2.010   8.358  18.907  0.00  0.00    +0.000 C 
ATOM      5  C   UNL     1       2.766   7.623  18.080  0.00  0.00    +0.000 C 
ATOM      6  S   UNL     1       1.416   7.912  20.455  0.00  0.00    +0.000 S 
ATOM      7  C   UNL     1       0.651   9.477  20.716  0.00  0.00    +0.000 C 
ATOM      8  S   UNL     1      -0.216   9.815  22.101  0.00  0.00    +0.000 S 
ENDROOT
BRANCH   5   9
ATOM      9  C   UNL     1       3.189   6.237  18.312  0.00  0.00    +0.000 A 
ATOM     10  C   UNL     1       4.467   5.991  18.827  0.00  0.00    +0.000 A 
ATOM     11  C   UNL     1       4.886   4.683  19.096  0.00  0.00    +0.000 A 
ATOM     12  C   UNL     1       4.034   3.594  18.862  0.00  0.00    +0.000 A 
ATOM     13  C   UNL     1       2.766   3.848  18.316  0.00  0.00    +0.000 A 
ATOM     14  C   UNL     1       2.344   5.157  18.047  0.00  0.00    +0.000 A 
BRANCH  12  15
ATOM     15  C   UNL     1       4.473   2.190  19.246  0.00  0.00    +0.000 C 
ATOM     16  C   UNL     1       4.402   1.990  20.764  0.00  0.00    +0.000 C 
ATOM     17  C   UNL     1       3.671   1.105  18.525  0.00  0.00    +0.000 C 
ENDBRANCH  12  15
ENDBRANCH   5   9
BRANCH   1  18
ATOM     18  C   UNL     1       0.367  11.666  19.494  0.00  0.00    +0.000 C 
BRANCH  18  24
ATOM     19  C   UNL     1      -4.388   9.913  14.052  0.00  0.00    +0.000 C 
ATOM     20  C   UNL     1      -3.605  10.357  15.217  0.00  0.00    +0.000 A 
ATOM     21  C   UNL     1      -2.317  10.162  15.662  0.00  0.00    +0.000 A 
ATOM     22  C   UNL     1      -2.233  10.906  16.874  0.00  0.00    +0.000 A 
ATOM     23  N   UNL     1      -1.094  11.002  17.658  0.00  0.00    +0.000 N 
ATOM     24  C   UNL     1      -1.027  11.728  18.846  0.00  0.00    +0.000 C 
ATOM     25  O   UNL     1      -1.939  12.363  19.363  0.00  0.00    +0.000 OA
ATOM     26  N   UNL     1      -3.405  11.493  17.130  0.00  0.00    +0.000 NA
ATOM     27  O   UNL     1      -4.255  11.156  16.103  0.00  0.00    +0.000 OA
ATOM     28  H   UNL     1      -0.286  10.500  17.330  0.00  0.00    +0.000 HD
ENDBRANCH  18  24
ENDBRANCH   1  18
TORSDOF 4
ENDMDL
MODEL 5
REMARK VINA RESULT:      -7.7      1.215      1.692
REMARK  Name = 
REMARK  7 active torsions:
REMARK  status: ('A' for Active; 'I' for Inactive)
REMARK    1  A    between atoms: C_1  and  C_2
REMARK    2  A    between atoms: C_6  and  C_8
REMARK    3  A    between atoms: C_8  and  N_9
REMARK    4  A    between atoms: C_13  and  C_14
REMARK    5  A    between atoms: C_17  and  C_18
REMARK    6  A    between atoms: C_18  and  C_19
REMARK    7  A    between atoms: C_18  and  C_20
REMARK                            x       y       z     vdW  Elec       q    Type
REMARK                         _______ _______ _______ _____ _____    ______ ____
ROOT
ATOM      1  N   UNL     1      -0.462  11.344  20.486  0.00  0.00    +0.000 N 
ATOM      2  C   UNL     1       0.454  10.548  21.151  0.00  0.00    +0.000 C 
ATOM      3  O   UNL     1       1.001  10.824  22.211  0.00  0.00    +0.000 OA
ATOM      4  C   UNL     1       0.770   9.335  20.345  0.00  0.00    +0.000 C 
ATOM      5  C   UNL     1       1.572   8.359  20.792  0.00  0.00    +0.000 C 
ATOM      6  S   UNL     1      -0.003   9.433  18.815  0.00  0.00    +0.000 S 
ATOM      7  C   UNL     1      -0.814  10.944  19.217  0.00  0.00    +0.000 C 
ATOM      8  S   UNL     1      -1.799  11.734  18.127  0.00  0.00    +0.000 S 
ENDROOT
BRANCH   5   9
ATOM      9  C   UNL     1       2.010   7.189  20.021  0.00  0.00    +0.000 A 
ATOM     10  C   UNL     1       2.684   7.384  18.810  0.00  0.00    +0.000 A 
ATOM     11  C   UNL     1       3.148   6.291  18.070  0.00  0.00    +0.000 A 
ATOM     12  C   UNL     1       2.955   4.981  18.528  0.00  0.00    +0.000 A 
ATOM     13  C   UNL     1       2.251   4.793  19.728  0.00  0.00    +0.000 A 
ATOM     14  C   UNL     1       1.786   5.887  20.472  0.00  0.00    +0.000 A 
BRANCH  12  15
ATOM     15  C   UNL     1       3.548   3.811  17.758  0.00  0.00    +0.000 C 
ATOM     16  C   UNL     1       2.461   2.800  17.377  0.00  0.00    +0.000 C 
ATOM     17  C   UNL     1       4.323   4.257  16.517  0.00  0.00    +0.000 C 
ENDBRANCH  12  15
ENDBRANCH   5   9
BRANCH   1  18
ATOM     18  C   UNL     1      -0.961  12.548  21.159  0.00  0.00    +0.000 C 
BRANCH  18  24
ATOM     19  C   UNL     1      -7.675  13.512  24.207  0.00  0.00    +0.000 C 
ATOM     20  C   UNL     1      -6.318  13.175  23.746  0.00  0.00    +0.000 A 
ATOM     21  C   UNL     1      -5.509  13.581  22.709  0.00  0.00    +0.000 A 
ATOM     22  C   UNL     1      -4.304  12.839  22.874  0.00  0.00    +0.000 A 
ATOM     23  N   UNL     1      -3.196  12.946  22.048  0.00  0.00    +0.000 N 
ATOM     24  C   UNL     1      -2.025  12.210  22.217  0.00  0.00    +0.000 C 
ATOM     25  O   UNL     1      -1.810  11.375  23.089  0.00  0.00    +0.000 OA
ATOM     26  N   UNL     1      -4.405  12.038  23.939  0.00  0.00    +0.000 NA
ATOM     27  O   UNL     1      -5.651  12.247  24.481  0.00  0.00    +0.000 OA
ATOM     28  H   UNL     1      -3.274  13.598  21.284  0.00  0.00    +0.000 HD
ENDBRANCH  18  24
ENDBRANCH   1  18
TORSDOF 4
ENDMDL
MODEL 6
REMARK VINA RESULT:      -7.7      3.261      4.422
REMARK  Name = 
REMARK  7 active torsions:
REMARK  status: ('A' for Active; 'I' for Inactive)
REMARK    1  A    between atoms: C_1  and  C_2
REMARK    2  A    between atoms: C_6  and  C_8
REMARK    3  A    between atoms: C_8  and  N_9
REMARK    4  A    between atoms: C_13  and  C_14
REMARK    5  A    between atoms: C_17  and  C_18
REMARK    6  A    between atoms: C_18  and  C_19
REMARK    7  A    between atoms: C_18  and  C_20
REMARK                            x       y       z     vdW  Elec       q    Type
REMARK                         _______ _______ _______ _____ _____    ______ ____
ROOT
ATOM      1  N   UNL     1      -0.208  10.637  20.676  0.00  0.00    +0.000 N 
ATOM      2  C   UNL     1       0.184  10.409  19.368  0.00  0.00    +0.000 C 
ATOM      3  O   UNL     1      -0.215  11.025  18.388  0.00  0.00    +0.000 OA
ATOM      4  C   UNL     1       1.093   9.230  19.294  0.00  0.00    +0.000 C 
ATOM      5  C   UNL     1       1.678   8.839  18.154  0.00  0.00    +0.000 C 
ATOM      6  S   UNL     1       1.210   8.487  20.838  0.00  0.00    +0.000 S 
ATOM      7  C   UNL     1       0.206   9.712  21.608  0.00  0.00    +0.000 C 
ATOM      8  S   UNL     1      -0.183   9.644  23.229  0.00  0.00    +0.000 S 
ENDROOT
BRANCH   5   9
ATOM      9  C   UNL     1       2.499   7.635  17.982  0.00  0.00    +0.000 A 
ATOM     10  C   UNL     1       1.932   6.381  18.237  0.00  0.00    +0.000 A 
ATOM     11  C   UNL     1       2.676   5.212  18.046  0.00  0.00    +0.000 A 
ATOM     12  C   UNL     1       4.000   5.271  17.589  0.00  0.00    +0.000 A 
ATOM     13  C   UNL     1       4.571   6.534  17.367  0.00  0.00    +0.000 A 
ATOM     14  C   UNL     1       3.827   7.706  17.556  0.00  0.00    +0.000 A 
BRANCH  12  15
ATOM     15  C   UNL     1       4.762   3.987  17.299  0.00  0.00    +0.000 C 
ATOM     16  C   UNL     1       3.862   2.761  17.489  0.00  0.00    +0.000 C 
ATOM     17  C   UNL     1       5.392   3.978  15.905  0.00  0.00    +0.000 C 
ENDBRANCH  12  15
ENDBRANCH   5   9
BRANCH   1  18
ATOM     18  C   UNL     1      -1.042  11.808  20.963  0.00  0.00    +0.000 C 
BRANCH  18  24
ATOM     19  C   UNL     1       0.851  18.326  17.924  0.00  0.00    +0.000 C 
ATOM     20  C   UNL     1       0.608  17.083  18.676  0.00  0.00    +0.000 A 
ATOM     21  C   UNL     1      -0.233  16.003  18.534  0.00  0.00    +0.000 A 
ATOM     22  C   UNL     1       0.078  15.152  19.633  0.00  0.00    +0.000 A 
ATOM     23  N   UNL     1      -0.529  13.929  19.875  0.00  0.00    +0.000 N 
ATOM     24  C   UNL     1      -0.220  13.108  20.958  0.00  0.00    +0.000 C 
ATOM     25  O   UNL     1       0.602  13.342  21.837  0.00  0.00    +0.000 OA
ATOM     26  N   UNL     1       1.036  15.705  20.381  0.00  0.00    +0.000 NA
ATOM     27  O   UNL     1       1.367  16.901  19.788  0.00  0.00    +0.000 OA
ATOM     28  H   UNL     1      -1.236  13.647  19.217  0.00  0.00    +0.000 HD
ENDBRANCH  18  24
ENDBRANCH   1  18
TORSDOF 4
ENDMDL
MODEL 7
REMARK VINA RESULT:      -7.7      5.375     10.685
REMARK  Name = 
REMARK  7 active torsions:
REMARK  status: ('A' for Active; 'I' for Inactive)
REMARK    1  A    between atoms: C_1  and  C_2
REMARK    2  A    between atoms: C_6  and  C_8
REMARK    3  A    between atoms: C_8  and  N_9
REMARK    4  A    between atoms: C_13  and  C_14
REMARK    5  A    between atoms: C_17  and  C_18
REMARK    6  A    between atoms: C_18  and  C_19
REMARK    7  A    between atoms: C_18  and  C_20
REMARK                            x       y       z     vdW  Elec       q    Type
REMARK                         _______ _______ _______ _____ _____    ______ ____
ROOT
ATOM      1  N   UNL     1       3.465   4.736  19.614  0.00  0.00    +0.000 N 
ATOM      2  C   UNL     1       3.537   6.010  19.079  0.00  0.00    +0.000 C 
ATOM      3  O   UNL     1       4.431   6.427  18.353  0.00  0.00    +0.000 OA
ATOM      4  C   UNL     1       2.421   6.854  19.591  0.00  0.00    +0.000 C 
ATOM      5  C   UNL     1       2.213   8.109  19.171  0.00  0.00    +0.000 C 
ATOM      6  S   UNL     1       1.531   5.986  20.776  0.00  0.00    +0.000 S 
ATOM      7  C   UNL     1       2.486   4.523  20.559  0.00  0.00    +0.000 C 
ATOM      8  S   UNL     1       2.210   3.147  21.460  0.00  0.00    +0.000 S 
ENDROOT
BRANCH   5   9
ATOM      9  C   UNL     1       1.203   9.033  19.701  0.00  0.00    +0.000 A 
ATOM     10  C   UNL     1       1.138   9.254  21.081  0.00  0.00    +0.000 A 
ATOM     11  C   UNL     1       0.212  10.157  21.614  0.00  0.00    +0.000 A 
ATOM     12  C   UNL     1      -0.663  10.865  20.779  0.00  0.00    +0.000 A 
ATOM     13  C   UNL     1      -0.612  10.613  19.398  0.00  0.00    +0.000 A 
ATOM     14  C   UNL     1       0.315   9.710  18.862  0.00  0.00    +0.000 A 
BRANCH  12  15
ATOM     15  C   UNL     1      -1.598  11.909  21.367  0.00  0.00    +0.000 C 
ATOM     16  C   UNL     1      -1.308  12.128  22.856  0.00  0.00    +0.000 C 
ATOM     17  C   UNL     1      -1.546  13.238  20.611  0.00  0.00    +0.000 C 
ENDBRANCH  12  15
ENDBRANCH   5   9
BRANCH   1  18
ATOM     18  C   UNL     1       4.434   3.731  19.164  0.00  0.00    +0.000 C 
BRANCH  18  24
ATOM     19  C   UNL     1       7.902   5.120  12.735  0.00  0.00    +0.000 C 
ATOM     20  C   UNL     1       7.072   4.752  13.894  0.00  0.00    +0.000 A 
ATOM     21  C   UNL     1       7.190   4.874  15.260  0.00  0.00    +0.000 A 
ATOM     22  C   UNL     1       5.994   4.303  15.782  0.00  0.00    +0.000 A 
ATOM     23  N   UNL     1       5.684   4.228  17.131  0.00  0.00    +0.000 N 
ATOM     24  C   UNL     1       4.513   3.662  17.630  0.00  0.00    +0.000 C 
ATOM     25  O   UNL     1       3.613   3.152  16.971  0.00  0.00    +0.000 OA
ATOM     26  N   UNL     1       5.225   3.863  14.782  0.00  0.00    +0.000 NA
ATOM     27  O   UNL     1       5.891   4.143  13.612  0.00  0.00    +0.000 OA
ATOM     28  H   UNL     1       6.369   4.607  17.765  0.00  0.00    +0.000 HD
ENDBRANCH  18  24
ENDBRANCH   1  18
TORSDOF 4
ENDMDL
MODEL 8
REMARK VINA RESULT:      -7.7      1.272      1.369
REMARK  Name = 
REMARK  7 active torsions:
REMARK  status: ('A' for Active; 'I' for Inactive)
REMARK    1  A    between atoms: C_1  and  C_2
REMARK    2  A    between atoms: C_6  and  C_8
REMARK    3  A    between atoms: C_8  and  N_9
REMARK    4  A    between atoms: C_13  and  C_14
REMARK    5  A    between atoms: C_17  and  C_18
REMARK    6  A    between atoms: C_18  and  C_19
REMARK    7  A    between atoms: C_18  and  C_20
REMARK                            x       y       z     vdW  Elec       q    Type
REMARK                         _______ _______ _______ _____ _____    ______ ____
ROOT
ATOM      1  N   UNL     1       0.242  11.085  21.027  0.00  0.00    +0.000 N 
ATOM      2  C   UNL     1       0.478   9.890  21.685  0.00  0.00    +0.000 C 
ATOM      3  O   UNL     1       0.366   9.707  22.890  0.00  0.00    +0.000 OA
ATOM      4  C   UNL     1       0.993   8.865  20.733  0.00  0.00    +0.000 C 
ATOM      5  C   UNL     1       1.231   7.598  21.096  0.00  0.00    +0.000 C 
ATOM      6  S   UNL     1       1.248   9.577  19.191  0.00  0.00    +0.000 S 
ATOM      7  C   UNL     1       0.610  11.137  19.701  0.00  0.00    +0.000 C 
ATOM      8  S   UNL     1       0.557  12.448  18.671  0.00  0.00    +0.000 S 
ENDROOT
BRANCH   5   9
ATOM      9  C   UNL     1       1.832   6.562  20.247  0.00  0.00    +0.000 A 
ATOM     10  C   UNL     1       1.400   5.238  20.377  0.00  0.00    +0.000 A 
ATOM     11  C   UNL     1       1.925   4.234  19.556  0.00  0.00    +0.000 A 
ATOM     12  C   UNL     1       2.889   4.534  18.583  0.00  0.00    +0.000 A 
ATOM     13  C   UNL     1       3.340   5.860  18.481  0.00  0.00    +0.000 A 
ATOM     14  C   UNL     1       2.814   6.867  19.302  0.00  0.00    +0.000 A 
BRANCH  12  15
ATOM     15  C   UNL     1       3.380   3.448  17.639  0.00  0.00    +0.000 C 
ATOM     16  C   UNL     1       4.690   3.863  16.960  0.00  0.00    +0.000 C 
ATOM     17  C   UNL     1       3.541   2.094  18.333  0.00  0.00    +0.000 C 
ENDBRANCH  12  15
ENDBRANCH   5   9
BRANCH   1  18
ATOM     18  C   UNL     1      -0.348  12.195  21.782  0.00  0.00    +0.000 C 
BRANCH  18  24
ATOM     19  C   UNL     1      -7.242  13.094  24.422  0.00  0.00    +0.000 C 
ATOM     20  C   UNL     1      -5.965  12.901  23.714  0.00  0.00    +0.000 A 
ATOM     21  C   UNL     1      -4.637  12.895  24.076  0.00  0.00    +0.000 A 
ATOM     22  C   UNL     1      -3.930  12.634  22.868  0.00  0.00    +0.000 A 
ATOM     23  N   UNL     1      -2.551  12.526  22.773  0.00  0.00    +0.000 N 
ATOM     24  C   UNL     1      -1.871  12.276  21.582  0.00  0.00    +0.000 C 
ATOM     25  O   UNL     1      -2.374  12.128  20.473  0.00  0.00    +0.000 OA
ATOM     26  N   UNL     1      -4.791  12.505  21.855  0.00  0.00    +0.000 NA
ATOM     27  O   UNL     1      -6.053  12.668  22.378  0.00  0.00    +0.000 OA
ATOM     28  H   UNL     1      -2.036  12.648  23.629  0.00  0.00    +0.000 HD
ENDBRANCH  18  24
ENDBRANCH   1  18
TORSDOF 4
ENDMDL
MODEL 9
REMARK VINA RESULT:      -7.6      5.360     10.712
REMARK  Name = 
REMARK  7 active torsions:
REMARK  status: ('A' for Active; 'I' for Inactive)
REMARK    1  A    between atoms: C_1  and  C_2
REMARK    2  A    between atoms: C_6  and  C_8
REMARK    3  A    between atoms: C_8  and  N_9
REMARK    4  A    between atoms: C_13  and  C_14
REMARK    5  A    between atoms: C_17  and  C_18
REMARK    6  A    between atoms: C_18  and  C_19
REMARK    7  A    between atoms: C_18  and  C_20
REMARK                            x       y       z     vdW  Elec       q    Type
REMARK                         _______ _______ _______ _____ _____    ______ ____
ROOT
ATOM      1  N   UNL     1       2.909   4.538  19.185  0.00  0.00    +0.000 N 
ATOM      2  C   UNL     1       2.880   5.819  18.662  0.00  0.00    +0.000 C 
ATOM      3  O   UNL     1       3.502   6.201  17.679  0.00  0.00    +0.000 OA
ATOM      4  C   UNL     1       2.060   6.715  19.526  0.00  0.00    +0.000 C 
ATOM      5  C   UNL     1       1.806   7.992  19.207  0.00  0.00    +0.000 C 
ATOM      6  S   UNL     1       1.567   5.873  20.939  0.00  0.00    +0.000 S 
ATOM      7  C   UNL     1       2.295   4.361  20.405  0.00  0.00    +0.000 C 
ATOM      8  S   UNL     1       2.248   2.980  21.340  0.00  0.00    +0.000 S 
ENDROOT
BRANCH   5   9
ATOM      9  C   UNL     1       1.098   8.961  20.052  0.00  0.00    +0.000 A 
ATOM     10  C   UNL     1       1.310   8.943  21.435  0.00  0.00    +0.000 A 
ATOM     11  C   UNL     1       0.679   9.878  22.263  0.00  0.00    +0.000 A 
ATOM     12  C   UNL     1      -0.171  10.855  21.726  0.00  0.00    +0.000 A 
ATOM     13  C   UNL     1      -0.402  10.845  20.341  0.00  0.00    +0.000 A 
ATOM     14  C   UNL     1       0.229   9.911  19.509  0.00  0.00    +0.000 A 
BRANCH  12  15
ATOM     15  C   UNL     1      -0.773  11.919  22.630  0.00  0.00    +0.000 C 
ATOM     16  C   UNL     1      -0.996  13.227  21.863  0.00  0.00    +0.000 C 
ATOM     17  C   UNL     1      -2.073  11.459  23.294  0.00  0.00    +0.000 C 
ENDBRANCH  12  15
ENDBRANCH   5   9
BRANCH   1  18
ATOM     18  C   UNL     1       3.601   3.489  18.429  0.00  0.00    +0.000 C 
BRANCH  18  24
ATOM     19  C   UNL     1       7.841   5.186  12.561  0.00  0.00    +0.000 C 
ATOM     20  C   UNL     1       7.159   4.917  13.838  0.00  0.00    +0.000 A 
ATOM     21  C   UNL     1       5.909   4.471  14.204  0.00  0.00    +0.000 A 
ATOM     22  C   UNL     1       5.936   4.434  15.628  0.00  0.00    +0.000 A 
ATOM     23  N   UNL     1       4.877   4.026  16.423  0.00  0.00    +0.000 N 
ATOM     24  C   UNL     1       4.915   4.000  17.816  0.00  0.00    +0.000 C 
ATOM     25  O   UNL     1       5.858   4.335  18.525  0.00  0.00    +0.000 OA
ATOM     26  N   UNL     1       7.128   4.844  16.071  0.00  0.00    +0.000 NA
ATOM     27  O   UNL     1       7.887   5.141  14.963  0.00  0.00    +0.000 OA
ATOM     28  H   UNL     1       4.041   3.743  15.938  0.00  0.00    +0.000 HD
ENDBRANCH  18  24
ENDBRANCH   1  18
TORSDOF 4
ENDMDL
