MODEL 1
REMARK VINA RESULT:      -6.9      0.000      0.000
REMARK  Name = 
REMARK  4 active torsions:
REMARK  status: ('A' for Active; 'I' for Inactive)
REMARK    1  A    between atoms: N_2  and  C_4
REMARK    2  A    between atoms: C_7  and  N_8
REMARK    3  A    between atoms: N_8  and  C_9
REMARK    4  A    between atoms: C_9  and  C_10
REMARK                            x       y       z     vdW  Elec       q    Type
REMARK                         _______ _______ _______ _____ _____    ______ ____
ROOT
ATOM      1  N   UNL     1       2.682   4.021  18.047  0.00  0.00    +0.000 N 
ATOM      2  H   UNL     1       2.206   3.871  17.164  0.00  0.00    +0.000 HD
ENDROOT
BRANCH   1   6
ATOM      3  C   UNL     1       1.773   7.550  20.118  0.00  0.00    +0.000 A 
ATOM      4  C   UNL     1       1.630   6.307  20.738  0.00  0.00    +0.000 A 
ATOM      5  C   UNL     1       1.960   5.150  20.032  0.00  0.00    +0.000 A 
ATOM      6  C   UNL     1       2.415   5.199  18.705  0.00  0.00    +0.000 A 
ATOM      7  C   UNL     1       2.593   6.462  18.123  0.00  0.00    +0.000 A 
ATOM      8  C   UNL     1       2.276   7.638  18.814  0.00  0.00    +0.000 A 
BRANCH   3  10
ATOM      9  O   UNL     1       1.092   9.765  20.163  0.00  0.00    +0.000 OA
ATOM     10  N   UNL     1       1.395   8.772  20.835  0.00  0.00    +0.000 N 
ATOM     11  O   UNL     1       1.410   8.737  22.075  0.00  0.00    +0.000 OA
ENDBRANCH   3  10
ENDBRANCH   1   6
BRANCH   1  12
ATOM     12  C   UNL     1       3.872   3.206  18.245  0.00  0.00    +0.000 C 
BRANCH  12  13
ATOM     13  C   UNL     1       5.044   3.963  17.675  0.00  0.00    +0.000 A 
ATOM     14  C   UNL     1       5.103   4.257  16.290  0.00  0.00    +0.000 A 
ATOM     15  C   UNL     1       6.013   5.196  15.794  0.00  0.00    +0.000 A 
ATOM     16  C   UNL     1       6.814   5.836  16.711  0.00  0.00    +0.000 A 
ATOM     17  C   UNL     1       6.813   5.497  18.047  0.00  0.00    +0.000 A 
ATOM     18  C   UNL     1       5.968   4.544  18.558  0.00  0.00    +0.000 A 
ATOM     19  O   UNL     1       7.614   6.315  18.785  0.00  0.00    +0.000 OA
ATOM     20  C   UNL     1       7.774   7.382  17.830  0.00  0.00    +0.000 C 
ATOM     21  O   UNL     1       7.592   6.929  16.472  0.00  0.00    +0.000 OA
ENDBRANCH  12  13
ENDBRANCH   1  12
TORSDOF 4
ENDMDL
MODEL 2
REMARK VINA RESULT:      -6.9      1.838      2.592
REMARK  Name = 
REMARK  4 active torsions:
REMARK  status: ('A' for Active; 'I' for Inactive)
REMARK    1  A    between atoms: N_2  and  C_4
REMARK    2  A    between atoms: C_7  and  N_8
REMARK    3  A    between atoms: N_8  and  C_9
REMARK    4  A    between atoms: C_9  and  C_10
REMARK                            x       y       z     vdW  Elec       q    Type
REMARK                         _______ _______ _______ _____ _____    ______ ____
ROOT
ATOM      1  N   UNL     1       2.463   7.136  18.221  0.00  0.00    +0.000 N 
ATOM      2  H   UNL     1       3.256   7.500  17.704  0.00  0.00    +0.000 HD
ENDROOT
BRANCH   1   6
ATOM      3  C   UNL     1       0.837   9.747  21.068  0.00  0.00    +0.000 A 
ATOM      4  C   UNL     1       0.918  10.123  19.726  0.00  0.00    +0.000 A 
ATOM      5  C   UNL     1       1.444   9.226  18.795  0.00  0.00    +0.000 A 
ATOM      6  C   UNL     1       1.914   7.959  19.177  0.00  0.00    +0.000 A 
ATOM      7  C   UNL     1       1.779   7.590  20.523  0.00  0.00    +0.000 A 
ATOM      8  C   UNL     1       1.246   8.470  21.473  0.00  0.00    +0.000 A 
BRANCH   3  10
ATOM      9  O   UNL     1       0.238  11.883  21.736  0.00  0.00    +0.000 OA
ATOM     10  N   UNL     1       0.321  10.693  22.062  0.00  0.00    +0.000 N 
ATOM     11  O   UNL     1       0.007  10.243  23.175  0.00  0.00    +0.000 OA
ENDBRANCH   3  10
ENDBRANCH   1   6
BRANCH   1  12
ATOM     12  C   UNL     1       2.327   5.686  18.189  0.00  0.00    +0.000 C 
BRANCH  12  13
ATOM     13  C   UNL     1       3.714   5.098  18.174  0.00  0.00    +0.000 A 
ATOM     14  C   UNL     1       4.233   4.512  16.992  0.00  0.00    +0.000 A 
ATOM     15  C   UNL     1       5.596   4.231  16.868  0.00  0.00    +0.000 A 
ATOM     16  C   UNL     1       6.405   4.580  17.925  0.00  0.00    +0.000 A 
ATOM     17  C   UNL     1       5.895   5.078  19.104  0.00  0.00    +0.000 A 
ATOM     18  C   UNL     1       4.555   5.317  19.276  0.00  0.00    +0.000 A 
ATOM     19  O   UNL     1       6.877   5.436  19.978  0.00  0.00    +0.000 OA
ATOM     20  C   UNL     1       7.986   5.461  19.060  0.00  0.00    +0.000 C 
ATOM     21  O   UNL     1       7.768   4.605  17.918  0.00  0.00    +0.000 OA
ENDBRANCH  12  13
ENDBRANCH   1  12
TORSDOF 4
ENDMDL
MODEL 3
REMARK VINA RESULT:      -6.9      2.220      6.751
REMARK  Name = 
REMARK  4 active torsions:
REMARK  status: ('A' for Active; 'I' for Inactive)
REMARK    1  A    between atoms: N_2  and  C_4
REMARK    2  A    between atoms: C_7  and  N_8
REMARK    3  A    between atoms: N_8  and  C_9
REMARK    4  A    between atoms: C_9  and  C_10
REMARK                            x       y       z     vdW  Elec       q    Type
REMARK                         _______ _______ _______ _____ _____    ______ ____
ROOT
ATOM      1  N   UNL     1       4.037   5.593  19.406  0.00  0.00    +0.000 N 
ATOM      2  H   UNL     1       4.560   6.037  20.153  0.00  0.00    +0.000 HD
ENDROOT
BRANCH   1   6
ATOM      3  C   UNL     1       6.109   4.919  15.826  0.00  0.00    +0.000 A 
ATOM      4  C   UNL     1       6.294   6.104  16.541  0.00  0.00    +0.000 A 
ATOM      5  C   UNL     1       5.608   6.293  17.741  0.00  0.00    +0.000 A 
ATOM      6  C   UNL     1       4.718   5.330  18.241  0.00  0.00    +0.000 A 
ATOM      7  C   UNL     1       4.585   4.131  17.527  0.00  0.00    +0.000 A 
ATOM      8  C   UNL     1       5.270   3.914  16.325  0.00  0.00    +0.000 A 
BRANCH   3  10
ATOM      9  O   UNL     1       7.795   5.412  14.315  0.00  0.00    +0.000 OA
ATOM     10  N   UNL     1       6.795   4.723  14.545  0.00  0.00    +0.000 N 
ATOM     11  O   UNL     1       6.323   3.881  13.764  0.00  0.00    +0.000 OA
ENDBRANCH   3  10
ENDBRANCH   1   6
BRANCH   1  12
ATOM     12  C   UNL     1       2.590   5.720  19.518  0.00  0.00    +0.000 C 
BRANCH  12  13
ATOM     13  C   UNL     1       2.248   7.182  19.388  0.00  0.00    +0.000 A 
ATOM     14  C   UNL     1       2.306   7.824  18.126  0.00  0.00    +0.000 A 
ATOM     15  C   UNL     1       1.721   9.078  17.931  0.00  0.00    +0.000 A 
ATOM     16  C   UNL     1       1.065   9.636  19.004  0.00  0.00    +0.000 A 
ATOM     17  C   UNL     1       1.073   9.051  20.252  0.00  0.00    +0.000 A 
ATOM     18  C   UNL     1       1.682   7.845  20.489  0.00  0.00    +0.000 A 
ATOM     19  O   UNL     1       0.291   9.725  21.140  0.00  0.00    +0.000 OA
ATOM     20  C   UNL     1      -0.465  10.518  20.205  0.00  0.00    +0.000 C 
ATOM     21  O   UNL     1       0.245  10.724  18.966  0.00  0.00    +0.000 OA
ENDBRANCH  12  13
ENDBRANCH   1  12
TORSDOF 4
ENDMDL
MODEL 4
REMARK VINA RESULT:      -6.9      2.204      6.498
REMARK  Name = 
REMARK  4 active torsions:
REMARK  status: ('A' for Active; 'I' for Inactive)
REMARK    1  A    between atoms: N_2  and  C_4
REMARK    2  A    between atoms: C_7  and  N_8
REMARK    3  A    between atoms: N_8  and  C_9
REMARK    4  A    between atoms: C_9  and  C_10
REMARK                            x       y       z     vdW  Elec       q    Type
REMARK                         _______ _______ _______ _____ _____    ______ ____
ROOT
ATOM      1  N   UNL     1       4.584   5.491  19.459  0.00  0.00    +0.000 N 
ATOM      2  H   UNL     1       5.013   6.201  20.043  0.00  0.00    +0.000 HD
ENDROOT
BRANCH   1   6
ATOM      3  C   UNL     1       6.372   4.916  15.711  0.00  0.00    +0.000 A 
ATOM      4  C   UNL     1       6.763   5.979  16.529  0.00  0.00    +0.000 A 
ATOM      5  C   UNL     1       6.167   6.134  17.781  0.00  0.00    +0.000 A 
ATOM      6  C   UNL     1       5.166   5.260  18.234  0.00  0.00    +0.000 A 
ATOM      7  C   UNL     1       4.825   4.176  17.413  0.00  0.00    +0.000 A 
ATOM      8  C   UNL     1       5.416   3.995  16.157  0.00  0.00    +0.000 A 
BRANCH   3  10
ATOM      9  O   UNL     1       6.499   3.889  13.638  0.00  0.00    +0.000 OA
ATOM     10  N   UNL     1       6.964   4.763  14.379  0.00  0.00    +0.000 N 
ATOM     11  O   UNL     1       7.904   5.516  14.078  0.00  0.00    +0.000 OA
ENDBRANCH   3  10
ENDBRANCH   1   6
BRANCH   1  12
ATOM     12  C   UNL     1       3.206   5.169  19.803  0.00  0.00    +0.000 C 
BRANCH  12  13
ATOM     13  C   UNL     1       2.389   6.424  19.638  0.00  0.00    +0.000 A 
ATOM     14  C   UNL     1       1.737   7.007  20.753  0.00  0.00    +0.000 A 
ATOM     15  C   UNL     1       1.228   8.307  20.688  0.00  0.00    +0.000 A 
ATOM     16  C   UNL     1       1.420   8.996  19.513  0.00  0.00    +0.000 A 
ATOM     17  C   UNL     1       1.984   8.407  18.402  0.00  0.00    +0.000 A 
ATOM     18  C   UNL     1       2.448   7.115  18.418  0.00  0.00    +0.000 A 
ATOM     19  O   UNL     1       2.159   9.293  17.383  0.00  0.00    +0.000 OA
ATOM     20  C   UNL     1       2.004  10.515  18.129  0.00  0.00    +0.000 C 
ATOM     21  O   UNL     1       1.211  10.329  19.320  0.00  0.00    +0.000 OA
ENDBRANCH  12  13
ENDBRANCH   1  12
TORSDOF 4
ENDMDL
MODEL 5
REMARK VINA RESULT:      -6.9      2.090      6.491
REMARK  Name = 
REMARK  4 active torsions:
REMARK  status: ('A' for Active; 'I' for Inactive)
REMARK    1  A    between atoms: N_2  and  C_4
REMARK    2  A    between atoms: C_7  and  N_8
REMARK    3  A    between atoms: N_8  and  C_9
REMARK    4  A    between atoms: C_9  and  C_10
REMARK                            x       y       z     vdW  Elec       q    Type
REMARK                         _______ _______ _______ _____ _____    ______ ____
ROOT
ATOM      1  N   UNL     1       2.331   5.216  19.205  0.00  0.00    +0.000 N 
ATOM      2  H   UNL     1       1.595   4.552  18.989  0.00  0.00    +0.000 HD
ENDROOT
BRANCH   1   6
ATOM      3  C   UNL     1       6.136   4.607  17.556  0.00  0.00    +0.000 A 
ATOM      4  C   UNL     1       5.995   4.999  18.889  0.00  0.00    +0.000 A 
ATOM      5  C   UNL     1       4.716   5.174  19.418  0.00  0.00    +0.000 A 
ATOM      6  C   UNL     1       3.563   4.985  18.639  0.00  0.00    +0.000 A 
ATOM      7  C   UNL     1       3.733   4.547  17.318  0.00  0.00    +0.000 A 
ATOM      8  C   UNL     1       5.006   4.357  16.767  0.00  0.00    +0.000 A 
BRANCH   3  10
ATOM      9  O   UNL     1       7.608   4.675  15.768  0.00  0.00    +0.000 OA
ATOM     10  N   UNL     1       7.474   4.456  16.977  0.00  0.00    +0.000 N 
ATOM     11  O   UNL     1       8.393   4.107  17.737  0.00  0.00    +0.000 OA
ENDBRANCH   3  10
ENDBRANCH   1   6
BRANCH   1  12
ATOM     12  C   UNL     1       2.097   6.018  20.398  0.00  0.00    +0.000 C 
BRANCH  12  13
ATOM     13  C   UNL     1       1.938   7.451  19.960  0.00  0.00    +0.000 A 
ATOM     14  C   UNL     1       2.223   7.830  18.625  0.00  0.00    +0.000 A 
ATOM     15  C   UNL     1       1.808   9.068  18.126  0.00  0.00    +0.000 A 
ATOM     16  C   UNL     1       1.089   9.876  18.975  0.00  0.00    +0.000 A 
ATOM     17  C   UNL     1       0.876   9.544  20.296  0.00  0.00    +0.000 A 
ATOM     18  C   UNL     1       1.314   8.359  20.831  0.00  0.00    +0.000 A 
ATOM     19  O   UNL     1       0.068  10.440  20.927  0.00  0.00    +0.000 OA
ATOM     20  C   UNL     1      -0.474  11.099  19.766  0.00  0.00    +0.000 C 
ATOM     21  O   UNL     1       0.405  11.002  18.625  0.00  0.00    +0.000 OA
ENDBRANCH  12  13
ENDBRANCH   1  12
TORSDOF 4
ENDMDL
MODEL 6
REMARK VINA RESULT:      -6.8      0.165      1.294
REMARK  Name = 
REMARK  4 active torsions:
REMARK  status: ('A' for Active; 'I' for Inactive)
REMARK    1  A    between atoms: N_2  and  C_4
REMARK    2  A    between atoms: C_7  and  N_8
REMARK    3  A    between atoms: N_8  and  C_9
REMARK    4  A    between atoms: C_9  and  C_10
REMARK                            x       y       z     vdW  Elec       q    Type
REMARK                         _______ _______ _______ _____ _____    ______ ____
ROOT
ATOM      1  N   UNL     1       2.804   3.989  17.896  0.00  0.00    +0.000 N 
ATOM      2  H   UNL     1       2.394   3.888  16.973  0.00  0.00    +0.000 HD
ENDROOT
BRANCH   1   6
ATOM      3  C   UNL     1       1.781   7.440  20.043  0.00  0.00    +0.000 A 
ATOM      4  C   UNL     1       2.207   7.530  18.717  0.00  0.00    +0.000 A 
ATOM      5  C   UNL     1       2.520   6.363  18.018  0.00  0.00    +0.000 A 
ATOM      6  C   UNL     1       2.438   5.098  18.622  0.00  0.00    +0.000 A 
ATOM      7  C   UNL     1       1.964   5.033  19.940  0.00  0.00    +0.000 A 
ATOM      8  C   UNL     1       1.635   6.189  20.657  0.00  0.00    +0.000 A 
BRANCH   3  10
ATOM      9  O   UNL     1       1.513   8.595  22.034  0.00  0.00    +0.000 OA
ATOM     10  N   UNL     1       1.484   8.660  20.800  0.00  0.00    +0.000 N 
ATOM     11  O   UNL     1       1.211   9.684  20.153  0.00  0.00    +0.000 OA
ENDBRANCH   3  10
ENDBRANCH   1   6
BRANCH   1  12
ATOM     12  C   UNL     1       4.017   3.212  18.111  0.00  0.00    +0.000 C 
BRANCH  12  13
ATOM     13  C   UNL     1       5.176   4.024  17.593  0.00  0.00    +0.000 A 
ATOM     14  C   UNL     1       5.241   4.390  16.225  0.00  0.00    +0.000 A 
ATOM     15  C   UNL     1       6.133   5.373  15.786  0.00  0.00    +0.000 A 
ATOM     16  C   UNL     1       6.911   5.983  16.743  0.00  0.00    +0.000 A 
ATOM     17  C   UNL     1       6.906   5.577  18.060  0.00  0.00    +0.000 A 
ATOM     18  C   UNL     1       6.079   4.580  18.513  0.00  0.00    +0.000 A 
ATOM     19  O   UNL     1       7.682   6.373  18.846  0.00  0.00    +0.000 OA
ATOM     20  C   UNL     1       7.825   7.491  17.949  0.00  0.00    +0.000 C 
ATOM     21  O   UNL     1       7.666   7.104  16.568  0.00  0.00    +0.000 OA
ENDBRANCH  12  13
ENDBRANCH   1  12
TORSDOF 4
ENDMDL
MODEL 7
REMARK VINA RESULT:      -6.8      2.147      2.969
REMARK  Name = 
REMARK  4 active torsions:
REMARK  status: ('A' for Active; 'I' for Inactive)
REMARK    1  A    between atoms: N_2  and  C_4
REMARK    2  A    between atoms: C_7  and  N_8
REMARK    3  A    between atoms: N_8  and  C_9
REMARK    4  A    between atoms: C_9  and  C_10
REMARK                            x       y       z     vdW  Elec       q    Type
REMARK                         _______ _______ _______ _____ _____    ______ ____
ROOT
ATOM      1  N   UNL     1       2.835   6.552  19.823  0.00  0.00    +0.000 N 
ATOM      2  H   UNL     1       3.030   6.300  20.786  0.00  0.00    +0.000 HD
ENDROOT
BRANCH   1   6
ATOM      3  C   UNL     1       0.542  10.017  19.275  0.00  0.00    +0.000 A 
ATOM      4  C   UNL     1       0.593   9.390  20.522  0.00  0.00    +0.000 A 
ATOM      5  C   UNL     1       1.382   8.250  20.682  0.00  0.00    +0.000 A 
ATOM      6  C   UNL     1       2.112   7.703  19.615  0.00  0.00    +0.000 A 
ATOM      7  C   UNL     1       2.079   8.379  18.387  0.00  0.00    +0.000 A 
ATOM      8  C   UNL     1       1.302   9.529  18.205  0.00  0.00    +0.000 A 
BRANCH   3  10
ATOM      9  O   UNL     1      -1.509  11.091  19.373  0.00  0.00    +0.000 OA
ATOM     10  N   UNL     1      -0.311  11.194  19.084  0.00  0.00    +0.000 N 
ATOM     11  O   UNL     1       0.221  12.221  18.634  0.00  0.00    +0.000 OA
ENDBRANCH   3  10
ENDBRANCH   1   6
BRANCH   1  12
ATOM     12  C   UNL     1       2.952   5.455  18.872  0.00  0.00    +0.000 C 
BRANCH  12  13
ATOM     13  C   UNL     1       4.329   5.521  18.265  0.00  0.00    +0.000 A 
ATOM     14  C   UNL     1       5.447   5.001  18.964  0.00  0.00    +0.000 A 
ATOM     15  C   UNL     1       6.665   4.785  18.313  0.00  0.00    +0.000 A 
ATOM     16  C   UNL     1       6.713   5.069  16.967  0.00  0.00    +0.000 A 
ATOM     17  C   UNL     1       5.653   5.647  16.302  0.00  0.00    +0.000 A 
ATOM     18  C   UNL     1       4.461   5.918  16.925  0.00  0.00    +0.000 A 
ATOM     19  O   UNL     1       5.885   5.757  14.965  0.00  0.00    +0.000 OA
ATOM     20  C   UNL     1       7.000   4.851  14.861  0.00  0.00    +0.000 C 
ATOM     21  O   UNL     1       7.714   4.722  16.109  0.00  0.00    +0.000 OA
ENDBRANCH  12  13
ENDBRANCH   1  12
TORSDOF 4
ENDMDL
MODEL 8
REMARK VINA RESULT:      -6.8      2.081      2.796
REMARK  Name = 
REMARK  4 active torsions:
REMARK  status: ('A' for Active; 'I' for Inactive)
REMARK    1  A    between atoms: N_2  and  C_4
REMARK    2  A    between atoms: C_7  and  N_8
REMARK    3  A    between atoms: N_8  and  C_9
REMARK    4  A    between atoms: C_9  and  C_10
REMARK                            x       y       z     vdW  Elec       q    Type
REMARK                         _______ _______ _______ _____ _____    ______ ____
ROOT
ATOM      1  N   UNL     1       2.762   6.475  20.151  0.00  0.00    +0.000 N 
ATOM      2  H   UNL     1       3.341   6.554  20.979  0.00  0.00    +0.000 HD
ENDROOT
BRANCH   1   6
ATOM      3  C   UNL     1       0.647   9.906  19.000  0.00  0.00    +0.000 A 
ATOM      4  C   UNL     1       0.621   9.468  20.326  0.00  0.00    +0.000 A 
ATOM      5  C   UNL     1       1.351   8.335  20.686  0.00  0.00    +0.000 A 
ATOM      6  C   UNL     1       2.099   7.609  19.744  0.00  0.00    +0.000 A 
ATOM      7  C   UNL     1       2.144   8.098  18.431  0.00  0.00    +0.000 A 
ATOM      8  C   UNL     1       1.427   9.237  18.048  0.00  0.00    +0.000 A 
BRANCH   3  10
ATOM      9  O   UNL     1       0.239  12.187  18.976  0.00  0.00    +0.000 OA
ATOM     10  N   UNL     1      -0.145  11.073  18.601  0.00  0.00    +0.000 N 
ATOM     11  O   UNL     1      -1.161  10.870  17.917  0.00  0.00    +0.000 OA
ENDBRANCH   3  10
ENDBRANCH   1   6
BRANCH   1  12
ATOM     12  C   UNL     1       2.376   5.113  19.805  0.00  0.00    +0.000 C 
BRANCH  12  13
ATOM     13  C   UNL     1       3.441   4.555  18.897  0.00  0.00    +0.000 A 
ATOM     14  C   UNL     1       3.142   4.243  17.547  0.00  0.00    +0.000 A 
ATOM     15  C   UNL     1       4.162   4.008  16.621  0.00  0.00    +0.000 A 
ATOM     16  C   UNL     1       5.456   4.125  17.073  0.00  0.00    +0.000 A 
ATOM     17  C   UNL     1       5.751   4.352  18.400  0.00  0.00    +0.000 A 
ATOM     18  C   UNL     1       4.771   4.536  19.344  0.00  0.00    +0.000 A 
ATOM     19  O   UNL     1       7.086   4.520  18.609  0.00  0.00    +0.000 OA
ATOM     20  C   UNL     1       7.491   4.753  17.247  0.00  0.00    +0.000 C 
ATOM     21  O   UNL     1       6.577   4.163  16.298  0.00  0.00    +0.000 OA
ENDBRANCH  12  13
ENDBRANCH   1  12
TORSDOF 4
ENDMDL
MODEL 9
REMARK VINA RESULT:      -6.7      3.411      7.215
REMARK  Name = 
REMARK  4 active torsions:
REMARK  status: ('A' for Active; 'I' for Inactive)
REMARK    1  A    between atoms: N_2  and  C_4
REMARK    2  A    between atoms: C_7  and  N_8
REMARK    3  A    between atoms: N_8  and  C_9
REMARK    4  A    between atoms: C_9  and  C_10
REMARK                            x       y       z     vdW  Elec       q    Type
REMARK                         _______ _______ _______ _____ _____    ______ ____
ROOT
ATOM      1  N   UNL     1       5.344   5.114  17.653  0.00  0.00    +0.000 N 
ATOM      2  H   UNL     1       5.978   4.823  18.390  0.00  0.00    +0.000 HD
ENDROOT
BRANCH   1   6
ATOM      3  C   UNL     1       6.464   4.237  13.710  0.00  0.00    +0.000 A 
ATOM      4  C   UNL     1       5.175   3.948  14.162  0.00  0.00    +0.000 A 
ATOM      5  C   UNL     1       4.822   4.270  15.473  0.00  0.00    +0.000 A 
ATOM      6  C   UNL     1       5.738   4.861  16.359  0.00  0.00    +0.000 A 
ATOM      7  C   UNL     1       7.010   5.181  15.865  0.00  0.00    +0.000 A 
ATOM      8  C   UNL     1       7.384   4.876  14.551  0.00  0.00    +0.000 A 
BRANCH   3  10
ATOM      9  O   UNL     1       6.533   2.751  11.933  0.00  0.00    +0.000 OA
ATOM     10  N   UNL     1       6.859   3.870  12.347  0.00  0.00    +0.000 N 
ATOM     11  O   UNL     1       7.507   4.703  11.693  0.00  0.00    +0.000 OA
ENDBRANCH   3  10
ENDBRANCH   1   6
BRANCH   1  12
ATOM     12  C   UNL     1       4.372   6.124  18.048  0.00  0.00    +0.000 C 
BRANCH  12  13
ATOM     13  C   UNL     1       3.192   5.409  18.653  0.00  0.00    +0.000 A 
ATOM     14  C   UNL     1       2.255   4.741  17.825  0.00  0.00    +0.000 A 
ATOM     15  C   UNL     1       1.335   3.839  18.365  0.00  0.00    +0.000 A 
ATOM     16  C   UNL     1       1.405   3.609  19.719  0.00  0.00    +0.000 A 
ATOM     17  C   UNL     1       2.261   4.312  20.538  0.00  0.00    +0.000 A 
ATOM     18  C   UNL     1       3.142   5.242  20.046  0.00  0.00    +0.000 A 
ATOM     19  O   UNL     1       2.229   3.863  21.823  0.00  0.00    +0.000 OA
ATOM     20  C   UNL     1       1.573   2.601  21.596  0.00  0.00    +0.000 C 
ATOM     21  O   UNL     1       0.766   2.615  20.399  0.00  0.00    +0.000 OA
ENDBRANCH  12  13
ENDBRANCH   1  12
TORSDOF 4
ENDMDL
