MODEL 1
REMARK VINA RESULT:      -7.9      0.000      0.000
REMARK  Name = 
REMARK  9 active torsions:
REMARK  status: ('A' for Active; 'I' for Inactive)
REMARK    1  A    between atoms: C_1  and  O_2
REMARK    2  A    between atoms: O_2  and  C_3
REMARK    3  A    between atoms: C_5  and  C_6
REMARK    4  A    between atoms: C_6  and  C_8
REMARK    5  A    between atoms: N_11  and  C_12
REMARK    6  A    between atoms: C_27  and  O_28
REMARK    7  A    between atoms: O_28  and  C_29
REMARK    8  A    between atoms: C_30  and  O_31
REMARK    9  A    between atoms: O_31  and  C_32
REMARK                            x       y       z     vdW  Elec       q    Type
REMARK                         _______ _______ _______ _____ _____    ______ ____
ROOT
ATOM      1  C   UNL     1       0.608   9.801  19.834  0.00  0.00    +0.000 A 
ATOM      2  N   UNL     1       1.355   8.696  19.590  0.00  0.00    +0.000 NA
ATOM      3  C   UNL     1       1.634   7.840  20.577  0.00  0.00    +0.000 A 
ATOM      4  N   UNL     1       2.434   6.725  20.321  0.00  0.00    +0.000 N 
ATOM      5  N   UNL     1       1.248   8.003  21.839  0.00  0.00    +0.000 NA
ATOM      6  C   UNL     1       0.484   9.093  22.094  0.00  0.00    +0.000 A 
ATOM      7  C   UNL     1      -0.047   9.426  23.375  0.00  0.00    +0.000 A 
ATOM      8  C   UNL     1      -0.781  10.588  23.353  0.00  0.00    +0.000 A 
ATOM      9  S   UNL     1      -0.817  11.286  21.795  0.00  0.00    +0.000 S 
ATOM     10  C   UNL     1       0.134  10.023  21.119  0.00  0.00    +0.000 A 
ATOM     11  H   UNL     1       2.637   6.230  21.178  0.00  0.00    +0.000 HD
ENDROOT
BRANCH   4  12
ATOM     12  C   UNL     1       2.836   6.126  19.120  0.00  0.00    +0.000 A 
ATOM     13  C   UNL     1       2.278   4.895  18.751  0.00  0.00    +0.000 A 
ATOM     14  C   UNL     1       2.731   4.219  17.616  0.00  0.00    +0.000 A 
ATOM     15  F   UNL     1       2.192   3.036  17.299  0.00  0.00    +0.000 F 
ATOM     16  C   UNL     1       3.742   4.741  16.824  0.00  0.00    +0.000 A 
ATOM     17  C   UNL     1       4.294   5.957  17.180  0.00  0.00    +0.000 A 
ATOM     18  F   UNL     1       5.271   6.482  16.431  0.00  0.00    +0.000 F 
ATOM     19  C   UNL     1       3.857   6.645  18.312  0.00  0.00    +0.000 A 
ENDBRANCH   4  12
BRANCH   1  20
ATOM     20  C   UNL     1       0.331  10.694  18.680  0.00  0.00    +0.000 C 
ATOM     21  O   UNL     1       1.237  11.314  18.131  0.00  0.00    +0.000 OA
BRANCH  20  24
ATOM     22  C   UNL     1      -2.915  10.281  16.744  0.00  0.00    +0.000 A 
ATOM     23  C   UNL     1      -1.557  10.211  17.091  0.00  0.00    +0.000 A 
ATOM     24  C   UNL     1      -1.068  10.888  18.205  0.00  0.00    +0.000 A 
ATOM     25  C   UNL     1      -1.914  11.754  18.892  0.00  0.00    +0.000 A 
ATOM     26  C   UNL     1      -3.255  11.915  18.504  0.00  0.00    +0.000 A 
ATOM     27  C   UNL     1      -3.777  11.172  17.419  0.00  0.00    +0.000 A 
BRANCH  22  29
ATOM     28  C   UNL     1      -3.181  10.013  14.408  0.00  0.00    +0.000 C 
ATOM     29  O   UNL     1      -3.392   9.493  15.724  0.00  0.00    +0.000 OA
ENDBRANCH  22  29
BRANCH  26  30
ATOM     30  O   UNL     1      -3.902  12.817  19.315  0.00  0.00    +0.000 OA
ATOM     31  C   UNL     1      -3.954  12.595  20.716  0.00  0.00    +0.000 C 
ENDBRANCH  26  30
BRANCH  27  32
ATOM     32  O   UNL     1      -5.090  11.403  17.114  0.00  0.00    +0.000 OA
ATOM     33  C   UNL     1      -6.132  10.988  17.979  0.00  0.00    +0.000 C 
ENDBRANCH  27  32
ENDBRANCH  20  24
ENDBRANCH   1  20
TORSDOF 6
ENDMDL
MODEL 2
REMARK VINA RESULT:      -7.9      5.079      8.181
REMARK  Name = 
REMARK  9 active torsions:
REMARK  status: ('A' for Active; 'I' for Inactive)
REMARK    1  A    between atoms: C_1  and  O_2
REMARK    2  A    between atoms: O_2  and  C_3
REMARK    3  A    between atoms: C_5  and  C_6
REMARK    4  A    between atoms: C_6  and  C_8
REMARK    5  A    between atoms: N_11  and  C_12
REMARK    6  A    between atoms: C_27  and  O_28
REMARK    7  A    between atoms: O_28  and  C_29
REMARK    8  A    between atoms: C_30  and  O_31
REMARK    9  A    between atoms: O_31  and  C_32
REMARK                            x       y       z     vdW  Elec       q    Type
REMARK                         _______ _______ _______ _____ _____    ______ ____
ROOT
ATOM      1  C   UNL     1       4.866   4.387  16.732  0.00  0.00    +0.000 A 
ATOM      2  N   UNL     1       5.212   4.142  15.444  0.00  0.00    +0.000 NA
ATOM      3  C   UNL     1       6.469   4.336  15.034  0.00  0.00    +0.000 A 
ATOM      4  N   UNL     1       6.803   4.114  13.698  0.00  0.00    +0.000 N 
ATOM      5  N   UNL     1       7.444   4.796  15.811  0.00  0.00    +0.000 NA
ATOM      6  C   UNL     1       7.119   5.027  17.107  0.00  0.00    +0.000 A 
ATOM      7  C   UNL     1       8.031   5.495  18.098  0.00  0.00    +0.000 A 
ATOM      8  C   UNL     1       7.436   5.649  19.327  0.00  0.00    +0.000 A 
ATOM      9  S   UNL     1       5.778   5.246  19.284  0.00  0.00    +0.000 S 
ATOM     10  C   UNL     1       5.838   4.833  17.616  0.00  0.00    +0.000 A 
ATOM     11  H   UNL     1       7.756   4.396  13.520  0.00  0.00    +0.000 HD
ENDROOT
BRANCH   4  12
ATOM     12  C   UNL     1       6.123   3.451  12.668  0.00  0.00    +0.000 A 
ATOM     13  C   UNL     1       4.926   3.992  12.181  0.00  0.00    +0.000 A 
ATOM     14  C   UNL     1       4.168   3.306  11.231  0.00  0.00    +0.000 A 
ATOM     15  F   UNL     1       3.020   3.839  10.797  0.00  0.00    +0.000 F 
ATOM     16  C   UNL     1       4.573   2.073  10.742  0.00  0.00    +0.000 A 
ATOM     17  C   UNL     1       5.755   1.535  11.215  0.00  0.00    +0.000 A 
ATOM     18  F   UNL     1       6.167   0.346  10.758  0.00  0.00    +0.000 F 
ATOM     19  C   UNL     1       6.524   2.204  12.167  0.00  0.00    +0.000 A 
ENDBRANCH   4  12
BRANCH   1  20
ATOM     20  C   UNL     1       3.452   4.133  17.110  0.00  0.00    +0.000 C 
ATOM     21  O   UNL     1       2.773   3.316  16.496  0.00  0.00    +0.000 OA
BRANCH  20  24
ATOM     22  C   UNL     1       1.839   5.024  20.436  0.00  0.00    +0.000 A 
ATOM     23  C   UNL     1       2.288   4.280  19.334  0.00  0.00    +0.000 A 
ATOM     24  C   UNL     1       2.824   4.911  18.215  0.00  0.00    +0.000 A 
ATOM     25  C   UNL     1       2.779   6.300  18.139  0.00  0.00    +0.000 A 
ATOM     26  C   UNL     1       2.245   7.066  19.190  0.00  0.00    +0.000 A 
ATOM     27  C   UNL     1       1.768   6.432  20.361  0.00  0.00    +0.000 A 
BRANCH  22  29
ATOM     28  C   UNL     1       1.779   2.978  21.622  0.00  0.00    +0.000 C 
ATOM     29  O   UNL     1       1.446   4.369  21.577  0.00  0.00    +0.000 OA
ENDBRANCH  22  29
BRANCH  26  30
ATOM     30  O   UNL     1       2.298   8.409  18.902  0.00  0.00    +0.000 OA
ATOM     31  C   UNL     1       1.574   8.923  17.795  0.00  0.00    +0.000 C 
ENDBRANCH  26  30
BRANCH  27  32
ATOM     32  O   UNL     1       1.262   7.261  21.324  0.00  0.00    +0.000 OA
ATOM     33  C   UNL     1       0.044   7.958  21.133  0.00  0.00    +0.000 C 
ENDBRANCH  27  32
ENDBRANCH  20  24
ENDBRANCH   1  20
TORSDOF 6
ENDMDL
MODEL 3
REMARK VINA RESULT:      -7.7      5.547      8.527
REMARK  Name = 
REMARK  9 active torsions:
REMARK  status: ('A' for Active; 'I' for Inactive)
REMARK    1  A    between atoms: C_1  and  O_2
REMARK    2  A    between atoms: O_2  and  C_3
REMARK    3  A    between atoms: C_5  and  C_6
REMARK    4  A    between atoms: C_6  and  C_8
REMARK    5  A    between atoms: N_11  and  C_12
REMARK    6  A    between atoms: C_27  and  O_28
REMARK    7  A    between atoms: O_28  and  C_29
REMARK    8  A    between atoms: C_30  and  O_31
REMARK    9  A    between atoms: O_31  and  C_32
REMARK                            x       y       z     vdW  Elec       q    Type
REMARK                         _______ _______ _______ _____ _____    ______ ____
ROOT
ATOM      1  C   UNL     1       5.319   4.279  16.852  0.00  0.00    +0.000 A 
ATOM      2  N   UNL     1       5.425   4.092  15.513  0.00  0.00    +0.000 NA
ATOM      3  C   UNL     1       6.404   4.687  14.825  0.00  0.00    +0.000 A 
ATOM      4  N   UNL     1       6.480   4.515  13.442  0.00  0.00    +0.000 N 
ATOM      5  N   UNL     1       7.303   5.506  15.362  0.00  0.00    +0.000 NA
ATOM      6  C   UNL     1       7.222   5.687  16.703  0.00  0.00    +0.000 A 
ATOM      7  C   UNL     1       8.109   6.504  17.463  0.00  0.00    +0.000 A 
ATOM      8  C   UNL     1       7.795   6.515  18.802  0.00  0.00    +0.000 A 
ATOM      9  S   UNL     1       6.425   5.557  19.139  0.00  0.00    +0.000 S 
ATOM     10  C   UNL     1       6.245   5.090  17.494  0.00  0.00    +0.000 A 
ATOM     11  H   UNL     1       7.205   5.100  13.052  0.00  0.00    +0.000 HD
ENDROOT
BRANCH   4  12
ATOM     12  C   UNL     1       5.864   3.595  12.585  0.00  0.00    +0.000 A 
ATOM     13  C   UNL     1       6.564   2.443  12.203  0.00  0.00    +0.000 A 
ATOM     14  C   UNL     1       6.024   1.558  11.268  0.00  0.00    +0.000 A 
ATOM     15  F   UNL     1       6.724   0.475  10.909  0.00  0.00    +0.000 F 
ATOM     16  C   UNL     1       4.784   1.789  10.691  0.00  0.00    +0.000 A 
ATOM     17  C   UNL     1       4.086   2.921  11.067  0.00  0.00    +0.000 A 
ATOM     18  F   UNL     1       2.888   3.167  10.525  0.00  0.00    +0.000 F 
ATOM     19  C   UNL     1       4.611   3.819  11.996  0.00  0.00    +0.000 A 
ENDBRANCH   4  12
BRANCH   1  20
ATOM     20  C   UNL     1       4.212   3.571  17.545  0.00  0.00    +0.000 C 
ATOM     21  O   UNL     1       3.973   2.391  17.309  0.00  0.00    +0.000 OA
BRANCH  20  24
ATOM     22  C   UNL     1       2.266   4.494  20.679  0.00  0.00    +0.000 A 
ATOM     23  C   UNL     1       2.955   3.740  19.717  0.00  0.00    +0.000 A 
ATOM     24  C   UNL     1       3.341   4.307  18.506  0.00  0.00    +0.000 A 
ATOM     25  C   UNL     1       2.911   5.594  18.197  0.00  0.00    +0.000 A 
ATOM     26  C   UNL     1       2.137   6.336  19.105  0.00  0.00    +0.000 A 
ATOM     27  C   UNL     1       1.805   5.792  20.368  0.00  0.00    +0.000 A 
BRANCH  22  29
ATOM     28  C   UNL     1       1.465   2.630  21.897  0.00  0.00    +0.000 C 
ATOM     29  O   UNL     1       2.022   3.948  21.916  0.00  0.00    +0.000 OA
ENDBRANCH  22  29
BRANCH  26  30
ATOM     30  O   UNL     1       1.822   7.573  18.595  0.00  0.00    +0.000 OA
ATOM     31  C   UNL     1       2.769   8.272  17.802  0.00  0.00    +0.000 C 
ENDBRANCH  26  30
BRANCH  27  32
ATOM     32  O   UNL     1       1.043   6.587  21.179  0.00  0.00    +0.000 OA
ATOM     33  C   UNL     1       1.361   7.953  21.384  0.00  0.00    +0.000 C 
ENDBRANCH  27  32
ENDBRANCH  20  24
ENDBRANCH   1  20
TORSDOF 6
ENDMDL
MODEL 4
REMARK VINA RESULT:      -7.7      0.223      2.289
REMARK  Name = 
REMARK  9 active torsions:
REMARK  status: ('A' for Active; 'I' for Inactive)
REMARK    1  A    between atoms: C_1  and  O_2
REMARK    2  A    between atoms: O_2  and  C_3
REMARK    3  A    between atoms: C_5  and  C_6
REMARK    4  A    between atoms: C_6  and  C_8
REMARK    5  A    between atoms: N_11  and  C_12
REMARK    6  A    between atoms: C_27  and  O_28
REMARK    7  A    between atoms: O_28  and  C_29
REMARK    8  A    between atoms: C_30  and  O_31
REMARK    9  A    between atoms: O_31  and  C_32
REMARK                            x       y       z     vdW  Elec       q    Type
REMARK                         _______ _______ _______ _____ _____    ______ ____
ROOT
ATOM      1  C   UNL     1       0.593   9.677  19.805  0.00  0.00    +0.000 A 
ATOM      2  N   UNL     1       1.382   8.604  19.551  0.00  0.00    +0.000 NA
ATOM      3  C   UNL     1       1.747   7.785  20.542  0.00  0.00    +0.000 A 
ATOM      4  N   UNL     1       2.588   6.705  20.272  0.00  0.00    +0.000 N 
ATOM      5  N   UNL     1       1.409   7.959  21.816  0.00  0.00    +0.000 NA
ATOM      6  C   UNL     1       0.604   9.016  22.083  0.00  0.00    +0.000 A 
ATOM      7  C   UNL     1       0.115   9.351  23.379  0.00  0.00    +0.000 A 
ATOM      8  C   UNL     1      -0.676  10.476  23.367  0.00  0.00    +0.000 A 
ATOM      9  S   UNL     1      -0.815  11.135  21.799  0.00  0.00    +0.000 S 
ATOM     10  C   UNL     1       0.166   9.905  21.106  0.00  0.00    +0.000 A 
ATOM     11  H   UNL     1       2.853   6.240  21.129  0.00  0.00    +0.000 HD
ENDROOT
BRANCH   4  12
ATOM     12  C   UNL     1       2.966   6.100  19.067  0.00  0.00    +0.000 A 
ATOM     13  C   UNL     1       2.417   4.856  18.726  0.00  0.00    +0.000 A 
ATOM     14  C   UNL     1       2.849   4.175  17.586  0.00  0.00    +0.000 A 
ATOM     15  F   UNL     1       2.319   2.981  17.296  0.00  0.00    +0.000 F 
ATOM     16  C   UNL     1       3.829   4.704  16.760  0.00  0.00    +0.000 A 
ATOM     17  C   UNL     1       4.372   5.932  17.088  0.00  0.00    +0.000 A 
ATOM     18  F   UNL     1       5.320   6.464  16.307  0.00  0.00    +0.000 F 
ATOM     19  C   UNL     1       3.956   6.626  18.224  0.00  0.00    +0.000 A 
ENDBRANCH   4  12
BRANCH   1  20
ATOM     20  C   UNL     1       0.221  10.530  18.647  0.00  0.00    +0.000 C 
ATOM     21  O   UNL     1       1.079  11.120  17.999  0.00  0.00    +0.000 OA
BRANCH  20  24
ATOM     22  C   UNL     1      -3.356  11.817  18.627  0.00  0.00    +0.000 A 
ATOM     23  C   UNL     1      -2.053  11.523  19.056  0.00  0.00    +0.000 A 
ATOM     24  C   UNL     1      -1.213  10.718  18.289  0.00  0.00    +0.000 A 
ATOM     25  C   UNL     1      -1.729  10.089  17.160  0.00  0.00    +0.000 A 
ATOM     26  C   UNL     1      -3.061  10.292  16.763  0.00  0.00    +0.000 A 
ATOM     27  C   UNL     1      -3.897  11.168  17.496  0.00  0.00    +0.000 A 
BRANCH  22  29
ATOM     28  C   UNL     1      -3.487  13.238  20.515  0.00  0.00    +0.000 C 
ATOM     29  O   UNL     1      -4.110  12.723  19.334  0.00  0.00    +0.000 OA
ENDBRANCH  22  29
BRANCH  26  30
ATOM     30  O   UNL     1      -3.357   9.575  15.629  0.00  0.00    +0.000 OA
ATOM     31  C   UNL     1      -3.074  10.125  14.351  0.00  0.00    +0.000 C 
ENDBRANCH  26  30
BRANCH  27  32
ATOM     32  O   UNL     1      -5.179  11.295  17.036  0.00  0.00    +0.000 OA
ATOM     33  C   UNL     1      -6.293  11.085  17.885  0.00  0.00    +0.000 C 
ENDBRANCH  27  32
ENDBRANCH  20  24
ENDBRANCH   1  20
TORSDOF 6
ENDMDL
MODEL 5
REMARK VINA RESULT:      -7.7      2.682      4.430
REMARK  Name = 
REMARK  9 active torsions:
REMARK  status: ('A' for Active; 'I' for Inactive)
REMARK    1  A    between atoms: C_1  and  O_2
REMARK    2  A    between atoms: O_2  and  C_3
REMARK    3  A    between atoms: C_5  and  C_6
REMARK    4  A    between atoms: C_6  and  C_8
REMARK    5  A    between atoms: N_11  and  C_12
REMARK    6  A    between atoms: C_27  and  O_28
REMARK    7  A    between atoms: O_28  and  C_29
REMARK    8  A    between atoms: C_30  and  O_31
REMARK    9  A    between atoms: O_31  and  C_32
REMARK                            x       y       z     vdW  Elec       q    Type
REMARK                         _______ _______ _______ _____ _____    ______ ____
ROOT
ATOM      1  C   UNL     1       0.494  10.065  19.791  0.00  0.00    +0.000 A 
ATOM      2  N   UNL     1       1.266   8.969  19.588  0.00  0.00    +0.000 NA
ATOM      3  C   UNL     1       1.499   8.114  20.588  0.00  0.00    +0.000 A 
ATOM      4  N   UNL     1       2.324   7.009  20.376  0.00  0.00    +0.000 N 
ATOM      5  N   UNL     1       1.040   8.271  21.826  0.00  0.00    +0.000 NA
ATOM      6  C   UNL     1       0.250   9.351  22.040  0.00  0.00    +0.000 A 
ATOM      7  C   UNL     1      -0.356   9.675  23.288  0.00  0.00    +0.000 A 
ATOM      8  C   UNL     1      -1.101  10.829  23.227  0.00  0.00    +0.000 A 
ATOM      9  S   UNL     1      -1.057  11.529  21.671  0.00  0.00    +0.000 S 
ATOM     10  C   UNL     1      -0.055  10.279  21.047  0.00  0.00    +0.000 A 
ATOM     11  H   UNL     1       2.484   6.515  21.242  0.00  0.00    +0.000 HD
ENDROOT
BRANCH   4  12
ATOM     12  C   UNL     1       2.801   6.418  19.199  0.00  0.00    +0.000 A 
ATOM     13  C   UNL     1       2.331   5.149  18.833  0.00  0.00    +0.000 A 
ATOM     14  C   UNL     1       2.861   4.485  17.726  0.00  0.00    +0.000 A 
ATOM     15  F   UNL     1       2.404   3.267  17.411  0.00  0.00    +0.000 F 
ATOM     16  C   UNL     1       3.863   5.056  16.956  0.00  0.00    +0.000 A 
ATOM     17  C   UNL     1       4.329   6.309  17.309  0.00  0.00    +0.000 A 
ATOM     18  F   UNL     1       5.296   6.881  16.582  0.00  0.00    +0.000 F 
ATOM     19  C   UNL     1       3.815   6.986  18.414  0.00  0.00    +0.000 A 
ENDBRANCH   4  12
BRANCH   1  20
ATOM     20  C   UNL     1       0.272  10.958  18.624  0.00  0.00    +0.000 C 
ATOM     21  O   UNL     1      -0.238  10.532  17.593  0.00  0.00    +0.000 OA
BRANCH  20  24
ATOM     22  C   UNL     1       0.216  14.755  18.812  0.00  0.00    +0.000 A 
ATOM     23  C   UNL     1      -0.195  13.429  18.607  0.00  0.00    +0.000 A 
ATOM     24  C   UNL     1       0.718  12.379  18.678  0.00  0.00    +0.000 A 
ATOM     25  C   UNL     1       2.072  12.671  18.812  0.00  0.00    +0.000 A 
ATOM     26  C   UNL     1       2.519  13.999  18.923  0.00  0.00    +0.000 A 
ATOM     27  C   UNL     1       1.588  15.065  18.927  0.00  0.00    +0.000 A 
BRANCH  22  29
ATOM     28  C   UNL     1      -1.329  15.937  20.159  0.00  0.00    +0.000 C 
ATOM     29  O   UNL     1      -0.728  15.751  18.874  0.00  0.00    +0.000 OA
ENDBRANCH  22  29
BRANCH  26  30
ATOM     30  O   UNL     1       3.887  14.055  19.043  0.00  0.00    +0.000 OA
ATOM     31  C   UNL     1       4.671  14.547  17.967  0.00  0.00    +0.000 C 
ENDBRANCH  26  30
BRANCH  27  32
ATOM     32  O   UNL     1       2.120  16.321  19.033  0.00  0.00    +0.000 OA
ATOM     33  C   UNL     1       2.305  16.941  20.293  0.00  0.00    +0.000 C 
ENDBRANCH  27  32
ENDBRANCH  20  24
ENDBRANCH   1  20
TORSDOF 6
ENDMDL
MODEL 6
REMARK VINA RESULT:      -7.6      5.104      8.152
REMARK  Name = 
REMARK  9 active torsions:
REMARK  status: ('A' for Active; 'I' for Inactive)
REMARK    1  A    between atoms: C_1  and  O_2
REMARK    2  A    between atoms: O_2  and  C_3
REMARK    3  A    between atoms: C_5  and  C_6
REMARK    4  A    between atoms: C_6  and  C_8
REMARK    5  A    between atoms: N_11  and  C_12
REMARK    6  A    between atoms: C_27  and  O_28
REMARK    7  A    between atoms: O_28  and  C_29
REMARK    8  A    between atoms: C_30  and  O_31
REMARK    9  A    between atoms: O_31  and  C_32
REMARK                            x       y       z     vdW  Elec       q    Type
REMARK                         _______ _______ _______ _____ _____    ______ ____
ROOT
ATOM      1  C   UNL     1       4.903   4.449  16.851  0.00  0.00    +0.000 A 
ATOM      2  N   UNL     1       5.181   4.178  15.552  0.00  0.00    +0.000 NA
ATOM      3  C   UNL     1       6.420   4.343  15.079  0.00  0.00    +0.000 A 
ATOM      4  N   UNL     1       6.685   4.094  13.732  0.00  0.00    +0.000 N 
ATOM      5  N   UNL     1       7.440   4.798  15.800  0.00  0.00    +0.000 NA
ATOM      6  C   UNL     1       7.181   5.055  17.106  0.00  0.00    +0.000 A 
ATOM      7  C   UNL     1       8.148   5.523  18.044  0.00  0.00    +0.000 A 
ATOM      8  C   UNL     1       7.616   5.707  19.298  0.00  0.00    +0.000 A 
ATOM      9  S   UNL     1       5.951   5.332  19.342  0.00  0.00    +0.000 S 
ATOM     10  C   UNL     1       5.924   4.892  17.679  0.00  0.00    +0.000 A 
ATOM     11  H   UNL     1       7.633   4.356  13.503  0.00  0.00    +0.000 HD
ENDROOT
BRANCH   4  12
ATOM     12  C   UNL     1       5.945   3.427  12.747  0.00  0.00    +0.000 A 
ATOM     13  C   UNL     1       6.423   2.209  12.242  0.00  0.00    +0.000 A 
ATOM     14  C   UNL     1       5.769   1.570  11.188  0.00  0.00    +0.000 A 
ATOM     15  F   UNL     1       6.259   0.417  10.715  0.00  0.00    +0.000 F 
ATOM     16  C   UNL     1       4.634   2.115  10.609  0.00  0.00    +0.000 A 
ATOM     17  C   UNL     1       4.155   3.313  11.104  0.00  0.00    +0.000 A 
ATOM     18  F   UNL     1       3.060   3.860  10.563  0.00  0.00    +0.000 F 
ATOM     19  C   UNL     1       4.796   3.969  12.155  0.00  0.00    +0.000 A 
ENDBRANCH   4  12
BRANCH   1  20
ATOM     20  C   UNL     1       3.505   4.226  17.301  0.00  0.00    +0.000 C 
ATOM     21  O   UNL     1       2.790   3.396  16.748  0.00  0.00    +0.000 OA
BRANCH  20  24
ATOM     22  C   UNL     1       2.099   7.171  19.252  0.00  0.00    +0.000 A 
ATOM     23  C   UNL     1       2.775   6.428  18.273  0.00  0.00    +0.000 A 
ATOM     24  C   UNL     1       2.935   5.051  18.404  0.00  0.00    +0.000 A 
ATOM     25  C   UNL     1       2.543   4.436  19.590  0.00  0.00    +0.000 A 
ATOM     26  C   UNL     1       1.950   5.177  20.627  0.00  0.00    +0.000 A 
ATOM     27  C   UNL     1       1.716   6.564  20.468  0.00  0.00    +0.000 A 
BRANCH  22  29
ATOM     28  C   UNL     1       2.149   8.966  17.711  0.00  0.00    +0.000 C 
ATOM     29  O   UNL     1       1.836   8.500  19.028  0.00  0.00    +0.000 OA
ENDBRANCH  22  29
BRANCH  26  30
ATOM     30  O   UNL     1       1.647   4.374  21.700  0.00  0.00    +0.000 OA
ATOM     31  C   UNL     1       1.533   2.970  21.523  0.00  0.00    +0.000 C 
ENDBRANCH  26  30
BRANCH  27  32
ATOM     32  O   UNL     1       1.141   7.198  21.534  0.00  0.00    +0.000 OA
ATOM     33  C   UNL     1       0.003   8.026  21.375  0.00  0.00    +0.000 C 
ENDBRANCH  27  32
ENDBRANCH  20  24
ENDBRANCH   1  20
TORSDOF 6
ENDMDL
MODEL 7
REMARK VINA RESULT:      -7.6      5.052      8.179
REMARK  Name = 
REMARK  9 active torsions:
REMARK  status: ('A' for Active; 'I' for Inactive)
REMARK    1  A    between atoms: C_1  and  O_2
REMARK    2  A    between atoms: O_2  and  C_3
REMARK    3  A    between atoms: C_5  and  C_6
REMARK    4  A    between atoms: C_6  and  C_8
REMARK    5  A    between atoms: N_11  and  C_12
REMARK    6  A    between atoms: C_27  and  O_28
REMARK    7  A    between atoms: O_28  and  C_29
REMARK    8  A    between atoms: C_30  and  O_31
REMARK    9  A    between atoms: O_31  and  C_32
REMARK                            x       y       z     vdW  Elec       q    Type
REMARK                         _______ _______ _______ _____ _____    ______ ____
ROOT
ATOM      1  C   UNL     1       5.009   4.437  16.784  0.00  0.00    +0.000 A 
ATOM      2  N   UNL     1       5.332   4.195  15.489  0.00  0.00    +0.000 NA
ATOM      3  C   UNL     1       6.581   4.392  15.057  0.00  0.00    +0.000 A 
ATOM      4  N   UNL     1       6.891   4.173  13.715  0.00  0.00    +0.000 N 
ATOM      5  N   UNL     1       7.569   4.855  15.817  0.00  0.00    +0.000 NA
ATOM      6  C   UNL     1       7.267   5.083  17.119  0.00  0.00    +0.000 A 
ATOM      7  C   UNL     1       8.195   5.552  18.093  0.00  0.00    +0.000 A 
ATOM      8  C   UNL     1       7.622   5.704  19.334  0.00  0.00    +0.000 A 
ATOM      9  S   UNL     1       5.965   5.296  19.320  0.00  0.00    +0.000 S 
ATOM     10  C   UNL     1       5.996   4.885  17.651  0.00  0.00    +0.000 A 
ATOM     11  H   UNL     1       7.841   4.457  13.520  0.00  0.00    +0.000 HD
ENDROOT
BRANCH   4  12
ATOM     12  C   UNL     1       6.195   3.509  12.697  0.00  0.00    +0.000 A 
ATOM     13  C   UNL     1       4.986   4.046  12.234  0.00  0.00    +0.000 A 
ATOM     14  C   UNL     1       4.213   3.358  11.297  0.00  0.00    +0.000 A 
ATOM     15  F   UNL     1       3.055   3.888  10.886  0.00  0.00    +0.000 F 
ATOM     16  C   UNL     1       4.614   2.128  10.797  0.00  0.00    +0.000 A 
ATOM     17  C   UNL     1       5.807   1.594  11.246  0.00  0.00    +0.000 A 
ATOM     18  F   UNL     1       6.216   0.409  10.780  0.00  0.00    +0.000 F 
ATOM     19  C   UNL     1       6.591   2.265  12.185  0.00  0.00    +0.000 A 
ENDBRANCH   4  12
BRANCH   1  20
ATOM     20  C   UNL     1       3.603   4.179  17.187  0.00  0.00    +0.000 C 
ATOM     21  O   UNL     1       2.934   3.320  16.622  0.00  0.00    +0.000 OA
BRANCH  20  24
ATOM     22  C   UNL     1       2.241   7.154  19.123  0.00  0.00    +0.000 A 
ATOM     23  C   UNL     1       2.969   6.394  18.196  0.00  0.00    +0.000 A 
ATOM     24  C   UNL     1       2.970   5.003  18.256  0.00  0.00    +0.000 A 
ATOM     25  C   UNL     1       2.356   4.374  19.335  0.00  0.00    +0.000 A 
ATOM     26  C   UNL     1       1.701   5.120  20.330  0.00  0.00    +0.000 A 
ATOM     27  C   UNL     1       1.632   6.530  20.233  0.00  0.00    +0.000 A 
BRANCH  22  29
ATOM     28  C   UNL     1       1.455   8.931  17.773  0.00  0.00    +0.000 C 
ATOM     29  O   UNL     1       2.147   8.514  18.954  0.00  0.00    +0.000 OA
ENDBRANCH  22  29
BRANCH  26  30
ATOM     30  O   UNL     1       1.170   4.300  21.297  0.00  0.00    +0.000 OA
ATOM     31  C   UNL     1       1.737   3.019  21.527  0.00  0.00    +0.000 C 
ENDBRANCH  26  30
BRANCH  27  32
ATOM     32  O   UNL     1       0.979   7.167  21.253  0.00  0.00    +0.000 OA
ATOM     33  C   UNL     1       1.285   8.505  21.603  0.00  0.00    +0.000 C 
ENDBRANCH  27  32
ENDBRANCH  20  24
ENDBRANCH   1  20
TORSDOF 6
ENDMDL
MODEL 8
REMARK VINA RESULT:      -7.6      2.741      4.272
REMARK  Name = 
REMARK  9 active torsions:
REMARK  status: ('A' for Active; 'I' for Inactive)
REMARK    1  A    between atoms: C_1  and  O_2
REMARK    2  A    between atoms: O_2  and  C_3
REMARK    3  A    between atoms: C_5  and  C_6
REMARK    4  A    between atoms: C_6  and  C_8
REMARK    5  A    between atoms: N_11  and  C_12
REMARK    6  A    between atoms: C_27  and  O_28
REMARK    7  A    between atoms: O_28  and  C_29
REMARK    8  A    between atoms: C_30  and  O_31
REMARK    9  A    between atoms: O_31  and  C_32
REMARK                            x       y       z     vdW  Elec       q    Type
REMARK                         _______ _______ _______ _____ _____    ______ ____
ROOT
ATOM      1  C   UNL     1       0.545  10.068  19.794  0.00  0.00    +0.000 A 
ATOM      2  N   UNL     1       1.308   8.967  19.584  0.00  0.00    +0.000 NA
ATOM      3  C   UNL     1       1.521   8.096  20.575  0.00  0.00    +0.000 A 
ATOM      4  N   UNL     1       2.337   6.985  20.355  0.00  0.00    +0.000 N 
ATOM      5  N   UNL     1       1.051   8.240  21.810  0.00  0.00    +0.000 NA
ATOM      6  C   UNL     1       0.270   9.326  22.030  0.00  0.00    +0.000 A 
ATOM      7  C   UNL     1      -0.346   9.639  23.277  0.00  0.00    +0.000 A 
ATOM      8  C   UNL     1      -1.078  10.801  23.224  0.00  0.00    +0.000 A 
ATOM      9  S   UNL     1      -1.010  11.523  21.679  0.00  0.00    +0.000 S 
ATOM     10  C   UNL     1      -0.015  10.270  21.048  0.00  0.00    +0.000 A 
ATOM     11  H   UNL     1       2.482   6.477  21.216  0.00  0.00    +0.000 HD
ENDROOT
BRANCH   4  12
ATOM     12  C   UNL     1       2.819   6.406  19.175  0.00  0.00    +0.000 A 
ATOM     13  C   UNL     1       2.359   5.136  18.800  0.00  0.00    +0.000 A 
ATOM     14  C   UNL     1       2.895   4.483  17.688  0.00  0.00    +0.000 A 
ATOM     15  F   UNL     1       2.448   3.264  17.365  0.00  0.00    +0.000 F 
ATOM     16  C   UNL     1       3.895   5.066  16.925  0.00  0.00    +0.000 A 
ATOM     17  C   UNL     1       4.351   6.320  17.287  0.00  0.00    +0.000 A 
ATOM     18  F   UNL     1       5.316   6.904  16.566  0.00  0.00    +0.000 F 
ATOM     19  C   UNL     1       3.830   6.986  18.396  0.00  0.00    +0.000 A 
ENDBRANCH   4  12
BRANCH   1  20
ATOM     20  C   UNL     1       0.345  10.980  18.638  0.00  0.00    +0.000 C 
ATOM     21  O   UNL     1      -0.209  10.589  17.616  0.00  0.00    +0.000 OA
BRANCH  20  24
ATOM     22  C   UNL     1       2.706  13.959  18.562  0.00  0.00    +0.000 A 
ATOM     23  C   UNL     1       2.232  12.643  18.668  0.00  0.00    +0.000 A 
ATOM     24  C   UNL     1       0.865  12.376  18.690  0.00  0.00    +0.000 A 
ATOM     25  C   UNL     1      -0.029  13.441  18.752  0.00  0.00    +0.000 A 
ATOM     26  C   UNL     1       0.427  14.770  18.744  0.00  0.00    +0.000 A 
ATOM     27  C   UNL     1       1.811  15.047  18.645  0.00  0.00    +0.000 A 
BRANCH  22  29
ATOM     28  C   UNL     1       4.716  14.732  19.543  0.00  0.00    +0.000 C 
ATOM     29  O   UNL     1       4.053  14.179  18.402  0.00  0.00    +0.000 OA
ENDBRANCH  22  29
BRANCH  26  30
ATOM     30  O   UNL     1      -0.622  15.656  18.815  0.00  0.00    +0.000 OA
ATOM     31  C   UNL     1      -1.030  16.168  20.074  0.00  0.00    +0.000 C 
ENDBRANCH  26  30
BRANCH  27  32
ATOM     32  O   UNL     1       2.157  16.371  18.652  0.00  0.00    +0.000 OA
ATOM     33  C   UNL     1       2.380  17.082  17.448  0.00  0.00    +0.000 C 
ENDBRANCH  27  32
ENDBRANCH  20  24
ENDBRANCH   1  20
TORSDOF 6
ENDMDL
MODEL 9
REMARK VINA RESULT:      -7.5      0.216      1.463
REMARK  Name = 
REMARK  9 active torsions:
REMARK  status: ('A' for Active; 'I' for Inactive)
REMARK    1  A    between atoms: C_1  and  O_2
REMARK    2  A    between atoms: O_2  and  C_3
REMARK    3  A    between atoms: C_5  and  C_6
REMARK    4  A    between atoms: C_6  and  C_8
REMARK    5  A    between atoms: N_11  and  C_12
REMARK    6  A    between atoms: C_27  and  O_28
REMARK    7  A    between atoms: O_28  and  C_29
REMARK    8  A    between atoms: C_30  and  O_31
REMARK    9  A    between atoms: O_31  and  C_32
REMARK                            x       y       z     vdW  Elec       q    Type
REMARK                         _______ _______ _______ _____ _____    ______ ____
ROOT
ATOM      1  C   UNL     1       0.638   9.662  19.843  0.00  0.00    +0.000 A 
ATOM      2  N   UNL     1       1.373   8.533  19.684  0.00  0.00    +0.000 NA
ATOM      3  C   UNL     1       1.616   7.735  20.727  0.00  0.00    +0.000 A 
ATOM      4  N   UNL     1       2.404   6.595  20.558  0.00  0.00    +0.000 N 
ATOM      5  N   UNL     1       1.204   7.981  21.968  0.00  0.00    +0.000 NA
ATOM      6  C   UNL     1       0.451   9.095  22.138  0.00  0.00    +0.000 A 
ATOM      7  C   UNL     1      -0.104   9.512  23.383  0.00  0.00    +0.000 A 
ATOM      8  C   UNL     1      -0.818  10.681  23.273  0.00  0.00    +0.000 A 
ATOM      9  S   UNL     1      -0.808  11.283  21.677  0.00  0.00    +0.000 S 
ATOM     10  C   UNL     1       0.138   9.968  21.100  0.00  0.00    +0.000 A 
ATOM     11  H   UNL     1       2.579   6.151  21.448  0.00  0.00    +0.000 HD
ENDROOT
BRANCH   4  12
ATOM     12  C   UNL     1       2.824   5.919  19.405  0.00  0.00    +0.000 A 
ATOM     13  C   UNL     1       3.823   6.490  18.605  0.00  0.00    +0.000 A 
ATOM     14  C   UNL     1       4.191   5.899  17.395  0.00  0.00    +0.000 A 
ATOM     15  F   UNL     1       5.136   6.477  16.644  0.00  0.00    +0.000 F 
ATOM     16  C   UNL     1       3.584   4.735  16.949  0.00  0.00    +0.000 A 
ATOM     17  C   UNL     1       2.601   4.164  17.735  0.00  0.00    +0.000 A 
ATOM     18  F   UNL     1       2.000   3.041  17.327  0.00  0.00    +0.000 F 
ATOM     19  C   UNL     1       2.216   4.742  18.945  0.00  0.00    +0.000 A 
ENDBRANCH   4  12
BRANCH   1  20
ATOM     20  C   UNL     1       0.401  10.487  18.630  0.00  0.00    +0.000 C 
ATOM     21  O   UNL     1       1.340  10.951  17.991  0.00  0.00    +0.000 OA
BRANCH  20  24
ATOM     22  C   UNL     1      -2.930  10.370  16.802  0.00  0.00    +0.000 A 
ATOM     23  C   UNL     1      -1.573  10.180  17.103  0.00  0.00    +0.000 A 
ATOM     24  C   UNL     1      -0.991  10.804  18.204  0.00  0.00    +0.000 A 
ATOM     25  C   UNL     1      -1.736  11.735  18.923  0.00  0.00    +0.000 A 
ATOM     26  C   UNL     1      -3.070  12.014  18.581  0.00  0.00    +0.000 A 
ATOM     27  C   UNL     1      -3.689  11.327  17.510  0.00  0.00    +0.000 A 
BRANCH  22  29
ATOM     28  C   UNL     1      -3.113  10.005  14.471  0.00  0.00    +0.000 C 
ATOM     29  O   UNL     1      -3.507   9.633  15.796  0.00  0.00    +0.000 OA
ENDBRANCH  22  29
BRANCH  26  30
ATOM     30  O   UNL     1      -3.609  12.962  19.417  0.00  0.00    +0.000 OA
ATOM     31  C   UNL     1      -4.238  12.562  20.626  0.00  0.00    +0.000 C 
ENDBRANCH  26  30
BRANCH  27  32
ATOM     32  O   UNL     1      -4.987  11.673  17.251  0.00  0.00    +0.000 OA
ATOM     33  C   UNL     1      -6.065  11.054  17.930  0.00  0.00    +0.000 C 
ENDBRANCH  27  32
ENDBRANCH  20  24
ENDBRANCH   1  20
TORSDOF 6
ENDMDL
