MODEL 1
REMARK VINA RESULT:      -8.4      0.000      0.000
REMARK  Name = 
REMARK  6 active torsions:
REMARK  status: ('A' for Active; 'I' for Inactive)
REMARK    1  A    between atoms: O_1  and  C_2
REMARK    2  A    between atoms: C_2  and  C_3
REMARK    3  A    between atoms: C_2  and  C_10
REMARK    4  A    between atoms: C_2  and  C_17
REMARK    5  A    between atoms: C_3  and  C_4
REMARK    6  A    between atoms: C_10  and  C_11
REMARK                            x       y       z     vdW  Elec       q    Type
REMARK                         _______ _______ _______ _____ _____    ______ ____
ROOT
ATOM      1  C   UNL     1       2.959   6.657  18.646  0.00  0.00    +0.000 C 
ENDROOT
BRANCH   1   2
ATOM      2  C   UNL     1       2.192   7.762  19.337  0.00  0.00    +0.000 A 
ATOM      3  C   UNL     1       1.599   8.905  18.834  0.00  0.00    +0.000 A 
ATOM      4  C   UNL     1       0.865   9.518  19.882  0.00  0.00    +0.000 A 
ATOM      5  C   UNL     1      -0.005  10.623  19.937  0.00  0.00    +0.000 A 
ATOM      6  C   UNL     1      -0.596  10.966  21.156  0.00  0.00    +0.000 A 
ATOM      7  C   UNL     1      -0.320  10.232  22.308  0.00  0.00    +0.000 A 
ATOM      8  C   UNL     1       0.536   9.124  22.275  0.00  0.00    +0.000 A 
ATOM      9  C   UNL     1       1.105   8.783  21.041  0.00  0.00    +0.000 A 
ATOM     10  N   UNL     1       1.933   7.738  20.692  0.00  0.00    +0.000 N 
ATOM     11  H   UNL     1       2.234   6.997  21.311  0.00  0.00    +0.000 HD
ENDBRANCH   1   2
BRANCH   1  12
ATOM     12  O   UNL     1       3.849   6.134  19.642  0.00  0.00    +0.000 OA
ATOM     13  H   UNL     1       4.590   6.757  19.733  0.00  0.00    +0.000 HD
ENDBRANCH   1  12
BRANCH   1  14
ATOM     14  C   UNL     1       3.808   7.295  17.506  0.00  0.00    +0.000 C 
BRANCH  14  15
ATOM     15  C   UNL     1       4.982   6.495  16.986  0.00  0.00    +0.000 A 
ATOM     16  C   UNL     1       4.793   5.307  16.274  0.00  0.00    +0.000 A 
ATOM     17  C   UNL     1       5.887   4.642  15.725  0.00  0.00    +0.000 A 
ATOM     18  C   UNL     1       7.146   5.182  15.916  0.00  0.00    +0.000 A 
ATOM     19  N   UNL     1       7.374   6.317  16.609  0.00  0.00    +0.000 NA
ATOM     20  C   UNL     1       6.292   6.951  17.116  0.00  0.00    +0.000 A 
ENDBRANCH  14  15
ENDBRANCH   1  14
BRANCH   1  21
ATOM     21  C   UNL     1       2.009   5.542  18.103  0.00  0.00    +0.000 C 
BRANCH  21  22
ATOM     22  C   UNL     1       1.861   4.234  18.862  0.00  0.00    +0.000 A 
ATOM     23  C   UNL     1       1.170   4.071  20.064  0.00  0.00    +0.000 A 
ATOM     24  C   UNL     1       1.093   2.819  20.672  0.00  0.00    +0.000 A 
ATOM     25  C   UNL     1       1.728   1.755  20.062  0.00  0.00    +0.000 A 
ATOM     26  N   UNL     1       2.410   1.859  18.904  0.00  0.00    +0.000 NA
ATOM     27  C   UNL     1       2.455   3.086  18.334  0.00  0.00    +0.000 A 
ENDBRANCH  21  22
ENDBRANCH   1  21
TORSDOF 6
ENDMDL
MODEL 2
REMARK VINA RESULT:      -8.2      0.822      1.225
REMARK  Name = 
REMARK  6 active torsions:
REMARK  status: ('A' for Active; 'I' for Inactive)
REMARK    1  A    between atoms: O_1  and  C_2
REMARK    2  A    between atoms: C_2  and  C_3
REMARK    3  A    between atoms: C_2  and  C_10
REMARK    4  A    between atoms: C_2  and  C_17
REMARK    5  A    between atoms: C_3  and  C_4
REMARK    6  A    between atoms: C_10  and  C_11
REMARK                            x       y       z     vdW  Elec       q    Type
REMARK                         _______ _______ _______ _____ _____    ______ ____
ROOT
ATOM      1  C   UNL     1       3.063   6.563  18.706  0.00  0.00    +0.000 C 
ENDROOT
BRANCH   1   2
ATOM      2  C   UNL     1       2.262   7.692  19.314  0.00  0.00    +0.000 A 
ATOM      3  C   UNL     1       1.699   8.816  18.739  0.00  0.00    +0.000 A 
ATOM      4  C   UNL     1       0.911   9.467  19.722  0.00  0.00    +0.000 A 
ATOM      5  C   UNL     1       0.042  10.573  19.691  0.00  0.00    +0.000 A 
ATOM      6  C   UNL     1      -0.613  10.961  20.863  0.00  0.00    +0.000 A 
ATOM      7  C   UNL     1      -0.400  10.269  22.054  0.00  0.00    +0.000 A 
ATOM      8  C   UNL     1       0.454   9.161  22.107  0.00  0.00    +0.000 A 
ATOM      9  C   UNL     1       1.088   8.775  20.919  0.00  0.00    +0.000 A 
ATOM     10  N   UNL     1       1.931   7.718  20.653  0.00  0.00    +0.000 N 
ATOM     11  H   UNL     1       2.198   7.000  21.314  0.00  0.00    +0.000 HD
ENDBRANCH   1   2
BRANCH   1  12
ATOM     12  O   UNL     1       3.702   5.913  19.813  0.00  0.00    +0.000 OA
ATOM     13  H   UNL     1       3.550   4.957  19.722  0.00  0.00    +0.000 HD
ENDBRANCH   1  12
BRANCH   1  14
ATOM     14  C   UNL     1       4.161   7.183  17.792  0.00  0.00    +0.000 C 
BRANCH  14  15
ATOM     15  C   UNL     1       5.149   6.233  17.152  0.00  0.00    +0.000 A 
ATOM     16  C   UNL     1       5.125   5.979  15.777  0.00  0.00    +0.000 A 
ATOM     17  C   UNL     1       6.105   5.174  15.201  0.00  0.00    +0.000 A 
ATOM     18  C   UNL     1       7.079   4.635  16.023  0.00  0.00    +0.000 A 
ATOM     19  N   UNL     1       7.128   4.841  17.355  0.00  0.00    +0.000 NA
ATOM     20  C   UNL     1       6.174   5.641  17.885  0.00  0.00    +0.000 A 
ENDBRANCH  14  15
ENDBRANCH   1  14
BRANCH   1  21
ATOM     21  C   UNL     1       2.154   5.564  17.920  0.00  0.00    +0.000 C 
BRANCH  21  22
ATOM     22  C   UNL     1       2.260   4.071  18.184  0.00  0.00    +0.000 A 
ATOM     23  C   UNL     1       3.213   3.217  17.624  0.00  0.00    +0.000 A 
ATOM     24  C   UNL     1       3.221   1.861  17.943  0.00  0.00    +0.000 A 
ATOM     25  C   UNL     1       2.257   1.386  18.811  0.00  0.00    +0.000 A 
ATOM     26  N   UNL     1       1.313   2.167  19.375  0.00  0.00    +0.000 NA
ATOM     27  C   UNL     1       1.342   3.482  19.054  0.00  0.00    +0.000 A 
ENDBRANCH  21  22
ENDBRANCH   1  21
TORSDOF 6
ENDMDL
MODEL 3
REMARK VINA RESULT:      -8.2      0.807      4.394
REMARK  Name = 
REMARK  6 active torsions:
REMARK  status: ('A' for Active; 'I' for Inactive)
REMARK    1  A    between atoms: O_1  and  C_2
REMARK    2  A    between atoms: C_2  and  C_3
REMARK    3  A    between atoms: C_2  and  C_10
REMARK    4  A    between atoms: C_2  and  C_17
REMARK    5  A    between atoms: C_3  and  C_4
REMARK    6  A    between atoms: C_10  and  C_11
REMARK                            x       y       z     vdW  Elec       q    Type
REMARK                         _______ _______ _______ _____ _____    ______ ____
ROOT
ATOM      1  C   UNL     1       2.937   6.635  18.497  0.00  0.00    +0.000 C 
ENDROOT
BRANCH   1   2
ATOM      2  C   UNL     1       2.196   7.742  19.212  0.00  0.00    +0.000 A 
ATOM      3  C   UNL     1       1.600   8.892  18.729  0.00  0.00    +0.000 A 
ATOM      4  C   UNL     1       0.895   9.506  19.796  0.00  0.00    +0.000 A 
ATOM      5  C   UNL     1       0.036  10.617  19.879  0.00  0.00    +0.000 A 
ATOM      6  C   UNL     1      -0.523  10.958  21.113  0.00  0.00    +0.000 A 
ATOM      7  C   UNL     1      -0.225  10.216  22.254  0.00  0.00    +0.000 A 
ATOM      8  C   UNL     1       0.621   9.102  22.195  0.00  0.00    +0.000 A 
ATOM      9  C   UNL     1       1.158   8.763  20.946  0.00  0.00    +0.000 A 
ATOM     10  N   UNL     1       1.969   7.713  20.572  0.00  0.00    +0.000 N 
ATOM     11  H   UNL     1       2.279   6.967  21.180  0.00  0.00    +0.000 HD
ENDBRANCH   1   2
BRANCH   1  12
ATOM     12  O   UNL     1       1.921   5.852  17.854  0.00  0.00    +0.000 OA
ATOM     13  H   UNL     1       1.110   6.389  17.825  0.00  0.00    +0.000 HD
ENDBRANCH   1  12
BRANCH   1  14
ATOM     14  C   UNL     1       3.642   5.751  19.568  0.00  0.00    +0.000 C 
BRANCH  14  15
ATOM     15  C   UNL     1       2.999   4.424  19.904  0.00  0.00    +0.000 A 
ATOM     16  C   UNL     1       2.059   4.312  20.933  0.00  0.00    +0.000 A 
ATOM     17  C   UNL     1       1.412   3.099  21.158  0.00  0.00    +0.000 A 
ATOM     18  C   UNL     1       1.736   2.024  20.349  0.00  0.00    +0.000 A 
ATOM     19  N   UNL     1       2.647   2.084  19.356  0.00  0.00    +0.000 NA
ATOM     20  C   UNL     1       3.246   3.280  19.150  0.00  0.00    +0.000 A 
ENDBRANCH  14  15
ENDBRANCH   1  14
BRANCH   1  21
ATOM     21  C   UNL     1       3.954   7.197  17.452  0.00  0.00    +0.000 C 
BRANCH  21  22
ATOM     22  C   UNL     1       5.011   6.283  16.853  0.00  0.00    +0.000 A 
ATOM     23  C   UNL     1       4.761   5.060  16.228  0.00  0.00    +0.000 A 
ATOM     24  C   UNL     1       5.810   4.305  15.707  0.00  0.00    +0.000 A 
ATOM     25  C   UNL     1       7.096   4.792  15.839  0.00  0.00    +0.000 A 
ATOM     26  N   UNL     1       7.391   5.964  16.436  0.00  0.00    +0.000 NA
ATOM     27  C   UNL     1       6.348   6.678  16.919  0.00  0.00    +0.000 A 
ENDBRANCH  21  22
ENDBRANCH   1  21
TORSDOF 6
ENDMDL
MODEL 4
REMARK VINA RESULT:      -8.1      1.195      4.212
REMARK  Name = 
REMARK  6 active torsions:
REMARK  status: ('A' for Active; 'I' for Inactive)
REMARK    1  A    between atoms: O_1  and  C_2
REMARK    2  A    between atoms: C_2  and  C_3
REMARK    3  A    between atoms: C_2  and  C_10
REMARK    4  A    between atoms: C_2  and  C_17
REMARK    5  A    between atoms: C_3  and  C_4
REMARK    6  A    between atoms: C_10  and  C_11
REMARK                            x       y       z     vdW  Elec       q    Type
REMARK                         _______ _______ _______ _____ _____    ______ ____
ROOT
ATOM      1  C   UNL     1       2.978   6.717  18.402  0.00  0.00    +0.000 C 
ENDROOT
BRANCH   1   2
ATOM      2  C   UNL     1       2.234   7.756  19.211  0.00  0.00    +0.000 A 
ATOM      3  C   UNL     1       1.593   8.917  18.822  0.00  0.00    +0.000 A 
ATOM      4  C   UNL     1       0.911   9.443  19.950  0.00  0.00    +0.000 A 
ATOM      5  C   UNL     1       0.027  10.522  20.131  0.00  0.00    +0.000 A 
ATOM      6  C   UNL     1      -0.498  10.770  21.402  0.00  0.00    +0.000 A 
ATOM      7  C   UNL     1      -0.141   9.966  22.483  0.00  0.00    +0.000 A 
ATOM      8  C   UNL     1       0.730   8.882  22.325  0.00  0.00    +0.000 A 
ATOM      9  C   UNL     1       1.232   8.637  21.040  0.00  0.00    +0.000 A 
ATOM     10  N   UNL     1       2.056   7.636  20.574  0.00  0.00    +0.000 N 
ATOM     11  H   UNL     1       2.406   6.861  21.122  0.00  0.00    +0.000 HD
ENDBRANCH   1   2
BRANCH   1  12
ATOM     12  O   UNL     1       3.580   7.440  17.320  0.00  0.00    +0.000 OA
ATOM     13  H   UNL     1       3.826   8.320  17.653  0.00  0.00    +0.000 HD
ENDBRANCH   1  12
BRANCH   1  14
ATOM     14  C   UNL     1       1.935   5.720  17.815  0.00  0.00    +0.000 C 
BRANCH  14  15
ATOM     15  C   UNL     1       1.837   4.357  18.465  0.00  0.00    +0.000 A 
ATOM     16  C   UNL     1       1.234   4.191  19.715  0.00  0.00    +0.000 A 
ATOM     17  C   UNL     1       1.072   2.913  20.246  0.00  0.00    +0.000 A 
ATOM     18  C   UNL     1       1.531   1.834  19.511  0.00  0.00    +0.000 A 
ATOM     19  N   UNL     1       2.132   1.952  18.309  0.00  0.00    +0.000 NA
ATOM     20  C   UNL     1       2.260   3.203  17.810  0.00  0.00    +0.000 A 
ENDBRANCH  14  15
ENDBRANCH   1  14
BRANCH   1  21
ATOM     21  C   UNL     1       4.061   5.983  19.256  0.00  0.00    +0.000 C 
BRANCH  21  22
ATOM     22  C   UNL     1       5.320   5.450  18.591  0.00  0.00    +0.000 A 
ATOM     23  C   UNL     1       5.390   4.915  17.303  0.00  0.00    +0.000 A 
ATOM     24  C   UNL     1       6.603   4.461  16.791  0.00  0.00    +0.000 A 
ATOM     25  C   UNL     1       7.725   4.542  17.593  0.00  0.00    +0.000 A 
ATOM     26  N   UNL     1       7.711   5.045  18.843  0.00  0.00    +0.000 NA
ATOM     27  C   UNL     1       6.518   5.489  19.306  0.00  0.00    +0.000 A 
ENDBRANCH  21  22
ENDBRANCH   1  21
TORSDOF 6
ENDMDL
MODEL 5
REMARK VINA RESULT:      -7.9      1.126      1.290
REMARK  Name = 
REMARK  6 active torsions:
REMARK  status: ('A' for Active; 'I' for Inactive)
REMARK    1  A    between atoms: O_1  and  C_2
REMARK    2  A    between atoms: C_2  and  C_3
REMARK    3  A    between atoms: C_2  and  C_10
REMARK    4  A    between atoms: C_2  and  C_17
REMARK    5  A    between atoms: C_3  and  C_4
REMARK    6  A    between atoms: C_10  and  C_11
REMARK                            x       y       z     vdW  Elec       q    Type
REMARK                         _______ _______ _______ _____ _____    ______ ____
ROOT
ATOM      1  C   UNL     1       3.532   6.203  18.285  0.00  0.00    +0.000 C 
ENDROOT
BRANCH   1   2
ATOM      2  C   UNL     1       2.670   7.293  18.881  0.00  0.00    +0.000 A 
ATOM      3  C   UNL     1       2.068   8.393  18.298  0.00  0.00    +0.000 A 
ATOM      4  C   UNL     1       1.232   9.004  19.267  0.00  0.00    +0.000 A 
ATOM      5  C   UNL     1       0.315  10.070  19.223  0.00  0.00    +0.000 A 
ATOM      6  C   UNL     1      -0.380  10.423  20.383  0.00  0.00    +0.000 A 
ATOM      7  C   UNL     1      -0.159   9.737  21.576  0.00  0.00    +0.000 A 
ATOM      8  C   UNL     1       0.743   8.669  21.642  0.00  0.00    +0.000 A 
ATOM      9  C   UNL     1       1.416   8.316  20.465  0.00  0.00    +0.000 A 
ATOM     10  N   UNL     1       2.311   7.299  20.213  0.00  0.00    +0.000 N 
ATOM     11  H   UNL     1       2.597   6.591  20.877  0.00  0.00    +0.000 HD
ENDBRANCH   1   2
BRANCH   1  12
ATOM     12  O   UNL     1       4.619   6.035  19.206  0.00  0.00    +0.000 OA
ATOM     13  H   UNL     1       4.299   6.283  20.090  0.00  0.00    +0.000 HD
ENDBRANCH   1  12
BRANCH   1  14
ATOM     14  C   UNL     1       4.103   6.721  16.931  0.00  0.00    +0.000 C 
BRANCH  14  15
ATOM     15  C   UNL     1       5.200   5.905  16.284  0.00  0.00    +0.000 A 
ATOM     16  C   UNL     1       4.904   4.827  15.445  0.00  0.00    +0.000 A 
ATOM     17  C   UNL     1       5.931   4.153  14.788  0.00  0.00    +0.000 A 
ATOM     18  C   UNL     1       7.233   4.574  15.000  0.00  0.00    +0.000 A 
ATOM     19  N   UNL     1       7.562   5.599  15.813  0.00  0.00    +0.000 NA
ATOM     20  C   UNL     1       6.543   6.245  16.424  0.00  0.00    +0.000 A 
ENDBRANCH  14  15
ENDBRANCH   1  14
BRANCH   1  21
ATOM     21  C   UNL     1       2.740   4.869  18.104  0.00  0.00    +0.000 C 
BRANCH  21  22
ATOM     22  C   UNL     1       2.450   3.988  19.309  0.00  0.00    +0.000 A 
ATOM     23  C   UNL     1       3.402   3.253  20.019  0.00  0.00    +0.000 A 
ATOM     24  C   UNL     1       3.024   2.481  21.116  0.00  0.00    +0.000 A 
ATOM     25  C   UNL     1       1.689   2.453  21.469  0.00  0.00    +0.000 A 
ATOM     26  N   UNL     1       0.731   3.141  20.815  0.00  0.00    +0.000 NA
ATOM     27  C   UNL     1       1.134   3.890  19.762  0.00  0.00    +0.000 A 
ENDBRANCH  21  22
ENDBRANCH   1  21
TORSDOF 6
ENDMDL
MODEL 6
REMARK VINA RESULT:      -7.9      0.903      4.299
REMARK  Name = 
REMARK  6 active torsions:
REMARK  status: ('A' for Active; 'I' for Inactive)
REMARK    1  A    between atoms: O_1  and  C_2
REMARK    2  A    between atoms: C_2  and  C_3
REMARK    3  A    between atoms: C_2  and  C_10
REMARK    4  A    between atoms: C_2  and  C_17
REMARK    5  A    between atoms: C_3  and  C_4
REMARK    6  A    between atoms: C_10  and  C_11
REMARK                            x       y       z     vdW  Elec       q    Type
REMARK                         _______ _______ _______ _____ _____    ______ ____
ROOT
ATOM      1  C   UNL     1       2.915   6.661  18.437  0.00  0.00    +0.000 C 
ENDROOT
BRANCH   1   2
ATOM      2  C   UNL     1       2.194   7.749  19.201  0.00  0.00    +0.000 A 
ATOM      3  C   UNL     1       1.601   8.920  18.767  0.00  0.00    +0.000 A 
ATOM      4  C   UNL     1       0.918   9.503  19.865  0.00  0.00    +0.000 A 
ATOM      5  C   UNL     1       0.070  10.617  19.998  0.00  0.00    +0.000 A 
ATOM      6  C   UNL     1      -0.468  10.921  21.252  0.00  0.00    +0.000 A 
ATOM      7  C   UNL     1      -0.159  10.138  22.362  0.00  0.00    +0.000 A 
ATOM      8  C   UNL     1       0.676   9.019  22.252  0.00  0.00    +0.000 A 
ATOM      9  C   UNL     1       1.191   8.719  20.984  0.00  0.00    +0.000 A 
ATOM     10  N   UNL     1       1.987   7.676  20.563  0.00  0.00    +0.000 N 
ATOM     11  H   UNL     1       2.300   6.906  21.140  0.00  0.00    +0.000 HD
ENDBRANCH   1   2
BRANCH   1  12
ATOM     12  O   UNL     1       1.899   6.003  17.667  0.00  0.00    +0.000 OA
ATOM     13  H   UNL     1       2.340   5.364  17.082  0.00  0.00    +0.000 HD
ENDBRANCH   1  12
BRANCH   1  14
ATOM     14  C   UNL     1       3.493   5.646  19.467  0.00  0.00    +0.000 C 
BRANCH  14  15
ATOM     15  C   UNL     1       2.917   4.248  19.461  0.00  0.00    +0.000 A 
ATOM     16  C   UNL     1       3.504   3.223  18.714  0.00  0.00    +0.000 A 
ATOM     17  C   UNL     1       3.009   1.924  18.801  0.00  0.00    +0.000 A 
ATOM     18  C   UNL     1       1.927   1.690  19.631  0.00  0.00    +0.000 A 
ATOM     19  N   UNL     1       1.321   2.652  20.357  0.00  0.00    +0.000 NA
ATOM     20  C   UNL     1       1.834   3.900  20.266  0.00  0.00    +0.000 A 
ENDBRANCH  14  15
ENDBRANCH   1  14
BRANCH   1  21
ATOM     21  C   UNL     1       4.031   7.243  17.511  0.00  0.00    +0.000 C 
BRANCH  21  22
ATOM     22  C   UNL     1       5.097   6.325  16.938  0.00  0.00    +0.000 A 
ATOM     23  C   UNL     1       4.866   5.272  16.050  0.00  0.00    +0.000 A 
ATOM     24  C   UNL     1       5.924   4.496  15.582  0.00  0.00    +0.000 A 
ATOM     25  C   UNL     1       7.198   4.786  16.030  0.00  0.00    +0.000 A 
ATOM     26  N   UNL     1       7.475   5.788  16.888  0.00  0.00    +0.000 NA
ATOM     27  C   UNL     1       6.426   6.530  17.313  0.00  0.00    +0.000 A 
ENDBRANCH  21  22
ENDBRANCH   1  21
TORSDOF 6
ENDMDL
MODEL 7
REMARK VINA RESULT:      -7.9      0.866      1.228
REMARK  Name = 
REMARK  6 active torsions:
REMARK  status: ('A' for Active; 'I' for Inactive)
REMARK    1  A    between atoms: O_1  and  C_2
REMARK    2  A    between atoms: C_2  and  C_3
REMARK    3  A    between atoms: C_2  and  C_10
REMARK    4  A    between atoms: C_2  and  C_17
REMARK    5  A    between atoms: C_3  and  C_4
REMARK    6  A    between atoms: C_10  and  C_11
REMARK                            x       y       z     vdW  Elec       q    Type
REMARK                         _______ _______ _______ _____ _____    ______ ____
ROOT
ATOM      1  C   UNL     1       2.944   6.753  18.489  0.00  0.00    +0.000 C 
ENDROOT
BRANCH   1   2
ATOM      2  C   UNL     1       2.155   7.978  18.892  0.00  0.00    +0.000 A 
ATOM      3  C   UNL     1       1.731   9.067  18.153  0.00  0.00    +0.000 A 
ATOM      4  C   UNL     1       0.882   9.853  18.972  0.00  0.00    +0.000 A 
ATOM      5  C   UNL     1       0.093  10.995  18.737  0.00  0.00    +0.000 A 
ATOM      6  C   UNL     1      -0.662  11.531  19.783  0.00  0.00    +0.000 A 
ATOM      7  C   UNL     1      -0.626  10.952  21.050  0.00  0.00    +0.000 A 
ATOM      8  C   UNL     1       0.145   9.812  21.306  0.00  0.00    +0.000 A 
ATOM      9  C   UNL     1       0.881   9.276  20.241  0.00  0.00    +0.000 A 
ATOM     10  N   UNL     1       1.679   8.155  20.175  0.00  0.00    +0.000 N 
ATOM     11  H   UNL     1       1.825   7.494  20.927  0.00  0.00    +0.000 HD
ENDBRANCH   1   2
BRANCH   1  12
ATOM     12  O   UNL     1       3.684   6.378  19.659  0.00  0.00    +0.000 OA
ATOM     13  H   UNL     1       3.043   6.138  20.350  0.00  0.00    +0.000 HD
ENDBRANCH   1  12
BRANCH   1  14
ATOM     14  C   UNL     1       3.952   7.169  17.376  0.00  0.00    +0.000 C 
BRANCH  14  15
ATOM     15  C   UNL     1       5.151   6.274  17.157  0.00  0.00    +0.000 A 
ATOM     16  C   UNL     1       6.391   6.569  17.732  0.00  0.00    +0.000 A 
ATOM     17  C   UNL     1       7.453   5.678  17.593  0.00  0.00    +0.000 A 
ATOM     18  C   UNL     1       7.245   4.517  16.869  0.00  0.00    +0.000 A 
ATOM     19  N   UNL     1       6.070   4.202  16.286  0.00  0.00    +0.000 NA
ATOM     20  C   UNL     1       5.052   5.077  16.452  0.00  0.00    +0.000 A 
ENDBRANCH  14  15
ENDBRANCH   1  14
BRANCH   1  21
ATOM     21  C   UNL     1       2.013   5.590  18.020  0.00  0.00    +0.000 C 
BRANCH  21  22
ATOM     22  C   UNL     1       1.871   4.340  18.872  0.00  0.00    +0.000 A 
ATOM     23  C   UNL     1       1.112   4.240  20.040  0.00  0.00    +0.000 A 
ATOM     24  C   UNL     1       1.047   3.037  20.741  0.00  0.00    +0.000 A 
ATOM     25  C   UNL     1       1.763   1.958  20.258  0.00  0.00    +0.000 A 
ATOM     26  N   UNL     1       2.512   2.003  19.139  0.00  0.00    +0.000 NA
ATOM     27  C   UNL     1       2.543   3.183  18.475  0.00  0.00    +0.000 A 
ENDBRANCH  21  22
ENDBRANCH   1  21
TORSDOF 6
ENDMDL
MODEL 8
REMARK VINA RESULT:      -7.8      0.980      4.247
REMARK  Name = 
REMARK  6 active torsions:
REMARK  status: ('A' for Active; 'I' for Inactive)
REMARK    1  A    between atoms: O_1  and  C_2
REMARK    2  A    between atoms: C_2  and  C_3
REMARK    3  A    between atoms: C_2  and  C_10
REMARK    4  A    between atoms: C_2  and  C_17
REMARK    5  A    between atoms: C_3  and  C_4
REMARK    6  A    between atoms: C_10  and  C_11
REMARK                            x       y       z     vdW  Elec       q    Type
REMARK                         _______ _______ _______ _____ _____    ______ ____
ROOT
ATOM      1  C   UNL     1       2.883   6.619  18.516  0.00  0.00    +0.000 C 
ENDROOT
BRANCH   1   2
ATOM      2  C   UNL     1       2.165   7.755  19.210  0.00  0.00    +0.000 A 
ATOM      3  C   UNL     1       1.638   8.932  18.713  0.00  0.00    +0.000 A 
ATOM      4  C   UNL     1       0.922   9.571  19.757  0.00  0.00    +0.000 A 
ATOM      5  C   UNL     1       0.109  10.718  19.815  0.00  0.00    +0.000 A 
ATOM      6  C   UNL     1      -0.480  11.078  21.030  0.00  0.00    +0.000 A 
ATOM      7  C   UNL     1      -0.258  10.318  22.176  0.00  0.00    +0.000 A 
ATOM      8  C   UNL     1       0.541   9.168  22.141  0.00  0.00    +0.000 A 
ATOM      9  C   UNL     1       1.108   8.812  20.911  0.00  0.00    +0.000 A 
ATOM     10  N   UNL     1       1.886   7.729  20.561  0.00  0.00    +0.000 N 
ATOM     11  H   UNL     1       2.141   6.967  21.175  0.00  0.00    +0.000 HD
ENDBRANCH   1   2
BRANCH   1  12
ATOM     12  O   UNL     1       1.865   5.913  17.793  0.00  0.00    +0.000 OA
ATOM     13  H   UNL     1       1.714   6.387  16.957  0.00  0.00    +0.000 HD
ENDBRANCH   1  12
BRANCH   1  14
ATOM     14  C   UNL     1       3.466   5.673  19.607  0.00  0.00    +0.000 C 
BRANCH  14  15
ATOM     15  C   UNL     1       2.873   4.285  19.709  0.00  0.00    +0.000 A 
ATOM     16  C   UNL     1       1.747   4.033  20.498  0.00  0.00    +0.000 A 
ATOM     17  C   UNL     1       1.166   2.767  20.498  0.00  0.00    +0.000 A 
ATOM     18  C   UNL     1       1.739   1.781  19.713  0.00  0.00    +0.000 A 
ATOM     19  N   UNL     1       2.835   1.979  18.950  0.00  0.00    +0.000 NA
ATOM     20  C   UNL     1       3.367   3.223  18.956  0.00  0.00    +0.000 A 
ENDBRANCH  14  15
ENDBRANCH   1  14
BRANCH   1  21
ATOM     21  C   UNL     1       3.996   7.140  17.550  0.00  0.00    +0.000 C 
BRANCH  21  22
ATOM     22  C   UNL     1       5.174   6.248  17.197  0.00  0.00    +0.000 A 
ATOM     23  C   UNL     1       6.442   6.317  17.778  0.00  0.00    +0.000 A 
ATOM     24  C   UNL     1       7.451   5.441  17.381  0.00  0.00    +0.000 A 
ATOM     25  C   UNL     1       7.166   4.519  16.392  0.00  0.00    +0.000 A 
ATOM     26  N   UNL     1       5.961   4.414  15.797  0.00  0.00    +0.000 NA
ATOM     27  C   UNL     1       5.000   5.271  16.216  0.00  0.00    +0.000 A 
ENDBRANCH  21  22
ENDBRANCH   1  21
TORSDOF 6
ENDMDL
MODEL 9
REMARK VINA RESULT:      -7.8      1.324      4.335
REMARK  Name = 
REMARK  6 active torsions:
REMARK  status: ('A' for Active; 'I' for Inactive)
REMARK    1  A    between atoms: O_1  and  C_2
REMARK    2  A    between atoms: C_2  and  C_3
REMARK    3  A    between atoms: C_2  and  C_10
REMARK    4  A    between atoms: C_2  and  C_17
REMARK    5  A    between atoms: C_3  and  C_4
REMARK    6  A    between atoms: C_10  and  C_11
REMARK                            x       y       z     vdW  Elec       q    Type
REMARK                         _______ _______ _______ _____ _____    ______ ____
ROOT
ATOM      1  C   UNL     1       2.974   6.680  18.503  0.00  0.00    +0.000 C 
ENDROOT
BRANCH   1   2
ATOM      2  C   UNL     1       2.122   7.554  19.396  0.00  0.00    +0.000 A 
ATOM      3  C   UNL     1       1.710   7.384  20.704  0.00  0.00    +0.000 A 
ATOM      4  C   UNL     1       1.067   8.577  21.123  0.00  0.00    +0.000 A 
ATOM      5  C   UNL     1       0.549   9.018  22.355  0.00  0.00    +0.000 A 
ATOM      6  C   UNL     1      -0.022  10.290  22.440  0.00  0.00    +0.000 A 
ATOM      7  C   UNL     1      -0.091  11.111  21.316  0.00  0.00    +0.000 A 
ATOM      8  C   UNL     1       0.425  10.697  20.082  0.00  0.00    +0.000 A 
ATOM      9  C   UNL     1       1.011   9.426  20.020  0.00  0.00    +0.000 A 
ATOM     10  N   UNL     1       1.634   8.775  18.977  0.00  0.00    +0.000 N 
ATOM     11  H   UNL     1       1.803   9.165  18.059  0.00  0.00    +0.000 HD
ENDBRANCH   1   2
BRANCH   1  12
ATOM     12  O   UNL     1       3.568   7.575  17.553  0.00  0.00    +0.000 OA
ATOM     13  H   UNL     1       3.824   7.051  16.774  0.00  0.00    +0.000 HD
ENDBRANCH   1  12
BRANCH   1  14
ATOM     14  C   UNL     1       2.032   5.699  17.742  0.00  0.00    +0.000 C 
BRANCH  14  15
ATOM     15  C   UNL     1       1.894   4.299  18.298  0.00  0.00    +0.000 A 
ATOM     16  C   UNL     1       1.192   4.054  19.482  0.00  0.00    +0.000 A 
ATOM     17  C   UNL     1       1.000   2.746  19.920  0.00  0.00    +0.000 A 
ATOM     18  C   UNL     1       1.528   1.716  19.161  0.00  0.00    +0.000 A 
ATOM     19  N   UNL     1       2.224   1.909  18.021  0.00  0.00    +0.000 NA
ATOM     20  C   UNL     1       2.380   3.189  17.612  0.00  0.00    +0.000 A 
ENDBRANCH  14  15
ENDBRANCH   1  14
BRANCH   1  21
ATOM     21  C   UNL     1       4.070   5.915  19.313  0.00  0.00    +0.000 C 
BRANCH  21  22
ATOM     22  C   UNL     1       5.326   5.422  18.614  0.00  0.00    +0.000 A 
ATOM     23  C   UNL     1       5.389   4.956  17.300  0.00  0.00    +0.000 A 
ATOM     24  C   UNL     1       6.600   4.533  16.757  0.00  0.00    +0.000 A 
ATOM     25  C   UNL     1       7.726   4.574  17.556  0.00  0.00    +0.000 A 
ATOM     26  N   UNL     1       7.719   5.011  18.831  0.00  0.00    +0.000 NA
ATOM     27  C   UNL     1       6.528   5.427  19.323  0.00  0.00    +0.000 A 
ENDBRANCH  21  22
ENDBRANCH   1  21
TORSDOF 6
ENDMDL
