MODEL 1
REMARK VINA RESULT:      -8.3      0.000      0.000
REMARK  Name = 
REMARK  6 active torsions:
REMARK  status: ('A' for Active; 'I' for Inactive)
REMARK    1  A    between atoms: C_1  and  O_2
REMARK    2  A    between atoms: O_2  and  C_3
REMARK    3  A    between atoms: C_6  and  C_7
REMARK    4  A    between atoms: N_12  and  C_13
REMARK    5  A    between atoms: C_13  and  C_14
REMARK    6  A    between atoms: N_16  and  C_17
REMARK                            x       y       z     vdW  Elec       q    Type
REMARK                         _______ _______ _______ _____ _____    ______ ____
ROOT
ATOM      1  C   UNL     1       3.990   3.754  17.652  0.00  0.00    +0.000 A 
ATOM      2  C   UNL     1       3.504   2.373  17.425  0.00  0.00    +0.000 A 
ATOM      3  C   UNL     1       2.660   1.868  18.328  0.00  0.00    +0.000 A 
ATOM      4  C   UNL     1       2.247   2.658  19.502  0.00  0.00    +0.000 A 
ATOM      5  O   UNL     1       1.525   2.138  20.348  0.00  0.00    +0.000 OA
ATOM      6  N   UNL     1       2.725   3.956  19.560  0.00  0.00    +0.000 N 
ATOM      7  N   UNL     1       3.610   4.494  18.647  0.00  0.00    +0.000 NA
ENDROOT
BRANCH   1  11
ATOM      8  C   UNL     1       7.104   5.195  15.052  0.00  0.00    +0.000 A 
ATOM      9  C   UNL     1       6.077   4.407  14.531  0.00  0.00    +0.000 A 
ATOM     10  C   UNL     1       5.036   3.957  15.350  0.00  0.00    +0.000 A 
ATOM     11  C   UNL     1       5.033   4.270  16.714  0.00  0.00    +0.000 A 
ATOM     12  C   UNL     1       6.064   5.067  17.231  0.00  0.00    +0.000 A 
ATOM     13  C   UNL     1       7.098   5.526  16.406  0.00  0.00    +0.000 A 
BRANCH   8  15
ATOM     14  C   UNL     1       7.816   5.194  12.797  0.00  0.00    +0.000 C 
ATOM     15  O   UNL     1       8.069   5.550  14.150  0.00  0.00    +0.000 OA
ENDBRANCH   8  15
ENDBRANCH   1  11
BRANCH   6  16
ATOM     16  C   UNL     1       2.520   4.723  20.782  0.00  0.00    +0.000 C 
BRANCH  16  17
ATOM     17  C   UNL     1       1.614   5.945  20.678  0.00  0.00    +0.000 C 
ATOM     18  O   UNL     1       0.396   5.786  20.774  0.00  0.00    +0.000 OA
ATOM     19  N   UNL     1       2.257   7.170  20.565  0.00  0.00    +0.000 N 
ATOM     20  H   UNL     1       3.267   7.146  20.685  0.00  0.00    +0.000 HD
BRANCH  19  21
ATOM     21  C   UNL     1       1.625   8.435  20.594  0.00  0.00    +0.000 A 
ATOM     22  C   UNL     1       1.237   9.116  19.435  0.00  0.00    +0.000 A 
ATOM     23  C   UNL     1       0.391  10.225  19.505  0.00  0.00    +0.000 A 
ATOM     24  C   UNL     1      -0.063  10.665  20.740  0.00  0.00    +0.000 A 
ATOM     25  C   UNL     1       0.441  10.084  21.902  0.00  0.00    +0.000 A 
ATOM     26  C   UNL     1       1.302   8.986  21.837  0.00  0.00    +0.000 A 
ATOM     27  O   UNL     1       0.062  10.524  23.144  0.00  0.00    +0.000 OA
ATOM     28  C   UNL     1      -1.323  10.863  23.089  0.00  0.00    +0.000 C 
ATOM     29  C   UNL     1      -1.617  11.889  22.002  0.00  0.00    +0.000 C 
ATOM     30  O   UNL     1      -1.034  11.623  20.726  0.00  0.00    +0.000 OA
ENDBRANCH  19  21
ENDBRANCH  16  17
ENDBRANCH   6  16
TORSDOF 5
ENDMDL
MODEL 2
REMARK VINA RESULT:      -8.2      4.737      8.201
REMARK  Name = 
REMARK  6 active torsions:
REMARK  status: ('A' for Active; 'I' for Inactive)
REMARK    1  A    between atoms: C_1  and  O_2
REMARK    2  A    between atoms: O_2  and  C_3
REMARK    3  A    between atoms: C_6  and  C_7
REMARK    4  A    between atoms: N_12  and  C_13
REMARK    5  A    between atoms: C_13  and  C_14
REMARK    6  A    between atoms: N_16  and  C_17
REMARK                            x       y       z     vdW  Elec       q    Type
REMARK                         _______ _______ _______ _____ _____    ______ ____
ROOT
ATOM      1  C   UNL     1       3.571   6.321  18.050  0.00  0.00    +0.000 A 
ATOM      2  C   UNL     1       3.011   5.005  17.663  0.00  0.00    +0.000 A 
ATOM      3  C   UNL     1       3.835   4.144  17.063  0.00  0.00    +0.000 A 
ATOM      4  C   UNL     1       5.239   4.505  16.791  0.00  0.00    +0.000 A 
ATOM      5  O   UNL     1       5.950   3.716  16.175  0.00  0.00    +0.000 OA
ATOM      6  N   UNL     1       5.650   5.741  17.259  0.00  0.00    +0.000 N 
ATOM      7  N   UNL     1       4.812   6.653  17.869  0.00  0.00    +0.000 NA
ENDROOT
BRANCH   1  11
ATOM      8  C   UNL     1       0.915   9.241  19.766  0.00  0.00    +0.000 A 
ATOM      9  C   UNL     1       1.312   9.366  18.435  0.00  0.00    +0.000 A 
ATOM     10  C   UNL     1       2.146   8.410  17.846  0.00  0.00    +0.000 A 
ATOM     11  C   UNL     1       2.617   7.330  18.602  0.00  0.00    +0.000 A 
ATOM     12  C   UNL     1       2.210   7.207  19.938  0.00  0.00    +0.000 A 
ATOM     13  C   UNL     1       1.366   8.160  20.521  0.00  0.00    +0.000 A 
BRANCH   8  15
ATOM     14  C   UNL     1      -0.858  10.739  19.308  0.00  0.00    +0.000 C 
ATOM     15  O   UNL     1       0.117  10.254  20.224  0.00  0.00    +0.000 OA
ENDBRANCH   8  15
ENDBRANCH   1  11
BRANCH   6  16
ATOM     16  C   UNL     1       6.957   6.243  16.856  0.00  0.00    +0.000 C 
BRANCH  16  17
ATOM     17  C   UNL     1       7.642   7.213  17.812  0.00  0.00    +0.000 C 
ATOM     18  O   UNL     1       8.251   6.756  18.781  0.00  0.00    +0.000 OA
ATOM     19  N   UNL     1       7.589   8.554  17.457  0.00  0.00    +0.000 N 
ATOM     20  H   UNL     1       7.207   8.747  16.534  0.00  0.00    +0.000 HD
BRANCH  19  21
ATOM     21  C   UNL     1       8.267   9.605  18.117  0.00  0.00    +0.000 A 
ATOM     22  C   UNL     1       8.966   9.425  19.315  0.00  0.00    +0.000 A 
ATOM     23  C   UNL     1       9.832  10.409  19.796  0.00  0.00    +0.000 A 
ATOM     24  C   UNL     1       9.993  11.589  19.083  0.00  0.00    +0.000 A 
ATOM     25  C   UNL     1       9.186  11.834  17.973  0.00  0.00    +0.000 A 
ATOM     26  C   UNL     1       8.306  10.859  17.499  0.00  0.00    +0.000 A 
ATOM     27  O   UNL     1       9.273  13.009  17.272  0.00  0.00    +0.000 OA
ATOM     28  C   UNL     1      10.646  13.394  17.223  0.00  0.00    +0.000 C 
ATOM     29  C   UNL     1      11.257  13.509  18.614  0.00  0.00    +0.000 C 
ATOM     30  O   UNL     1      10.991  12.420  19.499  0.00  0.00    +0.000 OA
ENDBRANCH  19  21
ENDBRANCH  16  17
ENDBRANCH   6  16
TORSDOF 5
ENDMDL
MODEL 3
REMARK VINA RESULT:      -8.0      0.784      1.183
REMARK  Name = 
REMARK  6 active torsions:
REMARK  status: ('A' for Active; 'I' for Inactive)
REMARK    1  A    between atoms: C_1  and  O_2
REMARK    2  A    between atoms: O_2  and  C_3
REMARK    3  A    between atoms: C_6  and  C_7
REMARK    4  A    between atoms: N_12  and  C_13
REMARK    5  A    between atoms: C_13  and  C_14
REMARK    6  A    between atoms: N_16  and  C_17
REMARK                            x       y       z     vdW  Elec       q    Type
REMARK                         _______ _______ _______ _____ _____    ______ ____
ROOT
ATOM      1  C   UNL     1       3.982   3.869  17.588  0.00  0.00    +0.000 A 
ATOM      2  C   UNL     1       3.430   2.502  17.436  0.00  0.00    +0.000 A 
ATOM      3  C   UNL     1       2.499   2.120  18.313  0.00  0.00    +0.000 A 
ATOM      4  C   UNL     1       2.057   3.025  19.389  0.00  0.00    +0.000 A 
ATOM      5  O   UNL     1       1.251   2.616  20.220  0.00  0.00    +0.000 OA
ATOM      6  N   UNL     1       2.608   4.295  19.380  0.00  0.00    +0.000 N 
ATOM      7  N   UNL     1       3.582   4.708  18.493  0.00  0.00    +0.000 NA
ENDROOT
BRANCH   1  11
ATOM      8  C   UNL     1       7.142   4.979  14.883  0.00  0.00    +0.000 A 
ATOM      9  C   UNL     1       7.070   5.573  16.144  0.00  0.00    +0.000 A 
ATOM     10  C   UNL     1       6.073   5.202  17.052  0.00  0.00    +0.000 A 
ATOM     11  C   UNL     1       5.114   4.249  16.689  0.00  0.00    +0.000 A 
ATOM     12  C   UNL     1       5.195   3.652  15.423  0.00  0.00    +0.000 A 
ATOM     13  C   UNL     1       6.201   4.017  14.521  0.00  0.00    +0.000 A 
BRANCH   8  15
ATOM     14  C   UNL     1       7.918   5.372  12.683  0.00  0.00    +0.000 C 
ATOM     15  O   UNL     1       8.150   5.446  14.085  0.00  0.00    +0.000 OA
ENDBRANCH   8  15
ENDBRANCH   1  11
BRANCH   6  16
ATOM     16  C   UNL     1       2.369   5.170  20.521  0.00  0.00    +0.000 C 
BRANCH  16  17
ATOM     17  C   UNL     1       2.091   6.637  20.211  0.00  0.00    +0.000 C 
ATOM     18  O   UNL     1       2.372   7.067  19.091  0.00  0.00    +0.000 OA
ATOM     19  N   UNL     1       1.453   7.358  21.211  0.00  0.00    +0.000 N 
ATOM     20  H   UNL     1       1.125   6.811  22.003  0.00  0.00    +0.000 HD
BRANCH  19  21
ATOM     21  C   UNL     1       0.978   8.684  21.091  0.00  0.00    +0.000 A 
ATOM     22  C   UNL     1       0.785   9.313  19.856  0.00  0.00    +0.000 A 
ATOM     23  C   UNL     1       0.075  10.513  19.766  0.00  0.00    +0.000 A 
ATOM     24  C   UNL     1      -0.435  11.097  20.917  0.00  0.00    +0.000 A 
ATOM     25  C   UNL     1      -0.115  10.554  22.160  0.00  0.00    +0.000 A 
ATOM     26  C   UNL     1       0.609   9.364  22.256  0.00  0.00    +0.000 A 
ATOM     27  O   UNL     1      -0.552  11.130  23.325  0.00  0.00    +0.000 OA
ATOM     28  C   UNL     1      -1.875  11.618  23.108  0.00  0.00    +0.000 C 
ATOM     29  C   UNL     1      -1.941  12.583  21.930  0.00  0.00    +0.000 C 
ATOM     30  O   UNL     1      -1.278  12.155  20.741  0.00  0.00    +0.000 OA
ENDBRANCH  19  21
ENDBRANCH  16  17
ENDBRANCH   6  16
TORSDOF 5
ENDMDL
MODEL 4
REMARK VINA RESULT:      -8.0      3.307      8.946
REMARK  Name = 
REMARK  6 active torsions:
REMARK  status: ('A' for Active; 'I' for Inactive)
REMARK    1  A    between atoms: C_1  and  O_2
REMARK    2  A    between atoms: O_2  and  C_3
REMARK    3  A    between atoms: C_6  and  C_7
REMARK    4  A    between atoms: N_12  and  C_13
REMARK    5  A    between atoms: C_13  and  C_14
REMARK    6  A    between atoms: N_16  and  C_17
REMARK                            x       y       z     vdW  Elec       q    Type
REMARK                         _______ _______ _______ _____ _____    ______ ____
ROOT
ATOM      1  C   UNL     1      -1.667  11.532  19.607  0.00  0.00    +0.000 A 
ATOM      2  C   UNL     1      -2.059  12.857  20.143  0.00  0.00    +0.000 A 
ATOM      3  C   UNL     1      -1.576  13.196  21.340  0.00  0.00    +0.000 A 
ATOM      4  C   UNL     1      -0.701  12.278  22.091  0.00  0.00    +0.000 A 
ATOM      5  O   UNL     1      -0.332  12.594  23.219  0.00  0.00    +0.000 OA
ATOM      6  N   UNL     1      -0.363  11.099  21.449  0.00  0.00    +0.000 N 
ATOM      7  N   UNL     1      -0.861  10.721  20.218  0.00  0.00    +0.000 NA
ENDROOT
BRANCH   1  11
ATOM      8  C   UNL     1      -3.537  10.434  15.888  0.00  0.00    +0.000 A 
ATOM      9  C   UNL     1      -2.354   9.806  16.279  0.00  0.00    +0.000 A 
ATOM     10  C   UNL     1      -1.748  10.122  17.499  0.00  0.00    +0.000 A 
ATOM     11  C   UNL     1      -2.310  11.099  18.329  0.00  0.00    +0.000 A 
ATOM     12  C   UNL     1      -3.503  11.722  17.933  0.00  0.00    +0.000 A 
ATOM     13  C   UNL     1      -4.113  11.396  16.717  0.00  0.00    +0.000 A 
BRANCH   8  15
ATOM     14  C   UNL     1      -3.044   9.929  13.630  0.00  0.00    +0.000 C 
ATOM     15  O   UNL     1      -4.014  10.049  14.665  0.00  0.00    +0.000 OA
ENDBRANCH   8  15
ENDBRANCH   1  11
BRANCH   6  16
ATOM     16  C   UNL     1       0.331  10.065  22.204  0.00  0.00    +0.000 C 
BRANCH  16  17
ATOM     17  C   UNL     1       0.414   8.686  21.559  0.00  0.00    +0.000 C 
ATOM     18  O   UNL     1      -0.580   7.958  21.592  0.00  0.00    +0.000 OA
ATOM     19  N   UNL     1       1.601   8.394  20.901  0.00  0.00    +0.000 N 
ATOM     20  H   UNL     1       2.252   9.170  20.809  0.00  0.00    +0.000 HD
BRANCH  19  21
ATOM     21  C   UNL     1       1.845   7.239  20.122  0.00  0.00    +0.000 A 
ATOM     22  C   UNL     1       2.319   7.296  18.807  0.00  0.00    +0.000 A 
ATOM     23  C   UNL     1       2.793   6.150  18.165  0.00  0.00    +0.000 A 
ATOM     24  C   UNL     1       2.782   4.935  18.835  0.00  0.00    +0.000 A 
ATOM     25  C   UNL     1       2.173   4.847  20.086  0.00  0.00    +0.000 A 
ATOM     26  C   UNL     1       1.682   5.988  20.724  0.00  0.00    +0.000 A 
ATOM     27  O   UNL     1       2.092   3.655  20.759  0.00  0.00    +0.000 OA
ATOM     28  C   UNL     1       3.303   2.936  20.532  0.00  0.00    +0.000 C 
ATOM     29  C   UNL     1       3.580   2.739  19.046  0.00  0.00    +0.000 C 
ATOM     30  O   UNL     1       3.434   3.900  18.230  0.00  0.00    +0.000 OA
ENDBRANCH  19  21
ENDBRANCH  16  17
ENDBRANCH   6  16
TORSDOF 5
ENDMDL
MODEL 5
REMARK VINA RESULT:      -8.0      0.884      1.662
REMARK  Name = 
REMARK  6 active torsions:
REMARK  status: ('A' for Active; 'I' for Inactive)
REMARK    1  A    between atoms: C_1  and  O_2
REMARK    2  A    between atoms: O_2  and  C_3
REMARK    3  A    between atoms: C_6  and  C_7
REMARK    4  A    between atoms: N_12  and  C_13
REMARK    5  A    between atoms: C_13  and  C_14
REMARK    6  A    between atoms: N_16  and  C_17
REMARK                            x       y       z     vdW  Elec       q    Type
REMARK                         _______ _______ _______ _____ _____    ______ ____
ROOT
ATOM      1  C   UNL     1       4.132   3.685  17.672  0.00  0.00    +0.000 A 
ATOM      2  C   UNL     1       3.694   2.279  17.512  0.00  0.00    +0.000 A 
ATOM      3  C   UNL     1       2.882   1.784  18.449  0.00  0.00    +0.000 A 
ATOM      4  C   UNL     1       2.456   2.608  19.594  0.00  0.00    +0.000 A 
ATOM      5  O   UNL     1       1.766   2.100  20.473  0.00  0.00    +0.000 OA
ATOM      6  N   UNL     1       2.887   3.924  19.589  0.00  0.00    +0.000 N 
ATOM      7  N   UNL     1       3.739   4.454  18.640  0.00  0.00    +0.000 NA
ENDROOT
BRANCH   1  11
ATOM      8  C   UNL     1       7.153   5.088  14.944  0.00  0.00    +0.000 A 
ATOM      9  C   UNL     1       5.983   4.514  14.445  0.00  0.00    +0.000 A 
ATOM     10  C   UNL     1       4.973   4.084  15.312  0.00  0.00    +0.000 A 
ATOM     11  C   UNL     1       5.142   4.197  16.697  0.00  0.00    +0.000 A 
ATOM     12  C   UNL     1       6.317   4.780  17.192  0.00  0.00    +0.000 A 
ATOM     13  C   UNL     1       7.321   5.221  16.322  0.00  0.00    +0.000 A 
BRANCH   8  15
ATOM     14  C   UNL     1       7.745   5.088  12.655  0.00  0.00    +0.000 C 
ATOM     15  O   UNL     1       8.068   5.447  13.993  0.00  0.00    +0.000 OA
ENDBRANCH   8  15
ENDBRANCH   1  11
BRANCH   6  16
ATOM     16  C   UNL     1       2.671   4.736  20.779  0.00  0.00    +0.000 C 
BRANCH  16  17
ATOM     17  C   UNL     1       1.636   5.850  20.669  0.00  0.00    +0.000 C 
ATOM     18  O   UNL     1       0.447   5.543  20.568  0.00  0.00    +0.000 OA
ATOM     19  N   UNL     1       2.125   7.145  20.777  0.00  0.00    +0.000 N 
ATOM     20  H   UNL     1       3.104   7.222  21.040  0.00  0.00    +0.000 HD
BRANCH  19  21
ATOM     21  C   UNL     1       1.336   8.317  20.840  0.00  0.00    +0.000 A 
ATOM     22  C   UNL     1       0.763   8.784  22.028  0.00  0.00    +0.000 A 
ATOM     23  C   UNL     1       0.218  10.068  22.104  0.00  0.00    +0.000 A 
ATOM     24  C   UNL     1       0.233  10.888  20.985  0.00  0.00    +0.000 A 
ATOM     25  C   UNL     1       0.664  10.372  19.764  0.00  0.00    +0.000 A 
ATOM     26  C   UNL     1       1.193   9.083  19.679  0.00  0.00    +0.000 A 
ATOM     27  O   UNL     1       0.643  11.130  18.621  0.00  0.00    +0.000 OA
ATOM     28  C   UNL     1       1.005  12.465  18.970  0.00  0.00    +0.000 C 
ATOM     29  C   UNL     1       0.100  13.037  20.054  0.00  0.00    +0.000 C 
ATOM     30  O   UNL     1      -0.134  12.187  21.177  0.00  0.00    +0.000 OA
ENDBRANCH  19  21
ENDBRANCH  16  17
ENDBRANCH   6  16
TORSDOF 5
ENDMDL
MODEL 6
REMARK VINA RESULT:      -7.9      1.224      1.350
REMARK  Name = 
REMARK  6 active torsions:
REMARK  status: ('A' for Active; 'I' for Inactive)
REMARK    1  A    between atoms: C_1  and  O_2
REMARK    2  A    between atoms: O_2  and  C_3
REMARK    3  A    between atoms: C_6  and  C_7
REMARK    4  A    between atoms: N_12  and  C_13
REMARK    5  A    between atoms: C_13  and  C_14
REMARK    6  A    between atoms: N_16  and  C_17
REMARK                            x       y       z     vdW  Elec       q    Type
REMARK                         _______ _______ _______ _____ _____    ______ ____
ROOT
ATOM      1  C   UNL     1       3.404   4.401  17.635  0.00  0.00    +0.000 A 
ATOM      2  C   UNL     1       2.676   3.128  17.421  0.00  0.00    +0.000 A 
ATOM      3  C   UNL     1       1.703   2.831  18.284  0.00  0.00    +0.000 A 
ATOM      4  C   UNL     1       1.383   3.733  19.405  0.00  0.00    +0.000 A 
ATOM      5  O   UNL     1       0.530   3.395  20.220  0.00  0.00    +0.000 OA
ATOM      6  N   UNL     1       2.097   4.918  19.454  0.00  0.00    +0.000 N 
ATOM      7  N   UNL     1       3.118   5.240  18.581  0.00  0.00    +0.000 NA
ENDROOT
BRANCH   1  11
ATOM      8  C   UNL     1       6.861   5.228  15.207  0.00  0.00    +0.000 A 
ATOM      9  C   UNL     1       6.211   3.999  15.088  0.00  0.00    +0.000 A 
ATOM     10  C   UNL     1       5.065   3.722  15.842  0.00  0.00    +0.000 A 
ATOM     11  C   UNL     1       4.577   4.670  16.749  0.00  0.00    +0.000 A 
ATOM     12  C   UNL     1       5.232   5.905  16.860  0.00  0.00    +0.000 A 
ATOM     13  C   UNL     1       6.372   6.183  16.096  0.00  0.00    +0.000 A 
BRANCH   8  15
ATOM     14  C   UNL     1       7.791   5.182  13.033  0.00  0.00    +0.000 C 
ATOM     15  O   UNL     1       7.980   5.362  14.431  0.00  0.00    +0.000 OA
ENDBRANCH   8  15
ENDBRANCH   1  11
BRANCH   6  16
ATOM     16  C   UNL     1       1.976   5.761  20.636  0.00  0.00    +0.000 C 
BRANCH  16  17
ATOM     17  C   UNL     1       1.723   7.245  20.394  0.00  0.00    +0.000 C 
ATOM     18  O   UNL     1       2.246   7.782  19.416  0.00  0.00    +0.000 OA
ATOM     19  N   UNL     1       0.838   7.860  21.269  0.00  0.00    +0.000 N 
ATOM     20  H   UNL     1       0.352   7.237  21.909  0.00  0.00    +0.000 HD
BRANCH  19  21
ATOM     21  C   UNL     1       0.354   9.184  21.152  0.00  0.00    +0.000 A 
ATOM     22  C   UNL     1       0.139   9.808  19.918  0.00  0.00    +0.000 A 
ATOM     23  C   UNL     1      -0.578  11.003  19.835  0.00  0.00    +0.000 A 
ATOM     24  C   UNL     1      -1.074  11.588  20.991  0.00  0.00    +0.000 A 
ATOM     25  C   UNL     1      -0.733  11.052  22.231  0.00  0.00    +0.000 A 
ATOM     26  C   UNL     1      -0.001   9.866  22.320  0.00  0.00    +0.000 A 
ATOM     27  O   UNL     1      -1.155  11.629  23.400  0.00  0.00    +0.000 OA
ATOM     28  C   UNL     1      -2.484  12.109  23.201  0.00  0.00    +0.000 C 
ATOM     29  C   UNL     1      -2.573  13.070  22.022  0.00  0.00    +0.000 C 
ATOM     30  O   UNL     1      -1.925  12.641  20.824  0.00  0.00    +0.000 OA
ENDBRANCH  19  21
ENDBRANCH  16  17
ENDBRANCH   6  16
TORSDOF 5
ENDMDL
MODEL 7
REMARK VINA RESULT:      -7.8      3.571      9.011
REMARK  Name = 
REMARK  6 active torsions:
REMARK  status: ('A' for Active; 'I' for Inactive)
REMARK    1  A    between atoms: C_1  and  O_2
REMARK    2  A    between atoms: O_2  and  C_3
REMARK    3  A    between atoms: C_6  and  C_7
REMARK    4  A    between atoms: N_12  and  C_13
REMARK    5  A    between atoms: C_13  and  C_14
REMARK    6  A    between atoms: N_16  and  C_17
REMARK                            x       y       z     vdW  Elec       q    Type
REMARK                         _______ _______ _______ _____ _____    ______ ____
ROOT
ATOM      1  C   UNL     1      -1.253  10.628  18.819  0.00  0.00    +0.000 A 
ATOM      2  C   UNL     1      -1.430  11.843  19.647  0.00  0.00    +0.000 A 
ATOM      3  C   UNL     1      -0.747  11.905  20.792  0.00  0.00    +0.000 A 
ATOM      4  C   UNL     1       0.133  10.798  21.209  0.00  0.00    +0.000 A 
ATOM      5  O   UNL     1       0.692  10.857  22.300  0.00  0.00    +0.000 OA
ATOM      6  N   UNL     1       0.256   9.749  20.313  0.00  0.00    +0.000 N 
ATOM      7  N   UNL     1      -0.451   9.657  19.131  0.00  0.00    +0.000 NA
ENDROOT
BRANCH   1  11
ATOM      8  C   UNL     1      -3.729  10.419  15.303  0.00  0.00    +0.000 A 
ATOM      9  C   UNL     1      -2.648   9.549  15.440  0.00  0.00    +0.000 A 
ATOM     10  C   UNL     1      -1.851   9.575  16.590  0.00  0.00    +0.000 A 
ATOM     11  C   UNL     1      -2.115  10.502  17.605  0.00  0.00    +0.000 A 
ATOM     12  C   UNL     1      -3.207  11.371  17.464  0.00  0.00    +0.000 A 
ATOM     13  C   UNL     1      -4.009  11.334  16.317  0.00  0.00    +0.000 A 
BRANCH   8  15
ATOM     14  C   UNL     1      -3.678   9.770  13.030  0.00  0.00    +0.000 C 
ATOM     15  O   UNL     1      -4.413  10.305  14.124  0.00  0.00    +0.000 OA
ENDBRANCH   8  15
ENDBRANCH   1  11
BRANCH   6  16
ATOM     16  C   UNL     1       0.947   8.540  20.741  0.00  0.00    +0.000 C 
BRANCH  16  17
ATOM     17  C   UNL     1       1.831   7.854  19.705  0.00  0.00    +0.000 C 
ATOM     18  O   UNL     1       2.250   8.517  18.755  0.00  0.00    +0.000 OA
ATOM     19  N   UNL     1       2.164   6.533  19.971  0.00  0.00    +0.000 N 
ATOM     20  H   UNL     1       1.889   6.189  20.888  0.00  0.00    +0.000 HD
BRANCH  19  21
ATOM     21  C   UNL     1       3.077   5.751  19.226  0.00  0.00    +0.000 A 
ATOM     22  C   UNL     1       2.769   5.215  17.971  0.00  0.00    +0.000 A 
ATOM     23  C   UNL     1       3.768   4.677  17.156  0.00  0.00    +0.000 A 
ATOM     24  C   UNL     1       5.082   4.662  17.601  0.00  0.00    +0.000 A 
ATOM     25  C   UNL     1       5.368   5.056  18.907  0.00  0.00    +0.000 A 
ATOM     26  C   UNL     1       4.369   5.578  19.732  0.00  0.00    +0.000 A 
ATOM     27  O   UNL     1       6.644   5.006  19.406  0.00  0.00    +0.000 OA
ATOM     28  C   UNL     1       7.541   5.382  18.363  0.00  0.00    +0.000 C 
ATOM     29  C   UNL     1       7.374   4.510  17.124  0.00  0.00    +0.000 C 
ATOM     30  O   UNL     1       6.030   4.306  16.688  0.00  0.00    +0.000 OA
ENDBRANCH  19  21
ENDBRANCH  16  17
ENDBRANCH   6  16
TORSDOF 5
ENDMDL
MODEL 8
REMARK VINA RESULT:      -7.8      1.414      2.089
REMARK  Name = 
REMARK  6 active torsions:
REMARK  status: ('A' for Active; 'I' for Inactive)
REMARK    1  A    between atoms: C_1  and  O_2
REMARK    2  A    between atoms: O_2  and  C_3
REMARK    3  A    between atoms: C_6  and  C_7
REMARK    4  A    between atoms: N_12  and  C_13
REMARK    5  A    between atoms: C_13  and  C_14
REMARK    6  A    between atoms: N_16  and  C_17
REMARK                            x       y       z     vdW  Elec       q    Type
REMARK                         _______ _______ _______ _____ _____    ______ ____
ROOT
ATOM      1  C   UNL     1       3.561   4.373  17.568  0.00  0.00    +0.000 A 
ATOM      2  C   UNL     1       2.724   3.195  17.242  0.00  0.00    +0.000 A 
ATOM      3  C   UNL     1       1.708   2.924  18.063  0.00  0.00    +0.000 A 
ATOM      4  C   UNL     1       1.448   3.762  19.248  0.00  0.00    +0.000 A 
ATOM      5  O   UNL     1       0.549   3.442  20.020  0.00  0.00    +0.000 OA
ATOM      6  N   UNL     1       2.267   4.867  19.402  0.00  0.00    +0.000 N 
ATOM      7  N   UNL     1       3.332   5.160  18.573  0.00  0.00    +0.000 NA
ENDROOT
BRANCH   1  11
ATOM      8  C   UNL     1       6.959   5.054  15.015  0.00  0.00    +0.000 A 
ATOM      9  C   UNL     1       6.898   5.672  16.264  0.00  0.00    +0.000 A 
ATOM     10  C   UNL     1       5.820   5.437  17.124  0.00  0.00    +0.000 A 
ATOM     11  C   UNL     1       4.773   4.600  16.724  0.00  0.00    +0.000 A 
ATOM     12  C   UNL     1       4.843   3.977  15.469  0.00  0.00    +0.000 A 
ATOM     13  C   UNL     1       5.928   4.205  14.615  0.00  0.00    +0.000 A 
BRANCH   8  15
ATOM     14  C   UNL     1       7.913   5.225  12.857  0.00  0.00    +0.000 C 
ATOM     15  O   UNL     1       8.054   5.384  14.264  0.00  0.00    +0.000 OA
ENDBRANCH   8  15
ENDBRANCH   1  11
BRANCH   6  16
ATOM     16  C   UNL     1       2.197   5.623  20.645  0.00  0.00    +0.000 C 
BRANCH  16  17
ATOM     17  C   UNL     1       1.791   7.088  20.533  0.00  0.00    +0.000 C 
ATOM     18  O   UNL     1       2.009   7.682  19.476  0.00  0.00    +0.000 OA
ATOM     19  N   UNL     1       1.121   7.618  21.628  0.00  0.00    +0.000 N 
ATOM     20  H   UNL     1       0.858   6.947  22.346  0.00  0.00    +0.000 HD
BRANCH  19  21
ATOM     21  C   UNL     1       0.536   8.904  21.688  0.00  0.00    +0.000 A 
ATOM     22  C   UNL     1      -0.370   9.281  22.685  0.00  0.00    +0.000 A 
ATOM     23  C   UNL     1      -0.721  10.620  22.866  0.00  0.00    +0.000 A 
ATOM     24  C   UNL     1      -0.176  11.591  22.037  0.00  0.00    +0.000 A 
ATOM     25  C   UNL     1       0.606  11.203  20.950  0.00  0.00    +0.000 A 
ATOM     26  C   UNL     1       0.945   9.862  20.755  0.00  0.00    +0.000 A 
ATOM     27  O   UNL     1       1.119  12.124  20.074  0.00  0.00    +0.000 OA
ATOM     28  C   UNL     1       1.505  13.277  20.822  0.00  0.00    +0.000 C 
ATOM     29  C   UNL     1       0.347  13.842  21.636  0.00  0.00    +0.000 C 
ATOM     30  O   UNL     1      -0.405  12.889  22.387  0.00  0.00    +0.000 OA
ENDBRANCH  19  21
ENDBRANCH  16  17
ENDBRANCH   6  16
TORSDOF 5
ENDMDL
MODEL 9
REMARK VINA RESULT:      -7.8      2.020      2.638
REMARK  Name = 
REMARK  6 active torsions:
REMARK  status: ('A' for Active; 'I' for Inactive)
REMARK    1  A    between atoms: C_1  and  O_2
REMARK    2  A    between atoms: O_2  and  C_3
REMARK    3  A    between atoms: C_6  and  C_7
REMARK    4  A    between atoms: N_12  and  C_13
REMARK    5  A    between atoms: C_13  and  C_14
REMARK    6  A    between atoms: N_16  and  C_17
REMARK                            x       y       z     vdW  Elec       q    Type
REMARK                         _______ _______ _______ _____ _____    ______ ____
ROOT
ATOM      1  C   UNL     1       3.489   4.898  17.637  0.00  0.00    +0.000 A 
ATOM      2  C   UNL     1       2.637   3.703  17.428  0.00  0.00    +0.000 A 
ATOM      3  C   UNL     1       1.655   3.494  18.308  0.00  0.00    +0.000 A 
ATOM      4  C   UNL     1       1.447   4.412  19.442  0.00  0.00    +0.000 A 
ATOM      5  O   UNL     1       0.580   4.151  20.271  0.00  0.00    +0.000 OA
ATOM      6  N   UNL     1       2.273   5.522  19.485  0.00  0.00    +0.000 N 
ATOM      7  N   UNL     1       3.304   5.752  18.595  0.00  0.00    +0.000 NA
ENDROOT
BRANCH   1  11
ATOM      8  C   UNL     1       6.971   5.342  15.146  0.00  0.00    +0.000 A 
ATOM      9  C   UNL     1       5.922   4.523  14.728  0.00  0.00    +0.000 A 
ATOM     10  C   UNL     1       4.765   4.392  15.504  0.00  0.00    +0.000 A 
ATOM     11  C   UNL     1       4.665   5.060  16.730  0.00  0.00    +0.000 A 
ATOM     12  C   UNL     1       5.721   5.886  17.143  0.00  0.00    +0.000 A 
ATOM     13  C   UNL     1       6.872   6.024  16.358  0.00  0.00    +0.000 A 
BRANCH   8  15
ATOM     14  C   UNL     1       7.778   5.090  12.937  0.00  0.00    +0.000 C 
ATOM     15  O   UNL     1       8.050   5.366  14.306  0.00  0.00    +0.000 OA
ENDBRANCH   8  15
ENDBRANCH   1  11
BRANCH   6  16
ATOM     16  C   UNL     1       2.257   6.361  20.676  0.00  0.00    +0.000 C 
BRANCH  16  17
ATOM     17  C   UNL     1       1.614   7.737  20.534  0.00  0.00    +0.000 C 
ATOM     18  O   UNL     1       1.244   8.323  21.553  0.00  0.00    +0.000 OA
ATOM     19  N   UNL     1       1.576   8.259  19.249  0.00  0.00    +0.000 N 
ATOM     20  H   UNL     1       2.087   7.730  18.546  0.00  0.00    +0.000 HD
BRANCH  19  21
ATOM     21  C   UNL     1       1.154   9.564  18.905  0.00  0.00    +0.000 A 
ATOM     22  C   UNL     1      -0.172   9.992  19.030  0.00  0.00    +0.000 A 
ATOM     23  C   UNL     1      -0.500  11.346  18.934  0.00  0.00    +0.000 A 
ATOM     24  C   UNL     1       0.499  12.280  18.698  0.00  0.00    +0.000 A 
ATOM     25  C   UNL     1       1.794  11.843  18.423  0.00  0.00    +0.000 A 
ATOM     26  C   UNL     1       2.123  10.488  18.501  0.00  0.00    +0.000 A 
ATOM     27  O   UNL     1       2.799  12.728  18.131  0.00  0.00    +0.000 OA
ATOM     28  C   UNL     1       2.623  13.884  18.949  0.00  0.00    +0.000 C 
ATOM     29  C   UNL     1       1.242  14.504  18.770  0.00  0.00    +0.000 C 
ATOM     30  O   UNL     1       0.144  13.592  18.809  0.00  0.00    +0.000 OA
ENDBRANCH  19  21
ENDBRANCH  16  17
ENDBRANCH   6  16
TORSDOF 5
ENDMDL
