MODEL 1
REMARK VINA RESULT:      -7.7      0.000      0.000
REMARK  Name = 
REMARK  5 active torsions:
REMARK  status: ('A' for Active; 'I' for Inactive)
REMARK    1  A    between atoms: C_1  and  N_2
REMARK    2  A    between atoms: N_2  and  C_19
REMARK    3  A    between atoms: C_3  and  C_5
REMARK    4  A    between atoms: C_8  and  C_9
REMARK    5  A    between atoms: C_19  and  C_20
REMARK                            x       y       z     vdW  Elec       q    Type
REMARK                         _______ _______ _______ _____ _____    ______ ____
ROOT
ATOM      1  C   UNL     1       3.505   6.055  18.814  0.00  0.00    +0.000 A 
ATOM      2  C   UNL     1       3.019   5.011  19.584  0.00  0.00    +0.000 A 
ATOM      3  S   UNL     1       1.844   5.576  20.693  0.00  0.00    +0.000 S 
ATOM      4  C   UNL     1       1.983   7.147  20.025  0.00  0.00    +0.000 A 
ATOM      5  N   UNL     1       2.829   7.260  19.020  0.00  0.00    +0.000 NA
ENDROOT
BRANCH   4   6
ATOM      6  C   UNL     1       1.233   8.263  20.520  0.00  0.00    +0.000 A 
ATOM      7  C   UNL     1       0.886   9.424  19.843  0.00  0.00    +0.000 A 
ATOM      8  C   UNL     1       0.131  10.229  20.733  0.00  0.00    +0.000 A 
ATOM      9  C   UNL     1      -0.524  11.470  20.661  0.00  0.00    +0.000 A 
ATOM     10  C   UNL     1      -1.191  11.945  21.800  0.00  0.00    +0.000 A 
ATOM     11  C   UNL     1      -1.199  11.210  22.990  0.00  0.00    +0.000 A 
ATOM     12  C   UNL     1      -0.548   9.976  23.081  0.00  0.00    +0.000 A 
ATOM     13  C   UNL     1       0.091   9.525  21.928  0.00  0.00    +0.000 A 
ATOM     14  O   UNL     1       0.748   8.341  21.803  0.00  0.00    +0.000 OA
ENDBRANCH   4   6
BRANCH   1  17
ATOM     15  C   UNL     1       3.848   3.509  17.299  0.00  0.00    +0.000 C 
ATOM     16  N   UNL     1       4.702   4.682  17.100  0.00  0.00    +0.000 N 
ATOM     17  C   UNL     1       4.589   5.884  17.831  0.00  0.00    +0.000 C 
ATOM     18  O   UNL     1       5.358   6.823  17.615  0.00  0.00    +0.000 OA
BRANCH  16  19
ATOM     19  C   UNL     1       5.868   4.512  16.142  0.00  0.00    +0.000 C 
ATOM     20  C   UNL     1       5.679   3.382  15.061  0.00  0.00    +0.000 C 
ATOM     21  C   UNL     1       6.284   4.330  14.012  0.00  0.00    +0.000 C 
ATOM     22  C   UNL     1       5.879   5.499  14.923  0.00  0.00    +0.000 C 
BRANCH  19  23
ATOM     23  C   UNL     1       7.136   4.413  16.868  0.00  0.00    +0.000 C 
ATOM     24  N   UNL     1       8.159   4.362  17.414  0.00  0.00    +0.000 NA
ENDBRANCH  19  23
ENDBRANCH  16  19
ENDBRANCH   1  17
TORSDOF 4
ENDMDL
MODEL 2
REMARK VINA RESULT:      -7.7      2.741      3.356
REMARK  Name = 
REMARK  5 active torsions:
REMARK  status: ('A' for Active; 'I' for Inactive)
REMARK    1  A    between atoms: C_1  and  N_2
REMARK    2  A    between atoms: N_2  and  C_19
REMARK    3  A    between atoms: C_3  and  C_5
REMARK    4  A    between atoms: C_8  and  C_9
REMARK    5  A    between atoms: C_19  and  C_20
REMARK                            x       y       z     vdW  Elec       q    Type
REMARK                         _______ _______ _______ _____ _____    ______ ____
ROOT
ATOM      1  C   UNL     1       2.659   6.915  19.046  0.00  0.00    +0.000 A 
ATOM      2  C   UNL     1       2.920   7.602  17.872  0.00  0.00    +0.000 A 
ATOM      3  S   UNL     1       2.069   9.088  17.841  0.00  0.00    +0.000 S 
ATOM      4  C   UNL     1       1.483   8.773  19.420  0.00  0.00    +0.000 A 
ATOM      5  N   UNL     1       1.902   7.649  19.964  0.00  0.00    +0.000 NA
ENDROOT
BRANCH   4   6
ATOM      6  C   UNL     1       0.598   9.669  20.105  0.00  0.00    +0.000 A 
ATOM      7  C   UNL     1      -0.082  10.759  19.581  0.00  0.00    +0.000 A 
ATOM      8  C   UNL     1      -0.846  11.330  20.630  0.00  0.00    +0.000 A 
ATOM      9  C   UNL     1      -1.750  12.400  20.753  0.00  0.00    +0.000 A 
ATOM     10  C   UNL     1      -2.323  12.655  22.007  0.00  0.00    +0.000 A 
ATOM     11  C   UNL     1      -1.997  11.875  23.121  0.00  0.00    +0.000 A 
ATOM     12  C   UNL     1      -1.095  10.811  23.018  0.00  0.00    +0.000 A 
ATOM     13  C   UNL     1      -0.557  10.573  21.756  0.00  0.00    +0.000 A 
ATOM     14  O   UNL     1       0.307   9.571  21.444  0.00  0.00    +0.000 OA
ENDBRANCH   4   6
BRANCH   1  17
ATOM     15  C   UNL     1       1.161   4.468  18.235  0.00  0.00    +0.000 C 
ATOM     16  N   UNL     1       2.473   4.427  18.884  0.00  0.00    +0.000 N 
ATOM     17  C   UNL     1       3.186   5.566  19.316  0.00  0.00    +0.000 C 
ATOM     18  O   UNL     1       4.281   5.447  19.869  0.00  0.00    +0.000 OA
BRANCH  16  19
ATOM     19  C   UNL     1       3.010   3.049  19.234  0.00  0.00    +0.000 C 
ATOM     20  C   UNL     1       2.440   1.873  18.354  0.00  0.00    +0.000 C 
ATOM     21  C   UNL     1       3.858   1.282  18.285  0.00  0.00    +0.000 C 
ATOM     22  C   UNL     1       4.394   2.689  18.590  0.00  0.00    +0.000 C 
BRANCH  19  23
ATOM     23  C   UNL     1       2.913   2.797  20.672  0.00  0.00    +0.000 C 
ATOM     24  N   UNL     1       2.793   2.588  21.809  0.00  0.00    +0.000 NA
ENDBRANCH  19  23
ENDBRANCH  16  19
ENDBRANCH   1  17
TORSDOF 4
ENDMDL
MODEL 3
REMARK VINA RESULT:      -7.6      0.612      1.218
REMARK  Name = 
REMARK  5 active torsions:
REMARK  status: ('A' for Active; 'I' for Inactive)
REMARK    1  A    between atoms: C_1  and  N_2
REMARK    2  A    between atoms: N_2  and  C_19
REMARK    3  A    between atoms: C_3  and  C_5
REMARK    4  A    between atoms: C_8  and  C_9
REMARK    5  A    between atoms: C_19  and  C_20
REMARK                            x       y       z     vdW  Elec       q    Type
REMARK                         _______ _______ _______ _____ _____    ______ ____
ROOT
ATOM      1  C   UNL     1       3.583   6.002  18.862  0.00  0.00    +0.000 A 
ATOM      2  C   UNL     1       3.080   4.955  19.617  0.00  0.00    +0.000 A 
ATOM      3  S   UNL     1       1.882   5.516  20.703  0.00  0.00    +0.000 S 
ATOM      4  C   UNL     1       2.036   7.090  20.044  0.00  0.00    +0.000 A 
ATOM      5  N   UNL     1       2.903   7.207  19.059  0.00  0.00    +0.000 NA
ENDROOT
BRANCH   4   6
ATOM      6  C   UNL     1       1.275   8.204  20.528  0.00  0.00    +0.000 A 
ATOM      7  C   UNL     1       0.800   8.416  21.814  0.00  0.00    +0.000 A 
ATOM      8  C   UNL     1       0.118   9.660  21.819  0.00  0.00    +0.000 A 
ATOM      9  C   UNL     1      -0.542  10.444  22.780  0.00  0.00    +0.000 A 
ATOM     10  C   UNL     1      -1.107  11.664  22.378  0.00  0.00    +0.000 A 
ATOM     11  C   UNL     1      -1.031  12.091  21.049  0.00  0.00    +0.000 A 
ATOM     12  C   UNL     1      -0.383  11.320  20.079  0.00  0.00    +0.000 A 
ATOM     13  C   UNL     1       0.183  10.124  20.513  0.00  0.00    +0.000 A 
ATOM     14  O   UNL     1       0.880   9.254  19.734  0.00  0.00    +0.000 OA
ENDBRANCH   4   6
BRANCH   1  17
ATOM     15  C   UNL     1       3.730   3.637  17.052  0.00  0.00    +0.000 C 
ATOM     16  N   UNL     1       4.709   4.725  17.031  0.00  0.00    +0.000 N 
ATOM     17  C   UNL     1       4.688   5.835  17.902  0.00  0.00    +0.000 C 
ATOM     18  O   UNL     1       5.559   6.704  17.830  0.00  0.00    +0.000 OA
BRANCH  16  19
ATOM     19  C   UNL     1       5.895   4.547  16.097  0.00  0.00    +0.000 C 
ATOM     20  C   UNL     1       5.720   3.421  15.011  0.00  0.00    +0.000 C 
ATOM     21  C   UNL     1       6.355   4.364  13.977  0.00  0.00    +0.000 C 
ATOM     22  C   UNL     1       5.940   5.535  14.881  0.00  0.00    +0.000 C 
BRANCH  19  23
ATOM     23  C   UNL     1       7.145   4.437  16.851  0.00  0.00    +0.000 C 
ATOM     24  N   UNL     1       8.148   4.314  17.424  0.00  0.00    +0.000 NA
ENDBRANCH  19  23
ENDBRANCH  16  19
ENDBRANCH   1  17
TORSDOF 4
ENDMDL
MODEL 4
REMARK VINA RESULT:      -7.6      2.817      3.579
REMARK  Name = 
REMARK  5 active torsions:
REMARK  status: ('A' for Active; 'I' for Inactive)
REMARK    1  A    between atoms: C_1  and  N_2
REMARK    2  A    between atoms: N_2  and  C_19
REMARK    3  A    between atoms: C_3  and  C_5
REMARK    4  A    between atoms: C_8  and  C_9
REMARK    5  A    between atoms: C_19  and  C_20
REMARK                            x       y       z     vdW  Elec       q    Type
REMARK                         _______ _______ _______ _____ _____    ______ ____
ROOT
ATOM      1  C   UNL     1       2.639   6.931  19.111  0.00  0.00    +0.000 A 
ATOM      2  C   UNL     1       2.884   7.627  17.939  0.00  0.00    +0.000 A 
ATOM      3  S   UNL     1       2.030   9.111  17.930  0.00  0.00    +0.000 S 
ATOM      4  C   UNL     1       1.464   8.784  19.513  0.00  0.00    +0.000 A 
ATOM      5  N   UNL     1       1.892   7.656  20.043  0.00  0.00    +0.000 NA
ENDROOT
BRANCH   4   6
ATOM      6  C   UNL     1       0.586   9.673  20.215  0.00  0.00    +0.000 A 
ATOM      7  C   UNL     1       0.368   9.750  21.583  0.00  0.00    +0.000 A 
ATOM      8  C   UNL     1      -0.570  10.789  21.809  0.00  0.00    +0.000 A 
ATOM      9  C   UNL     1      -1.169  11.378  22.936  0.00  0.00    +0.000 A 
ATOM     10  C   UNL     1      -2.080  12.427  22.740  0.00  0.00    +0.000 A 
ATOM     11  C   UNL     1      -2.401  12.873  21.454  0.00  0.00    +0.000 A 
ATOM     12  C   UNL     1      -1.818  12.294  20.323  0.00  0.00    +0.000 A 
ATOM     13  C   UNL     1      -0.905  11.268  20.551  0.00  0.00    +0.000 A 
ATOM     14  O   UNL     1      -0.210  10.603  19.590  0.00  0.00    +0.000 OA
ENDBRANCH   4   6
BRANCH   1  17
ATOM     15  C   UNL     1       1.144   4.487  18.282  0.00  0.00    +0.000 C 
ATOM     16  N   UNL     1       2.459   4.444  18.924  0.00  0.00    +0.000 N 
ATOM     17  C   UNL     1       3.171   5.581  19.364  0.00  0.00    +0.000 C 
ATOM     18  O   UNL     1       4.269   5.459  19.910  0.00  0.00    +0.000 OA
BRANCH  16  19
ATOM     19  C   UNL     1       3.002   3.064  19.256  0.00  0.00    +0.000 C 
ATOM     20  C   UNL     1       2.438   1.897  18.362  0.00  0.00    +0.000 C 
ATOM     21  C   UNL     1       3.858   1.313  18.286  0.00  0.00    +0.000 C 
ATOM     22  C   UNL     1       4.388   2.718  18.609  0.00  0.00    +0.000 C 
BRANCH  19  23
ATOM     23  C   UNL     1       2.907   2.793  20.692  0.00  0.00    +0.000 C 
ATOM     24  N   UNL     1       2.796   2.551  21.822  0.00  0.00    +0.000 NA
ENDBRANCH  19  23
ENDBRANCH  16  19
ENDBRANCH   1  17
TORSDOF 4
ENDMDL
MODEL 5
REMARK VINA RESULT:      -7.4      1.230      1.784
REMARK  Name = 
REMARK  5 active torsions:
REMARK  status: ('A' for Active; 'I' for Inactive)
REMARK    1  A    between atoms: C_1  and  N_2
REMARK    2  A    between atoms: N_2  and  C_19
REMARK    3  A    between atoms: C_3  and  C_5
REMARK    4  A    between atoms: C_8  and  C_9
REMARK    5  A    between atoms: C_19  and  C_20
REMARK                            x       y       z     vdW  Elec       q    Type
REMARK                         _______ _______ _______ _____ _____    ______ ____
ROOT
ATOM      1  C   UNL     1       3.539   5.027  19.210  0.00  0.00    +0.000 A 
ATOM      2  C   UNL     1       2.787   4.186  20.014  0.00  0.00    +0.000 A 
ATOM      3  S   UNL     1       1.625   5.079  20.898  0.00  0.00    +0.000 S 
ATOM      4  C   UNL     1       2.125   6.507  20.096  0.00  0.00    +0.000 A 
ATOM      5  N   UNL     1       3.081   6.347  19.203  0.00  0.00    +0.000 NA
ENDROOT
BRANCH   4   6
ATOM      6  C   UNL     1       1.546   7.789  20.373  0.00  0.00    +0.000 A 
ATOM      7  C   UNL     1       0.951   8.217  21.551  0.00  0.00    +0.000 A 
ATOM      8  C   UNL     1       0.542   9.561  21.359  0.00  0.00    +0.000 A 
ATOM      9  C   UNL     1      -0.072  10.550  22.147  0.00  0.00    +0.000 A 
ATOM     10  C   UNL     1      -0.317  11.807  21.575  0.00  0.00    +0.000 A 
ATOM     11  C   UNL     1       0.027  12.074  20.246  0.00  0.00    +0.000 A 
ATOM     12  C   UNL     1       0.633  11.100  19.447  0.00  0.00    +0.000 A 
ATOM     13  C   UNL     1       0.879   9.869  20.049  0.00  0.00    +0.000 A 
ATOM     14  O   UNL     1       1.486   8.808  19.454  0.00  0.00    +0.000 OA
ENDBRANCH   4   6
BRANCH   1  17
ATOM     15  C   UNL     1       4.485   6.539  16.820  0.00  0.00    +0.000 C 
ATOM     16  N   UNL     1       5.123   5.310  17.295  0.00  0.00    +0.000 N 
ATOM     17  C   UNL     1       4.673   4.551  18.398  0.00  0.00    +0.000 C 
ATOM     18  O   UNL     1       5.257   3.517  18.726  0.00  0.00    +0.000 OA
BRANCH  16  19
ATOM     19  C   UNL     1       6.252   4.761  16.438  0.00  0.00    +0.000 C 
ATOM     20  C   UNL     1       5.848   3.565  15.497  0.00  0.00    +0.000 C 
ATOM     21  C   UNL     1       6.684   4.206  14.378  0.00  0.00    +0.000 C 
ATOM     22  C   UNL     1       6.523   5.548  15.109  0.00  0.00    +0.000 C 
BRANCH  19  23
ATOM     23  C   UNL     1       7.440   4.487  17.248  0.00  0.00    +0.000 C 
ATOM     24  N   UNL     1       8.395   4.239  17.860  0.00  0.00    +0.000 NA
ENDBRANCH  19  23
ENDBRANCH  16  19
ENDBRANCH   1  17
TORSDOF 4
ENDMDL
MODEL 6
REMARK VINA RESULT:      -7.4      1.086      1.267
REMARK  Name = 
REMARK  5 active torsions:
REMARK  status: ('A' for Active; 'I' for Inactive)
REMARK    1  A    between atoms: C_1  and  N_2
REMARK    2  A    between atoms: N_2  and  C_19
REMARK    3  A    between atoms: C_3  and  C_5
REMARK    4  A    between atoms: C_8  and  C_9
REMARK    5  A    between atoms: C_19  and  C_20
REMARK                            x       y       z     vdW  Elec       q    Type
REMARK                         _______ _______ _______ _____ _____    ______ ____
ROOT
ATOM      1  C   UNL     1       3.436   4.879  19.145  0.00  0.00    +0.000 A 
ATOM      2  C   UNL     1       2.654   3.992  19.867  0.00  0.00    +0.000 A 
ATOM      3  S   UNL     1       1.498   4.835  20.808  0.00  0.00    +0.000 S 
ATOM      4  C   UNL     1       2.042   6.313  20.133  0.00  0.00    +0.000 A 
ATOM      5  N   UNL     1       3.007   6.205  19.242  0.00  0.00    +0.000 NA
ENDROOT
BRANCH   4   6
ATOM      6  C   UNL     1       1.486   7.580  20.509  0.00  0.00    +0.000 A 
ATOM      7  C   UNL     1       1.499   8.763  19.784  0.00  0.00    +0.000 A 
ATOM      8  C   UNL     1       0.816   9.741  20.551  0.00  0.00    +0.000 A 
ATOM      9  C   UNL     1       0.461  11.090  20.379  0.00  0.00    +0.000 A 
ATOM     10  C   UNL     1      -0.244  11.736  21.405  0.00  0.00    +0.000 A 
ATOM     11  C   UNL     1      -0.579  11.062  22.584  0.00  0.00    +0.000 A 
ATOM     12  C   UNL     1      -0.229   9.721  22.774  0.00  0.00    +0.000 A 
ATOM     13  C   UNL     1       0.455   9.104  21.730  0.00  0.00    +0.000 A 
ATOM     14  O   UNL     1       0.852   7.804  21.707  0.00  0.00    +0.000 OA
ENDBRANCH   4   6
BRANCH   1  17
ATOM     15  C   UNL     1       4.492   6.592  16.945  0.00  0.00    +0.000 C 
ATOM     16  N   UNL     1       5.074   5.297  17.303  0.00  0.00    +0.000 N 
ATOM     17  C   UNL     1       4.570   4.447  18.311  0.00  0.00    +0.000 C 
ATOM     18  O   UNL     1       5.109   3.363  18.542  0.00  0.00    +0.000 OA
BRANCH  16  19
ATOM     19  C   UNL     1       6.202   4.797  16.416  0.00  0.00    +0.000 C 
ATOM     20  C   UNL     1       5.801   3.646  15.418  0.00  0.00    +0.000 C 
ATOM     21  C   UNL     1       6.630   4.347  14.330  0.00  0.00    +0.000 C 
ATOM     22  C   UNL     1       6.465   5.649  15.127  0.00  0.00    +0.000 C 
BRANCH  19  23
ATOM     23  C   UNL     1       7.395   4.489  17.208  0.00  0.00    +0.000 C 
ATOM     24  N   UNL     1       8.338   4.286  17.854  0.00  0.00    +0.000 NA
ENDBRANCH  19  23
ENDBRANCH  16  19
ENDBRANCH   1  17
TORSDOF 4
ENDMDL
MODEL 7
REMARK VINA RESULT:      -7.3      4.479      7.292
REMARK  Name = 
REMARK  5 active torsions:
REMARK  status: ('A' for Active; 'I' for Inactive)
REMARK    1  A    between atoms: C_1  and  N_2
REMARK    2  A    between atoms: N_2  and  C_19
REMARK    3  A    between atoms: C_3  and  C_5
REMARK    4  A    between atoms: C_8  and  C_9
REMARK    5  A    between atoms: C_19  and  C_20
REMARK                            x       y       z     vdW  Elec       q    Type
REMARK                         _______ _______ _______ _____ _____    ______ ____
ROOT
ATOM      1  C   UNL     1       5.572   4.776  18.128  0.00  0.00    +0.000 A 
ATOM      2  C   UNL     1       6.019   4.450  16.858  0.00  0.00    +0.000 A 
ATOM      3  S   UNL     1       7.056   5.671  16.252  0.00  0.00    +0.000 S 
ATOM      4  C   UNL     1       6.924   6.508  17.741  0.00  0.00    +0.000 A 
ATOM      5  N   UNL     1       6.179   5.920  18.655  0.00  0.00    +0.000 NA
ENDROOT
BRANCH   4   6
ATOM      6  C   UNL     1       7.580   7.760  17.980  0.00  0.00    +0.000 A 
ATOM      7  C   UNL     1       8.578   8.036  18.903  0.00  0.00    +0.000 A 
ATOM      8  C   UNL     1       8.924   9.404  18.762  0.00  0.00    +0.000 A 
ATOM      9  C   UNL     1       9.855  10.274  19.354  0.00  0.00    +0.000 A 
ATOM     10  C   UNL     1       9.895  11.609  18.925  0.00  0.00    +0.000 A 
ATOM     11  C   UNL     1       9.021  12.074  17.937  0.00  0.00    +0.000 A 
ATOM     12  C   UNL     1       8.085  11.224  17.342  0.00  0.00    +0.000 A 
ATOM     13  C   UNL     1       8.083   9.901  17.778  0.00  0.00    +0.000 A 
ATOM     14  O   UNL     1       7.275   8.916  17.302  0.00  0.00    +0.000 OA
ENDBRANCH   4   6
BRANCH   1  17
ATOM     15  C   UNL     1       2.715   5.592  18.372  0.00  0.00    +0.000 C 
ATOM     16  N   UNL     1       3.244   4.346  18.931  0.00  0.00    +0.000 N 
ATOM     17  C   UNL     1       4.598   3.955  18.867  0.00  0.00    +0.000 C 
ATOM     18  O   UNL     1       4.969   2.896  19.378  0.00  0.00    +0.000 OA
BRANCH  16  19
ATOM     19  C   UNL     1       2.277   3.513  19.755  0.00  0.00    +0.000 C 
ATOM     20  C   UNL     1       2.945   2.656  20.895  0.00  0.00    +0.000 C 
ATOM     21  C   UNL     1       1.790   3.057  21.828  0.00  0.00    +0.000 C 
ATOM     22  C   UNL     1       1.564   4.278  20.924  0.00  0.00    +0.000 C 
BRANCH  19  23
ATOM     23  C   UNL     1       1.385   2.736  18.892  0.00  0.00    +0.000 C 
ATOM     24  N   UNL     1       0.658   2.104  18.243  0.00  0.00    +0.000 NA
ENDBRANCH  19  23
ENDBRANCH  16  19
ENDBRANCH   1  17
TORSDOF 4
ENDMDL
MODEL 8
REMARK VINA RESULT:      -7.3      1.386      1.918
REMARK  Name = 
REMARK  5 active torsions:
REMARK  status: ('A' for Active; 'I' for Inactive)
REMARK    1  A    between atoms: C_1  and  N_2
REMARK    2  A    between atoms: N_2  and  C_19
REMARK    3  A    between atoms: C_3  and  C_5
REMARK    4  A    between atoms: C_8  and  C_9
REMARK    5  A    between atoms: C_19  and  C_20
REMARK                            x       y       z     vdW  Elec       q    Type
REMARK                         _______ _______ _______ _____ _____    ______ ____
ROOT
ATOM      1  C   UNL     1       3.078   6.636  18.887  0.00  0.00    +0.000 A 
ATOM      2  C   UNL     1       2.675   5.528  19.615  0.00  0.00    +0.000 A 
ATOM      3  S   UNL     1       1.518   5.972  20.797  0.00  0.00    +0.000 S 
ATOM      4  C   UNL     1       1.553   7.582  20.212  0.00  0.00    +0.000 A 
ATOM      5  N   UNL     1       2.352   7.792  19.185  0.00  0.00    +0.000 NA
ENDROOT
BRANCH   4   6
ATOM      6  C   UNL     1       0.767   8.629  20.796  0.00  0.00    +0.000 A 
ATOM      7  C   UNL     1       0.305   8.720  22.101  0.00  0.00    +0.000 A 
ATOM      8  C   UNL     1      -0.411   9.938  22.217  0.00  0.00    +0.000 A 
ATOM      9  C   UNL     1      -1.079  10.621  23.248  0.00  0.00    +0.000 A 
ATOM     10  C   UNL     1      -1.684  11.853  22.957  0.00  0.00    +0.000 A 
ATOM     11  C   UNL     1      -1.638  12.391  21.667  0.00  0.00    +0.000 A 
ATOM     12  C   UNL     1      -0.983  11.723  20.628  0.00  0.00    +0.000 A 
ATOM     13  C   UNL     1      -0.378  10.511  20.954  0.00  0.00    +0.000 A 
ATOM     14  O   UNL     1       0.333   9.730  20.098  0.00  0.00    +0.000 OA
ENDBRANCH   4   6
BRANCH   1  17
ATOM     15  C   UNL     1       5.575   5.061  19.303  0.00  0.00    +0.000 C 
ATOM     16  N   UNL     1       5.283   5.789  18.067  0.00  0.00    +0.000 N 
ATOM     17  C   UNL     1       4.129   6.575  17.857  0.00  0.00    +0.000 C 
ATOM     18  O   UNL     1       3.963   7.171  16.791  0.00  0.00    +0.000 OA
BRANCH  16  19
ATOM     19  C   UNL     1       6.379   5.798  17.014  0.00  0.00    +0.000 C 
ATOM     20  C   UNL     1       7.226   4.473  16.928  0.00  0.00    +0.000 C 
ATOM     21  C   UNL     1       7.167   4.574  15.395  0.00  0.00    +0.000 C 
ATOM     22  C   UNL     1       5.910   5.441  15.561  0.00  0.00    +0.000 C 
BRANCH  19  23
ATOM     23  C   UNL     1       7.199   7.005  17.120  0.00  0.00    +0.000 C 
ATOM     24  N   UNL     1       7.860   7.959  17.161  0.00  0.00    +0.000 NA
ENDBRANCH  19  23
ENDBRANCH  16  19
ENDBRANCH   1  17
TORSDOF 4
ENDMDL
MODEL 9
REMARK VINA RESULT:      -7.3      4.800      7.146
REMARK  Name = 
REMARK  5 active torsions:
REMARK  status: ('A' for Active; 'I' for Inactive)
REMARK    1  A    between atoms: C_1  and  N_2
REMARK    2  A    between atoms: N_2  and  C_19
REMARK    3  A    between atoms: C_3  and  C_5
REMARK    4  A    between atoms: C_8  and  C_9
REMARK    5  A    between atoms: C_19  and  C_20
REMARK                            x       y       z     vdW  Elec       q    Type
REMARK                         _______ _______ _______ _____ _____    ______ ____
ROOT
ATOM      1  C   UNL     1       5.675   4.749  18.045  0.00  0.00    +0.000 A 
ATOM      2  C   UNL     1       6.207   4.421  16.808  0.00  0.00    +0.000 A 
ATOM      3  S   UNL     1       7.265   5.651  16.262  0.00  0.00    +0.000 S 
ATOM      4  C   UNL     1       7.028   6.496  17.733  0.00  0.00    +0.000 A 
ATOM      5  N   UNL     1       6.232   5.904  18.601  0.00  0.00    +0.000 NA
ENDROOT
BRANCH   4   6
ATOM      6  C   UNL     1       7.651   7.758  18.004  0.00  0.00    +0.000 A 
ATOM      7  C   UNL     1       8.603   8.047  18.971  0.00  0.00    +0.000 A 
ATOM      8  C   UNL     1       8.931   9.421  18.850  0.00  0.00    +0.000 A 
ATOM      9  C   UNL     1       9.820  10.305  19.485  0.00  0.00    +0.000 A 
ATOM     10  C   UNL     1       9.856  11.642  19.062  0.00  0.00    +0.000 A 
ATOM     11  C   UNL     1       9.018  12.096  18.039  0.00  0.00    +0.000 A 
ATOM     12  C   UNL     1       8.124  11.232  17.400  0.00  0.00    +0.000 A 
ATOM     13  C   UNL     1       8.125   9.908  17.831  0.00  0.00    +0.000 A 
ATOM     14  O   UNL     1       7.356   8.911  17.317  0.00  0.00    +0.000 OA
ENDBRANCH   4   6
BRANCH   1  17
ATOM     15  C   UNL     1       2.765   5.365  17.849  0.00  0.00    +0.000 C 
ATOM     16  N   UNL     1       3.293   4.213  18.582  0.00  0.00    +0.000 N 
ATOM     17  C   UNL     1       4.666   3.920  18.726  0.00  0.00    +0.000 C 
ATOM     18  O   UNL     1       5.032   2.937  19.373  0.00  0.00    +0.000 OA
BRANCH  16  19
ATOM     19  C   UNL     1       2.280   3.379  19.348  0.00  0.00    +0.000 C 
ATOM     20  C   UNL     1       0.799   3.488  18.824  0.00  0.00    +0.000 C 
ATOM     21  C   UNL     1       0.657   1.969  19.005  0.00  0.00    +0.000 C 
ATOM     22  C   UNL     1       2.187   1.875  18.912  0.00  0.00    +0.000 C 
BRANCH  19  23
ATOM     23  C   UNL     1       2.403   3.597  20.790  0.00  0.00    +0.000 C 
ATOM     24  N   UNL     1       2.465   3.744  21.941  0.00  0.00    +0.000 NA
ENDBRANCH  19  23
ENDBRANCH  16  19
ENDBRANCH   1  17
TORSDOF 4
ENDMDL
