MODEL 1
REMARK VINA RESULT:      -7.4      0.000      0.000
REMARK  Name = 
REMARK  8 active torsions:
REMARK  status: ('A' for Active; 'I' for Inactive)
REMARK    1  A    between atoms: C_2  and  O_3
REMARK    2  A    between atoms: C_2  and  C_4
REMARK    3  A    between atoms: N_8  and  C_9
REMARK    4  A    between atoms: C_9  and  C_10
REMARK    5  A    between atoms: C_10  and  O_11
REMARK    6  A    between atoms: O_11  and  N_12
REMARK    7  A    between atoms: C_13  and  C_14
REMARK    8  A    between atoms: C_18  and  C_19
REMARK                            x       y       z     vdW  Elec       q    Type
REMARK                         _______ _______ _______ _____ _____    ______ ____
ROOT
ATOM      1  N   UNL     1       5.895   4.852  19.756  0.00  0.00    +0.000 NA
ATOM      2  C   UNL     1       4.790   5.486  19.580  0.00  0.00    +0.000 C 
ENDROOT
BRANCH   2   3
ATOM      3  C   UNL     1       3.511   4.747  19.616  0.00  0.00    +0.000 A 
ATOM      4  S   UNL     1       3.432   3.072  19.470  0.00  0.00    +0.000 S 
ATOM      5  C   UNL     1       1.768   2.950  19.562  0.00  0.00    +0.000 A 
ATOM      6  C   UNL     1       1.242   4.220  19.729  0.00  0.00    +0.000 A 
ATOM      7  C   UNL     1       2.199   5.261  19.765  0.00  0.00    +0.000 A 
BRANCH   7   8
ATOM      8  C   UNL     1       1.841   6.707  20.007  0.00  0.00    +0.000 A 
ATOM      9  C   UNL     1       1.339   7.096  21.272  0.00  0.00    +0.000 A 
ATOM     10  C   UNL     1       0.999   8.418  21.551  0.00  0.00    +0.000 A 
ATOM     11  C   UNL     1       1.128   9.396  20.572  0.00  0.00    +0.000 A 
ATOM     12 CL   UNL     1       0.701  11.058  20.930  0.00  0.00    +0.000 Cl
ATOM     13  C   UNL     1       1.595   9.047  19.306  0.00  0.00    +0.000 A 
ATOM     14  C   UNL     1       1.951   7.725  19.008  0.00  0.00    +0.000 A 
ATOM     15 CL   UNL     1       2.580   7.459  17.385  0.00  0.00    +0.000 Cl
ENDBRANCH   7   8
ENDBRANCH   2   3
BRANCH   1  16
ATOM     16  O   UNL     1       7.029   5.503  19.895  0.00  0.00    +0.000 OA
BRANCH  16  17
ATOM     17  C   UNL     1       7.960   5.445  18.881  0.00  0.00    +0.000 C 
BRANCH  17  18
ATOM     18  C   UNL     1       7.769   6.582  17.859  0.00  0.00    +0.000 C 
BRANCH  18  23
ATOM     19  C   UNL     1       6.611   4.280  14.997  0.00  0.00    +0.000 C 
ATOM     20  C   UNL     1       5.148   4.754  14.952  0.00  0.00    +0.000 C 
ATOM     21  C   UNL     1       5.080   6.270  15.169  0.00  0.00    +0.000 C 
ATOM     22  C   UNL     1       5.698   6.607  16.528  0.00  0.00    +0.000 C 
ATOM     23  N   UNL     1       7.109   6.154  16.595  0.00  0.00    +0.000 NA
ATOM     24  C   UNL     1       7.225   4.694  16.357  0.00  0.00    +0.000 C 
BRANCH  19  26
ATOM     25  O   UNL     1       7.136   4.394  12.670  0.00  0.00    +0.000 OA
ATOM     26  C   UNL     1       7.384   4.799  13.793  0.00  0.00    +0.000 C 
BRANCH  26  27
ATOM     27  O   UNL     1       8.341   5.737  13.960  0.00  0.00    +0.000 OA
ATOM     28  H   UNL     1       8.150   6.686  13.903  0.00  0.00    +0.000 HD
ENDBRANCH  26  27
ENDBRANCH  19  26
ENDBRANCH  18  23
ENDBRANCH  17  18
ENDBRANCH  16  17
ENDBRANCH   1  16
TORSDOF 8
ENDMDL
MODEL 2
REMARK VINA RESULT:      -7.4      5.023      6.915
REMARK  Name = 
REMARK  8 active torsions:
REMARK  status: ('A' for Active; 'I' for Inactive)
REMARK    1  A    between atoms: C_2  and  O_3
REMARK    2  A    between atoms: C_2  and  C_4
REMARK    3  A    between atoms: N_8  and  C_9
REMARK    4  A    between atoms: C_9  and  C_10
REMARK    5  A    between atoms: C_10  and  O_11
REMARK    6  A    between atoms: O_11  and  N_12
REMARK    7  A    between atoms: C_13  and  C_14
REMARK    8  A    between atoms: C_18  and  C_19
REMARK                            x       y       z     vdW  Elec       q    Type
REMARK                         _______ _______ _______ _____ _____    ______ ____
ROOT
ATOM      1  N   UNL     1       7.312   7.431  17.229  0.00  0.00    +0.000 NA
ATOM      2  C   UNL     1       7.290   6.153  17.368  0.00  0.00    +0.000 C 
ENDROOT
BRANCH   2   3
ATOM      3  C   UNL     1       6.603   5.321  16.359  0.00  0.00    +0.000 A 
ATOM      4  S   UNL     1       7.234   5.064  14.819  0.00  0.00    +0.000 S 
ATOM      5  C   UNL     1       5.981   4.114  14.255  0.00  0.00    +0.000 A 
ATOM      6  C   UNL     1       5.051   3.961  15.270  0.00  0.00    +0.000 A 
ATOM      7  C   UNL     1       5.371   4.629  16.475  0.00  0.00    +0.000 A 
BRANCH   7   8
ATOM      8  C   UNL     1       4.528   4.537  17.723  0.00  0.00    +0.000 A 
ATOM      9  C   UNL     1       4.470   3.313  18.433  0.00  0.00    +0.000 A 
ATOM     10  C   UNL     1       3.712   3.173  19.593  0.00  0.00    +0.000 A 
ATOM     11  C   UNL     1       2.968   4.243  20.077  0.00  0.00    +0.000 A 
ATOM     12 CL   UNL     1       2.019   4.062  21.540  0.00  0.00    +0.000 Cl
ATOM     13  C   UNL     1       2.980   5.456  19.392  0.00  0.00    +0.000 A 
ATOM     14  C   UNL     1       3.742   5.620  18.227  0.00  0.00    +0.000 A 
ATOM     15 CL   UNL     1       3.698   7.230  17.515  0.00  0.00    +0.000 Cl
ENDBRANCH   7   8
ENDBRANCH   2   3
BRANCH   1  16
ATOM     16  O   UNL     1       8.052   8.180  18.016  0.00  0.00    +0.000 OA
BRANCH  16  17
ATOM     17  C   UNL     1       8.187   9.521  17.727  0.00  0.00    +0.000 C 
BRANCH  17  18
ATOM     18  C   UNL     1       9.052  10.251  18.772  0.00  0.00    +0.000 C 
BRANCH  18  23
ATOM     19  C   UNL     1       9.665  14.047  18.997  0.00  0.00    +0.000 C 
ATOM     20  C   UNL     1      11.086  14.045  18.406  0.00  0.00    +0.000 C 
ATOM     21  C   UNL     1      11.175  13.036  17.255  0.00  0.00    +0.000 C 
ATOM     22  C   UNL     1      10.826  11.643  17.784  0.00  0.00    +0.000 C 
ATOM     23  N   UNL     1       9.461  11.623  18.365  0.00  0.00    +0.000 NA
ATOM     24  C   UNL     1       9.320  12.610  19.463  0.00  0.00    +0.000 C 
BRANCH  19  26
ATOM     25  O   UNL     1       8.699  15.805  17.701  0.00  0.00    +0.000 OA
ATOM     26  C   UNL     1       8.668  14.623  18.003  0.00  0.00    +0.000 C 
BRANCH  26  27
ATOM     27  O   UNL     1       7.750  13.819  17.426  0.00  0.00    +0.000 OA
ATOM     28  H   UNL     1       6.878  14.144  17.150  0.00  0.00    +0.000 HD
ENDBRANCH  26  27
ENDBRANCH  19  26
ENDBRANCH  18  23
ENDBRANCH  17  18
ENDBRANCH  16  17
ENDBRANCH   1  16
TORSDOF 8
ENDMDL
MODEL 3
REMARK VINA RESULT:      -7.3      5.161      6.735
REMARK  Name = 
REMARK  8 active torsions:
REMARK  status: ('A' for Active; 'I' for Inactive)
REMARK    1  A    between atoms: C_2  and  O_3
REMARK    2  A    between atoms: C_2  and  C_4
REMARK    3  A    between atoms: N_8  and  C_9
REMARK    4  A    between atoms: C_9  and  C_10
REMARK    5  A    between atoms: C_10  and  O_11
REMARK    6  A    between atoms: O_11  and  N_12
REMARK    7  A    between atoms: C_13  and  C_14
REMARK    8  A    between atoms: C_18  and  C_19
REMARK                            x       y       z     vdW  Elec       q    Type
REMARK                         _______ _______ _______ _____ _____    ______ ____
ROOT
ATOM      1  N   UNL     1       7.470   7.747  17.321  0.00  0.00    +0.000 NA
ATOM      2  C   UNL     1       7.296   6.500  17.587  0.00  0.00    +0.000 C 
ENDROOT
BRANCH   2   3
ATOM      3  C   UNL     1       6.483   5.668  16.677  0.00  0.00    +0.000 A 
ATOM      4  S   UNL     1       7.146   4.858  15.358  0.00  0.00    +0.000 S 
ATOM      5  C   UNL     1       5.719   4.189  14.806  0.00  0.00    +0.000 A 
ATOM      6  C   UNL     1       4.695   4.570  15.657  0.00  0.00    +0.000 A 
ATOM      7  C   UNL     1       5.091   5.406  16.727  0.00  0.00    +0.000 A 
BRANCH   7   8
ATOM      8  C   UNL     1       4.145   5.878  17.805  0.00  0.00    +0.000 A 
ATOM      9  C   UNL     1       3.507   7.134  17.667  0.00  0.00    +0.000 A 
ATOM     10  C   UNL     1       2.621   7.617  18.628  0.00  0.00    +0.000 A 
ATOM     11  C   UNL     1       2.354   6.873  19.770  0.00  0.00    +0.000 A 
ATOM     12 CL   UNL     1       1.235   7.483  20.974  0.00  0.00    +0.000 Cl
ATOM     13  C   UNL     1       2.982   5.642  19.954  0.00  0.00    +0.000 A 
ATOM     14  C   UNL     1       3.870   5.135  18.996  0.00  0.00    +0.000 A 
ATOM     15 CL   UNL     1       4.532   3.542  19.346  0.00  0.00    +0.000 Cl
ENDBRANCH   7   8
ENDBRANCH   2   3
BRANCH   1  16
ATOM     16  O   UNL     1       8.319   8.470  18.017  0.00  0.00    +0.000 OA
BRANCH  16  17
ATOM     17  C   UNL     1       8.264   9.843  17.917  0.00  0.00    +0.000 C 
BRANCH  17  18
ATOM     18  C   UNL     1       9.503  10.516  18.538  0.00  0.00    +0.000 C 
BRANCH  18  23
ATOM     19  C   UNL     1       9.164  14.327  18.982  0.00  0.00    +0.000 C 
ATOM     20  C   UNL     1      10.601  14.695  18.569  0.00  0.00    +0.000 C 
ATOM     21  C   UNL     1      11.053  13.813  17.400  0.00  0.00    +0.000 C 
ATOM     22  C   UNL     1      10.991  12.345  17.829  0.00  0.00    +0.000 C 
ATOM     23  N   UNL     1       9.615  11.970  18.237  0.00  0.00    +0.000 NA
ATOM     24  C   UNL     1       9.123  12.822  19.347  0.00  0.00    +0.000 C 
BRANCH  19  26
ATOM     25  O   UNL     1       8.010  15.891  17.594  0.00  0.00    +0.000 OA
ATOM     26  C   UNL     1       8.173  14.721  17.896  0.00  0.00    +0.000 C 
BRANCH  26  27
ATOM     27  O   UNL     1       7.479  13.767  17.239  0.00  0.00    +0.000 OA
ATOM     28  H   UNL     1       7.477  12.841  17.525  0.00  0.00    +0.000 HD
ENDBRANCH  26  27
ENDBRANCH  19  26
ENDBRANCH  18  23
ENDBRANCH  17  18
ENDBRANCH  16  17
ENDBRANCH   1  16
TORSDOF 8
ENDMDL
MODEL 4
REMARK VINA RESULT:      -7.3      1.393      1.839
REMARK  Name = 
REMARK  8 active torsions:
REMARK  status: ('A' for Active; 'I' for Inactive)
REMARK    1  A    between atoms: C_2  and  O_3
REMARK    2  A    between atoms: C_2  and  C_4
REMARK    3  A    between atoms: N_8  and  C_9
REMARK    4  A    between atoms: C_9  and  C_10
REMARK    5  A    between atoms: C_10  and  O_11
REMARK    6  A    between atoms: O_11  and  N_12
REMARK    7  A    between atoms: C_13  and  C_14
REMARK    8  A    between atoms: C_18  and  C_19
REMARK                            x       y       z     vdW  Elec       q    Type
REMARK                         _______ _______ _______ _____ _____    ______ ____
ROOT
ATOM      1  N   UNL     1       5.464   4.977  19.643  0.00  0.00    +0.000 NA
ATOM      2  C   UNL     1       5.305   4.144  18.676  0.00  0.00    +0.000 C 
ENDROOT
BRANCH   2   3
ATOM      3  C   UNL     1       3.986   3.511  18.467  0.00  0.00    +0.000 A 
ATOM      4  S   UNL     1       3.811   1.859  18.189  0.00  0.00    +0.000 S 
ATOM      5  C   UNL     1       2.148   1.868  18.024  0.00  0.00    +0.000 A 
ATOM      6  C   UNL     1       1.694   3.165  18.204  0.00  0.00    +0.000 A 
ATOM      7  C   UNL     1       2.706   4.119  18.458  0.00  0.00    +0.000 A 
BRANCH   7   8
ATOM      8  C   UNL     1       2.421   5.573  18.750  0.00  0.00    +0.000 A 
ATOM      9  C   UNL     1       2.448   6.511  17.690  0.00  0.00    +0.000 A 
ATOM     10  C   UNL     1       2.187   7.863  17.902  0.00  0.00    +0.000 A 
ATOM     11  C   UNL     1       1.909   8.331  19.180  0.00  0.00    +0.000 A 
ATOM     12 CL   UNL     1       1.578  10.034  19.439  0.00  0.00    +0.000 Cl
ATOM     13  C   UNL     1       1.898   7.442  20.253  0.00  0.00    +0.000 A 
ATOM     14  C   UNL     1       2.150   6.077  20.060  0.00  0.00    +0.000 A 
ATOM     15 CL   UNL     1       2.039   5.077  21.505  0.00  0.00    +0.000 Cl
ENDBRANCH   7   8
ENDBRANCH   2   3
BRANCH   1  16
ATOM     16  O   UNL     1       6.570   5.677  19.751  0.00  0.00    +0.000 OA
BRANCH  16  17
ATOM     17  C   UNL     1       7.619   5.403  18.900  0.00  0.00    +0.000 C 
BRANCH  17  18
ATOM     18  C   UNL     1       7.768   6.476  17.805  0.00  0.00    +0.000 C 
BRANCH  18  23
ATOM     19  C   UNL     1       6.612   4.316  14.833  0.00  0.00    +0.000 C 
ATOM     20  C   UNL     1       5.161   4.827  14.780  0.00  0.00    +0.000 C 
ATOM     21  C   UNL     1       5.125   6.335  15.055  0.00  0.00    +0.000 C 
ATOM     22  C   UNL     1       5.725   6.604  16.437  0.00  0.00    +0.000 C 
ATOM     23  N   UNL     1       7.122   6.113  16.513  0.00  0.00    +0.000 NA
ATOM     24  C   UNL     1       7.208   4.661  16.220  0.00  0.00    +0.000 C 
BRANCH  19  26
ATOM     25  O   UNL     1       7.179   4.514  12.522  0.00  0.00    +0.000 OA
ATOM     26  C   UNL     1       7.420   4.862  13.666  0.00  0.00    +0.000 C 
BRANCH  26  27
ATOM     27  O   UNL     1       8.402   5.761  13.888  0.00  0.00    +0.000 OA
ATOM     28  H   UNL     1       8.586   6.488  13.274  0.00  0.00    +0.000 HD
ENDBRANCH  26  27
ENDBRANCH  19  26
ENDBRANCH  18  23
ENDBRANCH  17  18
ENDBRANCH  16  17
ENDBRANCH   1  16
TORSDOF 8
ENDMDL
MODEL 5
REMARK VINA RESULT:      -7.3      4.978      6.511
REMARK  Name = 
REMARK  8 active torsions:
REMARK  status: ('A' for Active; 'I' for Inactive)
REMARK    1  A    between atoms: C_2  and  O_3
REMARK    2  A    between atoms: C_2  and  C_4
REMARK    3  A    between atoms: N_8  and  C_9
REMARK    4  A    between atoms: C_9  and  C_10
REMARK    5  A    between atoms: C_10  and  O_11
REMARK    6  A    between atoms: O_11  and  N_12
REMARK    7  A    between atoms: C_13  and  C_14
REMARK    8  A    between atoms: C_18  and  C_19
REMARK                            x       y       z     vdW  Elec       q    Type
REMARK                         _______ _______ _______ _____ _____    ______ ____
ROOT
ATOM      1  N   UNL     1       7.615   7.599  17.585  0.00  0.00    +0.000 NA
ATOM      2  C   UNL     1       7.349   6.364  17.827  0.00  0.00    +0.000 C 
ENDROOT
BRANCH   2   3
ATOM      3  C   UNL     1       6.551   5.586  16.857  0.00  0.00    +0.000 A 
ATOM      4  S   UNL     1       7.249   4.778  15.556  0.00  0.00    +0.000 S 
ATOM      5  C   UNL     1       5.826   4.182  14.915  0.00  0.00    +0.000 A 
ATOM      6  C   UNL     1       4.775   4.588  15.721  0.00  0.00    +0.000 A 
ATOM      7  C   UNL     1       5.149   5.383  16.829  0.00  0.00    +0.000 A 
BRANCH   7   8
ATOM      8  C   UNL     1       4.168   5.872  17.867  0.00  0.00    +0.000 A 
ATOM      9  C   UNL     1       3.541   7.129  17.692  0.00  0.00    +0.000 A 
ATOM     10  C   UNL     1       2.624   7.626  18.615  0.00  0.00    +0.000 A 
ATOM     11  C   UNL     1       2.314   6.897  19.757  0.00  0.00    +0.000 A 
ATOM     12 CL   UNL     1       1.156   7.526  20.914  0.00  0.00    +0.000 Cl
ATOM     13  C   UNL     1       2.930   5.666  19.977  0.00  0.00    +0.000 A 
ATOM     14  C   UNL     1       3.849   5.145  19.056  0.00  0.00    +0.000 A 
ATOM     15 CL   UNL     1       4.491   3.553  19.449  0.00  0.00    +0.000 Cl
ENDBRANCH   7   8
ENDBRANCH   2   3
BRANCH   1  16
ATOM     16  O   UNL     1       8.458   8.266  18.343  0.00  0.00    +0.000 OA
BRANCH  16  17
ATOM     17  C   UNL     1       8.508   9.639  18.235  0.00  0.00    +0.000 C 
BRANCH  17  18
ATOM     18  C   UNL     1       9.307  10.278  19.387  0.00  0.00    +0.000 C 
BRANCH  18  23
ATOM     19  C   UNL     1       9.835  13.586  17.486  0.00  0.00    +0.000 C 
ATOM     20  C   UNL     1       9.516  14.531  18.657  0.00  0.00    +0.000 C 
ATOM     21  C   UNL     1      10.095  13.968  19.960  0.00  0.00    +0.000 C 
ATOM     22  C   UNL     1       9.488  12.587  20.220  0.00  0.00    +0.000 C 
ATOM     23  N   UNL     1       9.779  11.660  19.100  0.00  0.00    +0.000 NA
ATOM     24  C   UNL     1       9.264  12.183  17.810  0.00  0.00    +0.000 C 
BRANCH  19  26
ATOM     25  O   UNL     1      11.984  12.562  17.290  0.00  0.00    +0.000 OA
ATOM     26  C   UNL     1      11.327  13.584  17.185  0.00  0.00    +0.000 C 
BRANCH  26  27
ATOM     27  O   UNL     1      11.932  14.718  16.772  0.00  0.00    +0.000 OA
ATOM     28  H   UNL     1      11.825  15.063  15.872  0.00  0.00    +0.000 HD
ENDBRANCH  26  27
ENDBRANCH  19  26
ENDBRANCH  18  23
ENDBRANCH  17  18
ENDBRANCH  16  17
ENDBRANCH   1  16
TORSDOF 8
ENDMDL
MODEL 6
REMARK VINA RESULT:      -7.1      5.124      6.921
REMARK  Name = 
REMARK  8 active torsions:
REMARK  status: ('A' for Active; 'I' for Inactive)
REMARK    1  A    between atoms: C_2  and  O_3
REMARK    2  A    between atoms: C_2  and  C_4
REMARK    3  A    between atoms: N_8  and  C_9
REMARK    4  A    between atoms: C_9  and  C_10
REMARK    5  A    between atoms: C_10  and  O_11
REMARK    6  A    between atoms: O_11  and  N_12
REMARK    7  A    between atoms: C_13  and  C_14
REMARK    8  A    between atoms: C_18  and  C_19
REMARK                            x       y       z     vdW  Elec       q    Type
REMARK                         _______ _______ _______ _____ _____    ______ ____
ROOT
ATOM      1  N   UNL     1       7.714   7.683  17.423  0.00  0.00    +0.000 NA
ATOM      2  C   UNL     1       7.325   6.503  17.757  0.00  0.00    +0.000 C 
ENDROOT
BRANCH   2   3
ATOM      3  C   UNL     1       6.544   5.694  16.799  0.00  0.00    +0.000 A 
ATOM      4  S   UNL     1       7.255   4.908  15.491  0.00  0.00    +0.000 S 
ATOM      5  C   UNL     1       5.846   4.260  14.869  0.00  0.00    +0.000 A 
ATOM      6  C   UNL     1       4.792   4.630  15.687  0.00  0.00    +0.000 A 
ATOM      7  C   UNL     1       5.150   5.440  16.789  0.00  0.00    +0.000 A 
BRANCH   7   8
ATOM      8  C   UNL     1       4.165   5.895  17.839  0.00  0.00    +0.000 A 
ATOM      9  C   UNL     1       3.507   7.139  17.680  0.00  0.00    +0.000 A 
ATOM     10  C   UNL     1       2.585   7.605  18.614  0.00  0.00    +0.000 A 
ATOM     11  C   UNL     1       2.301   6.858  19.750  0.00  0.00    +0.000 A 
ATOM     12 CL   UNL     1       1.136   7.448  20.921  0.00  0.00    +0.000 Cl
ATOM     13  C   UNL     1       2.947   5.640  19.954  0.00  0.00    +0.000 A 
ATOM     14  C   UNL     1       3.871   5.150  19.023  0.00  0.00    +0.000 A 
ATOM     15 CL   UNL     1       4.555   3.570  19.396  0.00  0.00    +0.000 Cl
ENDBRANCH   7   8
ENDBRANCH   2   3
BRANCH   1  16
ATOM     16  O   UNL     1       8.547   8.357  18.186  0.00  0.00    +0.000 OA
BRANCH  16  17
ATOM     17  C   UNL     1       8.469   9.733  18.204  0.00  0.00    +0.000 C 
BRANCH  17  18
ATOM     18  C   UNL     1       9.223  10.335  19.405  0.00  0.00    +0.000 C 
BRANCH  18  23
ATOM     19  C   UNL     1      11.857  13.128  19.714  0.00  0.00    +0.000 C 
ATOM     20  C   UNL     1      12.328  13.108  18.248  0.00  0.00    +0.000 C 
ATOM     21  C   UNL     1      11.130  12.897  17.315  0.00  0.00    +0.000 C 
ATOM     22  C   UNL     1      10.452  11.570  17.666  0.00  0.00    +0.000 C 
ATOM     23  N   UNL     1       9.995  11.565  19.077  0.00  0.00    +0.000 NA
ATOM     24  C   UNL     1      11.120  11.800  20.016  0.00  0.00    +0.000 C 
BRANCH  19  26
ATOM     25  O   UNL     1      10.656  15.096  19.087  0.00  0.00    +0.000 OA
ATOM     26  C   UNL     1      11.022  14.369  19.996  0.00  0.00    +0.000 C 
BRANCH  26  27
ATOM     27  O   UNL     1      10.659  14.663  21.262  0.00  0.00    +0.000 OA
ATOM     28  H   UNL     1      10.254  14.006  21.849  0.00  0.00    +0.000 HD
ENDBRANCH  26  27
ENDBRANCH  19  26
ENDBRANCH  18  23
ENDBRANCH  17  18
ENDBRANCH  16  17
ENDBRANCH   1  16
TORSDOF 8
ENDMDL
MODEL 7
REMARK VINA RESULT:      -7.0      4.163      8.186
REMARK  Name = 
REMARK  8 active torsions:
REMARK  status: ('A' for Active; 'I' for Inactive)
REMARK    1  A    between atoms: C_2  and  O_3
REMARK    2  A    between atoms: C_2  and  C_4
REMARK    3  A    between atoms: N_8  and  C_9
REMARK    4  A    between atoms: C_9  and  C_10
REMARK    5  A    between atoms: C_10  and  O_11
REMARK    6  A    between atoms: O_11  and  N_12
REMARK    7  A    between atoms: C_13  and  C_14
REMARK    8  A    between atoms: C_18  and  C_19
REMARK                            x       y       z     vdW  Elec       q    Type
REMARK                         _______ _______ _______ _____ _____    ______ ____
ROOT
ATOM      1  N   UNL     1       2.209   6.608  18.182  0.00  0.00    +0.000 NA
ATOM      2  C   UNL     1       2.843   6.355  19.273  0.00  0.00    +0.000 C 
ENDROOT
BRANCH   2   3
ATOM      3  C   UNL     1       3.116   4.953  19.649  0.00  0.00    +0.000 A 
ATOM      4  S   UNL     1       2.298   4.178  20.900  0.00  0.00    +0.000 S 
ATOM      5  C   UNL     1       3.103   2.718  20.780  0.00  0.00    +0.000 A 
ATOM      6  C   UNL     1       4.016   2.803  19.741  0.00  0.00    +0.000 A 
ATOM      7  C   UNL     1       4.050   4.052  19.079  0.00  0.00    +0.000 A 
BRANCH   7   8
ATOM      8  C   UNL     1       4.923   4.331  17.879  0.00  0.00    +0.000 A 
ATOM      9  C   UNL     1       4.479   3.944  16.592  0.00  0.00    +0.000 A 
ATOM     10  C   UNL     1       5.242   4.182  15.451  0.00  0.00    +0.000 A 
ATOM     11  C   UNL     1       6.484   4.795  15.555  0.00  0.00    +0.000 A 
ATOM     12 CL   UNL     1       7.439   5.095  14.115  0.00  0.00    +0.000 Cl
ATOM     13  C   UNL     1       6.967   5.168  16.808  0.00  0.00    +0.000 A 
ATOM     14  C   UNL     1       6.212   4.945  17.967  0.00  0.00    +0.000 A 
ATOM     15 CL   UNL     1       6.934   5.527  19.463  0.00  0.00    +0.000 Cl
ENDBRANCH   7   8
ENDBRANCH   2   3
BRANCH   1  16
ATOM     16  O   UNL     1       2.098   7.841  17.739  0.00  0.00    +0.000 OA
BRANCH  16  17
ATOM     17  C   UNL     1       1.855   8.853  18.642  0.00  0.00    +0.000 C 
BRANCH  17  18
ATOM     18  C   UNL     1       0.784   9.835  18.131  0.00  0.00    +0.000 C 
BRANCH  18  23
ATOM     19  C   UNL     1       0.095  11.900  21.308  0.00  0.00    +0.000 C 
ATOM     20  C   UNL     1      -1.029  12.776  20.725  0.00  0.00    +0.000 C 
ATOM     21  C   UNL     1      -1.925  11.939  19.806  0.00  0.00    +0.000 C 
ATOM     22  C   UNL     1      -1.074  11.357  18.675  0.00  0.00    +0.000 C 
ATOM     23  N   UNL     1       0.020  10.512  19.215  0.00  0.00    +0.000 NA
ATOM     24  C   UNL     1       0.895  11.277  20.138  0.00  0.00    +0.000 C 
BRANCH  19  26
ATOM     25  O   UNL     1      -0.971  11.223  23.335  0.00  0.00    +0.000 OA
ATOM     26  C   UNL     1      -0.470  10.874  22.279  0.00  0.00    +0.000 C 
BRANCH  26  27
ATOM     27  O   UNL     1      -0.441   9.562  21.964  0.00  0.00    +0.000 OA
ATOM     28  H   UNL     1       0.326   9.148  21.540  0.00  0.00    +0.000 HD
ENDBRANCH  26  27
ENDBRANCH  19  26
ENDBRANCH  18  23
ENDBRANCH  17  18
ENDBRANCH  16  17
ENDBRANCH   1  16
TORSDOF 8
ENDMDL
MODEL 8
REMARK VINA RESULT:      -7.0      4.729      8.020
REMARK  Name = 
REMARK  8 active torsions:
REMARK  status: ('A' for Active; 'I' for Inactive)
REMARK    1  A    between atoms: C_2  and  O_3
REMARK    2  A    between atoms: C_2  and  C_4
REMARK    3  A    between atoms: N_8  and  C_9
REMARK    4  A    between atoms: C_9  and  C_10
REMARK    5  A    between atoms: C_10  and  O_11
REMARK    6  A    between atoms: O_11  and  N_12
REMARK    7  A    between atoms: C_13  and  C_14
REMARK    8  A    between atoms: C_18  and  C_19
REMARK                            x       y       z     vdW  Elec       q    Type
REMARK                         _______ _______ _______ _____ _____    ______ ____
ROOT
ATOM      1  N   UNL     1       2.613   6.949  18.289  0.00  0.00    +0.000 NA
ATOM      2  C   UNL     1       3.166   6.548  19.379  0.00  0.00    +0.000 C 
ENDROOT
BRANCH   2   3
ATOM      3  C   UNL     1       3.260   5.101  19.660  0.00  0.00    +0.000 A 
ATOM      4  S   UNL     1       2.363   4.357  20.876  0.00  0.00    +0.000 S 
ATOM      5  C   UNL     1       2.970   2.817  20.647  0.00  0.00    +0.000 A 
ATOM      6  C   UNL     1       3.874   2.852  19.597  0.00  0.00    +0.000 A 
ATOM      7  C   UNL     1       4.062   4.127  19.015  0.00  0.00    +0.000 A 
BRANCH   7   8
ATOM      8  C   UNL     1       4.950   4.369  17.819  0.00  0.00    +0.000 A 
ATOM      9  C   UNL     1       4.505   3.977  16.533  0.00  0.00    +0.000 A 
ATOM     10  C   UNL     1       5.281   4.182  15.395  0.00  0.00    +0.000 A 
ATOM     11  C   UNL     1       6.537   4.766  15.499  0.00  0.00    +0.000 A 
ATOM     12 CL   UNL     1       7.508   5.024  14.062  0.00  0.00    +0.000 Cl
ATOM     13  C   UNL     1       7.020   5.142  16.751  0.00  0.00    +0.000 A 
ATOM     14  C   UNL     1       6.252   4.953  17.908  0.00  0.00    +0.000 A 
ATOM     15 CL   UNL     1       6.979   5.536  19.401  0.00  0.00    +0.000 Cl
ENDBRANCH   7   8
ENDBRANCH   2   3
BRANCH   1  16
ATOM     16  O   UNL     1       2.664   8.214  17.936  0.00  0.00    +0.000 OA
BRANCH  16  17
ATOM     17  C   UNL     1       1.487   8.922  17.820  0.00  0.00    +0.000 C 
BRANCH  17  18
ATOM     18  C   UNL     1       1.468  10.161  18.736  0.00  0.00    +0.000 C 
BRANCH  18  23
ATOM     19  C   UNL     1      -2.229  11.217  18.963  0.00  0.00    +0.000 C 
ATOM     20  C   UNL     1      -1.988  12.639  19.501  0.00  0.00    +0.000 C 
ATOM     21  C   UNL     1      -0.762  13.257  18.818  0.00  0.00    +0.000 C 
ATOM     22  C   UNL     1       0.460  12.378  19.095  0.00  0.00    +0.000 C 
ATOM     23  N   UNL     1       0.246  11.000  18.590  0.00  0.00    +0.000 NA
ATOM     24  C   UNL     1      -0.952  10.373  19.201  0.00  0.00    +0.000 C 
BRANCH  19  26
ATOM     25  O   UNL     1      -3.773  11.688  17.203  0.00  0.00    +0.000 OA
ATOM     26  C   UNL     1      -2.674  11.258  17.508  0.00  0.00    +0.000 C 
BRANCH  26  27
ATOM     27  O   UNL     1      -1.837  10.837  16.536  0.00  0.00    +0.000 OA
ATOM     28  H   UNL     1      -2.093  10.829  15.601  0.00  0.00    +0.000 HD
ENDBRANCH  26  27
ENDBRANCH  19  26
ENDBRANCH  18  23
ENDBRANCH  17  18
ENDBRANCH  16  17
ENDBRANCH   1  16
TORSDOF 8
ENDMDL
MODEL 9
REMARK VINA RESULT:      -7.0      4.611      7.811
REMARK  Name = 
REMARK  8 active torsions:
REMARK  status: ('A' for Active; 'I' for Inactive)
REMARK    1  A    between atoms: C_2  and  O_3
REMARK    2  A    between atoms: C_2  and  C_4
REMARK    3  A    between atoms: N_8  and  C_9
REMARK    4  A    between atoms: C_9  and  C_10
REMARK    5  A    between atoms: C_10  and  O_11
REMARK    6  A    between atoms: O_11  and  N_12
REMARK    7  A    between atoms: C_13  and  C_14
REMARK    8  A    between atoms: C_18  and  C_19
REMARK                            x       y       z     vdW  Elec       q    Type
REMARK                         _______ _______ _______ _____ _____    ______ ____
ROOT
ATOM      1  N   UNL     1       2.263   7.040  20.140  0.00  0.00    +0.000 NA
ATOM      2  C   UNL     1       2.806   6.252  19.280  0.00  0.00    +0.000 C 
ENDROOT
BRANCH   2   3
ATOM      3  C   UNL     1       3.119   4.860  19.662  0.00  0.00    +0.000 A 
ATOM      4  S   UNL     1       2.322   4.067  20.916  0.00  0.00    +0.000 S 
ATOM      5  C   UNL     1       3.167   2.630  20.801  0.00  0.00    +0.000 A 
ATOM      6  C   UNL     1       4.078   2.736  19.763  0.00  0.00    +0.000 A 
ATOM      7  C   UNL     1       4.077   3.983  19.096  0.00  0.00    +0.000 A 
BRANCH   7   8
ATOM      8  C   UNL     1       4.943   4.281  17.896  0.00  0.00    +0.000 A 
ATOM      9  C   UNL     1       4.501   3.896  16.608  0.00  0.00    +0.000 A 
ATOM     10  C   UNL     1       5.257   4.151  15.466  0.00  0.00    +0.000 A 
ATOM     11  C   UNL     1       6.491   4.782  15.570  0.00  0.00    +0.000 A 
ATOM     12 CL   UNL     1       7.437   5.104  14.129  0.00  0.00    +0.000 Cl
ATOM     13  C   UNL     1       6.971   5.154  16.824  0.00  0.00    +0.000 A 
ATOM     14  C   UNL     1       6.223   4.914  17.983  0.00  0.00    +0.000 A 
ATOM     15 CL   UNL     1       6.941   5.499  19.481  0.00  0.00    +0.000 Cl
ENDBRANCH   7   8
ENDBRANCH   2   3
BRANCH   1  16
ATOM     16  O   UNL     1       1.823   8.225  19.781  0.00  0.00    +0.000 OA
BRANCH  16  17
ATOM     17  C   UNL     1       1.986   8.629  18.473  0.00  0.00    +0.000 C 
BRANCH  17  18
ATOM     18  C   UNL     1       0.806   9.490  17.985  0.00  0.00    +0.000 C 
BRANCH  18  23
ATOM     19  C   UNL     1       0.512  12.954  19.644  0.00  0.00    +0.000 C 
ATOM     20  C   UNL     1       1.998  13.340  19.543  0.00  0.00    +0.000 C 
ATOM     21  C   UNL     1       2.573  12.866  18.203  0.00  0.00    +0.000 C 
ATOM     22  C   UNL     1       2.419  11.346  18.104  0.00  0.00    +0.000 C 
ATOM     23  N   UNL     1       0.993  10.951  18.205  0.00  0.00    +0.000 NA
ATOM     24  C   UNL     1       0.385  11.419  19.475  0.00  0.00    +0.000 C 
BRANCH  19  26
ATOM     25  O   UNL     1      -0.417  14.962  18.745  0.00  0.00    +0.000 OA
ATOM     26  C   UNL     1      -0.322  13.750  18.651  0.00  0.00    +0.000 C 
BRANCH  26  27
ATOM     27  O   UNL     1      -0.948  13.116  17.637  0.00  0.00    +0.000 OA
ATOM     28  H   UNL     1      -0.589  12.313  17.229  0.00  0.00    +0.000 HD
ENDBRANCH  26  27
ENDBRANCH  19  26
ENDBRANCH  18  23
ENDBRANCH  17  18
ENDBRANCH  16  17
ENDBRANCH   1  16
TORSDOF 8
ENDMDL
