MODEL 1
REMARK VINA RESULT:      -8.1      0.000      0.000
REMARK  Name = 
REMARK  4 active torsions:
REMARK  status: ('A' for Active; 'I' for Inactive)
REMARK    1  A    between atoms: C_1  and  C_2
REMARK    2  A    between atoms: C_5  and  C_6
REMARK    3  A    between atoms: N_11  and  C_12
REMARK    4  A    between atoms: C_12  and  C_13
REMARK                            x       y       z     vdW  Elec       q    Type
REMARK                         _______ _______ _______ _____ _____    ______ ____
ROOT
ATOM      1  C   UNL     1      -0.616  10.902  22.498  0.00  0.00    +0.000 A 
ATOM      2  N   UNL     1      -0.038  10.031  23.348  0.00  0.00    +0.000 NA
ATOM      3  O   UNL     1       0.641   9.113  22.560  0.00  0.00    +0.000 OA
ATOM      4  C   UNL     1       0.477   9.432  21.254  0.00  0.00    +0.000 A 
ATOM      5  C   UNL     1       1.040   8.830  20.137  0.00  0.00    +0.000 A 
ATOM      6  N   UNL     1       1.906   7.749  20.247  0.00  0.00    +0.000 N 
ATOM      7  N   UNL     1       0.734   9.388  18.940  0.00  0.00    +0.000 NA
ATOM      8  C   UNL     1      -0.089  10.460  18.915  0.00  0.00    +0.000 A 
ATOM      9  N   UNL     1      -0.654  11.096  19.954  0.00  0.00    +0.000 NA
ATOM     10  C   UNL     1      -0.327  10.543  21.149  0.00  0.00    +0.000 A 
ATOM     11  H   UNL     1       1.401   6.918  20.545  0.00  0.00    +0.000 HD
ENDROOT
BRANCH   1  16
ATOM     12  C   UNL     1      -3.556  15.426  24.584  0.00  0.00    +0.000 C 
ATOM     13  C   UNL     1      -2.819  14.251  24.011  0.00  0.00    +0.000 A 
ATOM     14  C   UNL     1      -3.410  12.986  23.947  0.00  0.00    +0.000 A 
ATOM     15  C   UNL     1      -2.699  11.897  23.432  0.00  0.00    +0.000 A 
ATOM     16  C   UNL     1      -1.382  12.052  22.979  0.00  0.00    +0.000 A 
ATOM     17  C   UNL     1      -0.801  13.326  23.029  0.00  0.00    +0.000 A 
ATOM     18  C   UNL     1      -1.513  14.415  23.540  0.00  0.00    +0.000 A 
ENDBRANCH   1  16
BRANCH   6  19
ATOM     19  C   UNL     1       2.788   7.498  19.119  0.00  0.00    +0.000 C 
BRANCH  19  20
ATOM     20  C   UNL     1       2.971   6.002  18.924  0.00  0.00    +0.000 A 
ATOM     21  C   UNL     1       2.097   5.299  18.080  0.00  0.00    +0.000 A 
ATOM     22  C   UNL     1       2.251   3.922  17.879  0.00  0.00    +0.000 A 
ATOM     23  C   UNL     1       3.287   3.240  18.514  0.00  0.00    +0.000 A 
ATOM     24 CL   UNL     1       3.454   1.541  18.294  0.00  0.00    +0.000 Cl
ATOM     25  C   UNL     1       4.187   3.923  19.323  0.00  0.00    +0.000 A 
ATOM     26  C   UNL     1       4.038   5.300  19.515  0.00  0.00    +0.000 A 
ENDBRANCH  19  20
ENDBRANCH   6  19
TORSDOF 3
ENDMDL
MODEL 2
REMARK VINA RESULT:      -7.9      0.698      1.223
REMARK  Name = 
REMARK  4 active torsions:
REMARK  status: ('A' for Active; 'I' for Inactive)
REMARK    1  A    between atoms: C_1  and  C_2
REMARK    2  A    between atoms: C_5  and  C_6
REMARK    3  A    between atoms: N_11  and  C_12
REMARK    4  A    between atoms: C_12  and  C_13
REMARK                            x       y       z     vdW  Elec       q    Type
REMARK                         _______ _______ _______ _____ _____    ______ ____
ROOT
ATOM      1  C   UNL     1      -0.902  11.131  22.655  0.00  0.00    +0.000 A 
ATOM      2  N   UNL     1      -0.316  10.244  23.483  0.00  0.00    +0.000 NA
ATOM      3  O   UNL     1       0.342   9.331  22.671  0.00  0.00    +0.000 OA
ATOM      4  C   UNL     1       0.158   9.669  21.373  0.00  0.00    +0.000 A 
ATOM      5  C   UNL     1       0.698   9.079  20.237  0.00  0.00    +0.000 A 
ATOM      6  N   UNL     1       1.556   7.990  20.318  0.00  0.00    +0.000 N 
ATOM      7  N   UNL     1       0.375   9.655  19.054  0.00  0.00    +0.000 NA
ATOM      8  C   UNL     1      -0.440  10.734  19.058  0.00  0.00    +0.000 A 
ATOM      9  N   UNL     1      -0.982  11.360  20.115  0.00  0.00    +0.000 NA
ATOM     10  C   UNL     1      -0.639  10.788  21.297  0.00  0.00    +0.000 A 
ATOM     11  H   UNL     1       1.050   7.158  20.614  0.00  0.00    +0.000 HD
ENDROOT
BRANCH   1  16
ATOM     12  C   UNL     1      -3.940  15.699  24.488  0.00  0.00    +0.000 C 
ATOM     13  C   UNL     1      -3.128  14.516  24.046  0.00  0.00    +0.000 A 
ATOM     14  C   UNL     1      -1.783  14.652  23.693  0.00  0.00    +0.000 A 
ATOM     15  C   UNL     1      -1.049  13.542  23.260  0.00  0.00    +0.000 A 
ATOM     16  C   UNL     1      -1.650  12.280  23.165  0.00  0.00    +0.000 A 
ATOM     17  C   UNL     1      -2.995  12.146  23.537  0.00  0.00    +0.000 A 
ATOM     18  C   UNL     1      -3.727  13.255  23.974  0.00  0.00    +0.000 A 
ENDBRANCH   1  16
BRANCH   6  19
ATOM     19  C   UNL     1       2.417   7.747  19.172  0.00  0.00    +0.000 C 
BRANCH  19  20
ATOM     20  C   UNL     1       2.583   6.253  18.952  0.00  0.00    +0.000 A 
ATOM     21  C   UNL     1       3.214   5.787  17.787  0.00  0.00    +0.000 A 
ATOM     22  C   UNL     1       3.384   4.416  17.567  0.00  0.00    +0.000 A 
ATOM     23  C   UNL     1       2.934   3.499  18.515  0.00  0.00    +0.000 A 
ATOM     24 CL   UNL     1       3.112   1.812  18.225  0.00  0.00    +0.000 Cl
ATOM     25  C   UNL     1       2.341   3.940  19.692  0.00  0.00    +0.000 A 
ATOM     26  C   UNL     1       2.181   5.310  19.915  0.00  0.00    +0.000 A 
ENDBRANCH  19  20
ENDBRANCH   6  19
TORSDOF 3
ENDMDL
MODEL 3
REMARK VINA RESULT:      -7.8      1.067      1.145
REMARK  Name = 
REMARK  4 active torsions:
REMARK  status: ('A' for Active; 'I' for Inactive)
REMARK    1  A    between atoms: C_1  and  C_2
REMARK    2  A    between atoms: C_5  and  C_6
REMARK    3  A    between atoms: N_11  and  C_12
REMARK    4  A    between atoms: C_12  and  C_13
REMARK                            x       y       z     vdW  Elec       q    Type
REMARK                         _______ _______ _______ _____ _____    ______ ____
ROOT
ATOM      1  C   UNL     1      -0.744  11.356  22.238  0.00  0.00    +0.000 A 
ATOM      2  N   UNL     1      -0.021  10.461  22.939  0.00  0.00    +0.000 NA
ATOM      3  O   UNL     1       0.615   9.657  22.003  0.00  0.00    +0.000 OA
ATOM      4  C   UNL     1       0.280  10.068  20.756  0.00  0.00    +0.000 A 
ATOM      5  C   UNL     1       0.744   9.597  19.534  0.00  0.00    +0.000 A 
ATOM      6  N   UNL     1       1.678   8.573  19.452  0.00  0.00    +0.000 N 
ATOM      7  N   UNL     1       0.268  10.228  18.433  0.00  0.00    +0.000 NA
ATOM      8  C   UNL     1      -0.615  11.240  18.594  0.00  0.00    +0.000 A 
ATOM      9  N   UNL     1      -1.090  11.750  19.741  0.00  0.00    +0.000 NA
ATOM     10  C   UNL     1      -0.594  11.127  20.839  0.00  0.00    +0.000 A 
ATOM     11  H   UNL     1       1.261   7.688  19.731  0.00  0.00    +0.000 HD
ENDROOT
BRANCH   1  16
ATOM     12  C   UNL     1      -3.699  15.467  25.033  0.00  0.00    +0.000 C 
ATOM     13  C   UNL     1      -2.959  14.404  24.277  0.00  0.00    +0.000 A 
ATOM     14  C   UNL     1      -3.540  13.159  24.021  0.00  0.00    +0.000 A 
ATOM     15  C   UNL     1      -2.826  12.171  23.335  0.00  0.00    +0.000 A 
ATOM     16  C   UNL     1      -1.514  12.408  22.901  0.00  0.00    +0.000 A 
ATOM     17  C   UNL     1      -0.943  13.664  23.144  0.00  0.00    +0.000 A 
ATOM     18  C   UNL     1      -1.659  14.653  23.826  0.00  0.00    +0.000 A 
ENDBRANCH   1  16
BRANCH   6  19
ATOM     19  C   UNL     1       2.436   8.474  18.216  0.00  0.00    +0.000 C 
BRANCH  19  20
ATOM     20  C   UNL     1       2.899   7.042  18.002  0.00  0.00    +0.000 A 
ATOM     21  C   UNL     1       2.083   5.978  18.416  0.00  0.00    +0.000 A 
ATOM     22  C   UNL     1       2.486   4.652  18.222  0.00  0.00    +0.000 A 
ATOM     23  C   UNL     1       3.704   4.380  17.603  0.00  0.00    +0.000 A 
ATOM     24 CL   UNL     1       4.215   2.749  17.398  0.00  0.00    +0.000 Cl
ATOM     25  C   UNL     1       4.510   5.418  17.151  0.00  0.00    +0.000 A 
ATOM     26  C   UNL     1       4.101   6.742  17.336  0.00  0.00    +0.000 A 
ENDBRANCH  19  20
ENDBRANCH   6  19
TORSDOF 3
ENDMDL
MODEL 4
REMARK VINA RESULT:      -7.7      3.624      9.422
REMARK  Name = 
REMARK  4 active torsions:
REMARK  status: ('A' for Active; 'I' for Inactive)
REMARK    1  A    between atoms: C_1  and  C_2
REMARK    2  A    between atoms: C_5  and  C_6
REMARK    3  A    between atoms: N_11  and  C_12
REMARK    4  A    between atoms: C_12  and  C_13
REMARK                            x       y       z     vdW  Elec       q    Type
REMARK                         _______ _______ _______ _____ _____    ______ ____
ROOT
ATOM      1  C   UNL     1       2.111   8.272  18.339  0.00  0.00    +0.000 A 
ATOM      2  N   UNL     1       1.840   9.267  17.471  0.00  0.00    +0.000 NA
ATOM      3  O   UNL     1       1.138  10.226  18.189  0.00  0.00    +0.000 OA
ATOM      4  C   UNL     1       0.994   9.812  19.470  0.00  0.00    +0.000 A 
ATOM      5  C   UNL     1       0.426  10.490  20.542  0.00  0.00    +0.000 A 
ATOM      6  N   UNL     1      -0.096  11.770  20.403  0.00  0.00    +0.000 N 
ATOM      7  N   UNL     1       0.454   9.849  21.736  0.00  0.00    +0.000 NA
ATOM      8  C   UNL     1       1.010   8.618  21.799  0.00  0.00    +0.000 A 
ATOM      9  N   UNL     1       1.586   7.916  20.810  0.00  0.00    +0.000 NA
ATOM     10  C   UNL     1       1.570   8.572  19.622  0.00  0.00    +0.000 A 
ATOM     11  H   UNL     1      -0.952  11.748  19.854  0.00  0.00    +0.000 HD
ENDROOT
BRANCH   1  16
ATOM     12  C   UNL     1       5.135   3.665  16.581  0.00  0.00    +0.000 C 
ATOM     13  C   UNL     1       4.355   4.848  17.076  0.00  0.00    +0.000 A 
ATOM     14  C   UNL     1       3.104   4.690  17.679  0.00  0.00    +0.000 A 
ATOM     15  C   UNL     1       2.381   5.806  18.112  0.00  0.00    +0.000 A 
ATOM     16  C   UNL     1       2.892   7.100  17.942  0.00  0.00    +0.000 A 
ATOM     17  C   UNL     1       4.155   7.251  17.353  0.00  0.00    +0.000 A 
ATOM     18  C   UNL     1       4.879   6.135  16.924  0.00  0.00    +0.000 A 
ENDBRANCH   1  16
BRANCH   6  19
ATOM     19  C   UNL     1      -0.225  12.559  21.616  0.00  0.00    +0.000 C 
BRANCH  19  20
ATOM     20  C   UNL     1      -1.688  12.666  22.015  0.00  0.00    +0.000 A 
ATOM     21  C   UNL     1      -2.088  12.278  23.304  0.00  0.00    +0.000 A 
ATOM     22  C   UNL     1      -3.428  12.374  23.695  0.00  0.00    +0.000 A 
ATOM     23  C   UNL     1      -4.378  12.869  22.803  0.00  0.00    +0.000 A 
ATOM     24 CL   UNL     1      -6.031  12.953  23.274  0.00  0.00    +0.000 Cl
ATOM     25  C   UNL     1      -3.998  13.294  21.536  0.00  0.00    +0.000 A 
ATOM     26  C   UNL     1      -2.657  13.207  21.150  0.00  0.00    +0.000 A 
ENDBRANCH  19  20
ENDBRANCH   6  19
TORSDOF 3
ENDMDL
MODEL 5
REMARK VINA RESULT:      -7.5      3.824      9.470
REMARK  Name = 
REMARK  4 active torsions:
REMARK  status: ('A' for Active; 'I' for Inactive)
REMARK    1  A    between atoms: C_1  and  C_2
REMARK    2  A    between atoms: C_5  and  C_6
REMARK    3  A    between atoms: N_11  and  C_12
REMARK    4  A    between atoms: C_12  and  C_13
REMARK                            x       y       z     vdW  Elec       q    Type
REMARK                         _______ _______ _______ _____ _____    ______ ____
ROOT
ATOM      1  C   UNL     1       1.142   9.026  19.491  0.00  0.00    +0.000 A 
ATOM      2  N   UNL     1       0.534   9.842  18.608  0.00  0.00    +0.000 NA
ATOM      3  O   UNL     1      -0.269  10.692  19.355  0.00  0.00    +0.000 OA
ATOM      4  C   UNL     1      -0.141  10.392  20.670  0.00  0.00    +0.000 A 
ATOM      5  C   UNL     1      -0.702  11.036  21.765  0.00  0.00    +0.000 A 
ATOM      6  N   UNL     1      -1.522  12.148  21.619  0.00  0.00    +0.000 N 
ATOM      7  N   UNL     1      -0.366  10.544  22.983  0.00  0.00    +0.000 NA
ATOM      8  C   UNL     1       0.464   9.479  23.047  0.00  0.00    +0.000 A 
ATOM      9  N   UNL     1       1.050   8.823  22.032  0.00  0.00    +0.000 NA
ATOM     10  C   UNL     1       0.724   9.332  20.818  0.00  0.00    +0.000 A 
ATOM     11  H   UNL     1      -2.414  11.881  21.211  0.00  0.00    +0.000 HD
ENDROOT
BRANCH   1  16
ATOM     12  C   UNL     1       4.849   4.975  17.673  0.00  0.00    +0.000 C 
ATOM     13  C   UNL     1       3.911   6.033  18.176  0.00  0.00    +0.000 A 
ATOM     14  C   UNL     1       3.199   5.863  19.367  0.00  0.00    +0.000 A 
ATOM     15  C   UNL     1       2.312   6.851  19.809  0.00  0.00    +0.000 A 
ATOM     16  C   UNL     1       2.115   8.021  19.063  0.00  0.00    +0.000 A 
ATOM     17  C   UNL     1       2.845   8.194  17.880  0.00  0.00    +0.000 A 
ATOM     18  C   UNL     1       3.735   7.209  17.441  0.00  0.00    +0.000 A 
ENDBRANCH   1  16
BRANCH   6  19
ATOM     19  C   UNL     1      -1.668  13.011  22.779  0.00  0.00    +0.000 C 
BRANCH  19  20
ATOM     20  C   UNL     1      -3.133  13.112  23.171  0.00  0.00    +0.000 A 
ATOM     21  C   UNL     1      -3.999  13.925  22.422  0.00  0.00    +0.000 A 
ATOM     22  C   UNL     1      -5.353  14.027  22.761  0.00  0.00    +0.000 A 
ATOM     23  C   UNL     1      -5.854  13.310  23.846  0.00  0.00    +0.000 A 
ATOM     24 CL   UNL     1      -7.511  13.465  24.283  0.00  0.00    +0.000 Cl
ATOM     25  C   UNL     1      -5.022  12.470  24.577  0.00  0.00    +0.000 A 
ATOM     26  C   UNL     1      -3.672  12.362  24.232  0.00  0.00    +0.000 A 
ENDBRANCH  19  20
ENDBRANCH   6  19
TORSDOF 3
ENDMDL
MODEL 6
REMARK VINA RESULT:      -7.5      3.625      9.414
REMARK  Name = 
REMARK  4 active torsions:
REMARK  status: ('A' for Active; 'I' for Inactive)
REMARK    1  A    between atoms: C_1  and  C_2
REMARK    2  A    between atoms: C_5  and  C_6
REMARK    3  A    between atoms: N_11  and  C_12
REMARK    4  A    between atoms: C_12  and  C_13
REMARK                            x       y       z     vdW  Elec       q    Type
REMARK                         _______ _______ _______ _____ _____    ______ ____
ROOT
ATOM      1  C   UNL     1       2.066   8.377  18.359  0.00  0.00    +0.000 A 
ATOM      2  N   UNL     1       1.799   9.391  17.513  0.00  0.00    +0.000 NA
ATOM      3  O   UNL     1       1.107  10.340  18.253  0.00  0.00    +0.000 OA
ATOM      4  C   UNL     1       0.967   9.902  19.527  0.00  0.00    +0.000 A 
ATOM      5  C   UNL     1       0.410  10.563  20.615  0.00  0.00    +0.000 A 
ATOM      6  N   UNL     1      -0.103  11.849  20.505  0.00  0.00    +0.000 N 
ATOM      7  N   UNL     1       0.440   9.898  21.796  0.00  0.00    +0.000 NA
ATOM      8  C   UNL     1       0.987   8.662  21.832  0.00  0.00    +0.000 A 
ATOM      9  N   UNL     1       1.553   7.976  20.826  0.00  0.00    +0.000 NA
ATOM     10  C   UNL     1       1.535   8.656  19.651  0.00  0.00    +0.000 A 
ATOM     11  H   UNL     1      -0.962  11.843  19.960  0.00  0.00    +0.000 HD
ENDROOT
BRANCH   1  16
ATOM     12  C   UNL     1       5.178   3.732  16.875  0.00  0.00    +0.000 C 
ATOM     13  C   UNL     1       4.368   4.947  17.220  0.00  0.00    +0.000 A 
ATOM     14  C   UNL     1       4.871   6.235  17.017  0.00  0.00    +0.000 A 
ATOM     15  C   UNL     1       4.110   7.356  17.368  0.00  0.00    +0.000 A 
ATOM     16  C   UNL     1       2.837   7.208  17.935  0.00  0.00    +0.000 A 
ATOM     17  C   UNL     1       2.331   5.914  18.120  0.00  0.00    +0.000 A 
ATOM     18  C   UNL     1       3.089   4.794  17.766  0.00  0.00    +0.000 A 
ENDBRANCH   1  16
BRANCH   6  19
ATOM     19  C   UNL     1      -0.221  12.615  21.734  0.00  0.00    +0.000 C 
BRANCH  19  20
ATOM     20  C   UNL     1      -1.681  12.724  22.143  0.00  0.00    +0.000 A 
ATOM     21  C   UNL     1      -2.613  13.280  21.251  0.00  0.00    +0.000 A 
ATOM     22  C   UNL     1      -3.963  13.384  21.603  0.00  0.00    +0.000 A 
ATOM     23  C   UNL     1      -4.394  12.924  22.846  0.00  0.00    +0.000 A 
ATOM     24 CL   UNL     1      -6.049  13.086  23.291  0.00  0.00    +0.000 Cl
ATOM     25  C   UNL     1      -3.496  12.336  23.728  0.00  0.00    +0.000 A 
ATOM     26  C   UNL     1      -2.149  12.224  23.371  0.00  0.00    +0.000 A 
ENDBRANCH  19  20
ENDBRANCH   6  19
TORSDOF 3
ENDMDL
MODEL 7
REMARK VINA RESULT:      -7.4      3.853      9.561
REMARK  Name = 
REMARK  4 active torsions:
REMARK  status: ('A' for Active; 'I' for Inactive)
REMARK    1  A    between atoms: C_1  and  C_2
REMARK    2  A    between atoms: C_5  and  C_6
REMARK    3  A    between atoms: N_11  and  C_12
REMARK    4  A    between atoms: C_12  and  C_13
REMARK                            x       y       z     vdW  Elec       q    Type
REMARK                         _______ _______ _______ _____ _____    ______ ____
ROOT
ATOM      1  C   UNL     1       1.065   9.133  19.525  0.00  0.00    +0.000 A 
ATOM      2  N   UNL     1       0.496   9.995  18.659  0.00  0.00    +0.000 NA
ATOM      3  O   UNL     1      -0.291  10.847  19.422  0.00  0.00    +0.000 OA
ATOM      4  C   UNL     1      -0.191  10.502  20.728  0.00  0.00    +0.000 A 
ATOM      5  C   UNL     1      -0.749  11.128  21.836  0.00  0.00    +0.000 A 
ATOM      6  N   UNL     1      -1.530  12.270  21.713  0.00  0.00    +0.000 N 
ATOM      7  N   UNL     1      -0.446  10.588  23.042  0.00  0.00    +0.000 NA
ATOM      8  C   UNL     1       0.349   9.496  23.083  0.00  0.00    +0.000 A 
ATOM      9  N   UNL     1       0.929   8.853  22.057  0.00  0.00    +0.000 NA
ATOM     10  C   UNL     1       0.637   9.411  20.855  0.00  0.00    +0.000 A 
ATOM     11  H   UNL     1      -2.425  12.045  21.284  0.00  0.00    +0.000 HD
ENDROOT
BRANCH   1  16
ATOM     12  C   UNL     1       4.948   5.171  17.884  0.00  0.00    +0.000 C 
ATOM     13  C   UNL     1       3.918   6.190  18.277  0.00  0.00    +0.000 A 
ATOM     14  C   UNL     1       3.697   7.332  17.504  0.00  0.00    +0.000 A 
ATOM     15  C   UNL     1       2.749   8.283  17.898  0.00  0.00    +0.000 A 
ATOM     16  C   UNL     1       2.012   8.111  19.078  0.00  0.00    +0.000 A 
ATOM     17  C   UNL     1       2.226   6.955  19.841  0.00  0.00    +0.000 A 
ATOM     18  C   UNL     1       3.170   6.003  19.444  0.00  0.00    +0.000 A 
ENDBRANCH   1  16
BRANCH   6  19
ATOM     19  C   UNL     1      -1.667  13.101  22.898  0.00  0.00    +0.000 C 
BRANCH  19  20
ATOM     20  C   UNL     1      -3.136  13.265  23.252  0.00  0.00    +0.000 A 
ATOM     21  C   UNL     1      -3.741  12.365  24.144  0.00  0.00    +0.000 A 
ATOM     22  C   UNL     1      -5.090  12.502  24.490  0.00  0.00    +0.000 A 
ATOM     23  C   UNL     1      -5.842  13.546  23.956  0.00  0.00    +0.000 A 
ATOM     24 CL   UNL     1      -7.510  13.691  24.355  0.00  0.00    +0.000 Cl
ATOM     25  C   UNL     1      -5.253  14.471  23.102  0.00  0.00    +0.000 A 
ATOM     26  C   UNL     1      -3.903  14.339  22.764  0.00  0.00    +0.000 A 
ENDBRANCH  19  20
ENDBRANCH   6  19
TORSDOF 3
ENDMDL
MODEL 8
REMARK VINA RESULT:      -7.4      3.861      9.535
REMARK  Name = 
REMARK  4 active torsions:
REMARK  status: ('A' for Active; 'I' for Inactive)
REMARK    1  A    between atoms: C_1  and  C_2
REMARK    2  A    between atoms: C_5  and  C_6
REMARK    3  A    between atoms: N_11  and  C_12
REMARK    4  A    between atoms: C_12  and  C_13
REMARK                            x       y       z     vdW  Elec       q    Type
REMARK                         _______ _______ _______ _____ _____    ______ ____
ROOT
ATOM      1  C   UNL     1       0.985   9.415  19.660  0.00  0.00    +0.000 A 
ATOM      2  N   UNL     1       0.573  10.392  18.827  0.00  0.00    +0.000 NA
ATOM      3  O   UNL     1      -0.225  11.237  19.586  0.00  0.00    +0.000 OA
ATOM      4  C   UNL     1      -0.287  10.775  20.858  0.00  0.00    +0.000 A 
ATOM      5  C   UNL     1      -0.909  11.349  21.960  0.00  0.00    +0.000 A 
ATOM      6  N   UNL     1      -1.588  12.557  21.869  0.00  0.00    +0.000 N 
ATOM      7  N   UNL     1      -0.773  10.685  23.134  0.00  0.00    +0.000 NA
ATOM      8  C   UNL     1      -0.069   9.531  23.150  0.00  0.00    +0.000 A 
ATOM      9  N   UNL     1       0.566   8.933  22.130  0.00  0.00    +0.000 NA
ATOM     10  C   UNL     1       0.442   9.613  20.962  0.00  0.00    +0.000 A 
ATOM     11  H   UNL     1      -2.447  12.443  21.336  0.00  0.00    +0.000 HD
ENDROOT
BRANCH   1  16
ATOM     12  C   UNL     1       4.438   5.171  17.783  0.00  0.00    +0.000 C 
ATOM     13  C   UNL     1       3.568   6.279  18.300  0.00  0.00    +0.000 A 
ATOM     14  C   UNL     1       2.915   6.174  19.531  0.00  0.00    +0.000 A 
ATOM     15  C   UNL     1       2.089   7.207  19.987  0.00  0.00    +0.000 A 
ATOM     16  C   UNL     1       1.896   8.361  19.214  0.00  0.00    +0.000 A 
ATOM     17  C   UNL     1       2.567   8.469  17.989  0.00  0.00    +0.000 A 
ATOM     18  C   UNL     1       3.396   7.438  17.537  0.00  0.00    +0.000 A 
ENDBRANCH   1  16
BRANCH   6  19
ATOM     19  C   UNL     1      -1.786  13.292  23.107  0.00  0.00    +0.000 C 
BRANCH  19  20
ATOM     20  C   UNL     1      -3.269  13.393  23.422  0.00  0.00    +0.000 A 
ATOM     21  C   UNL     1      -3.875  12.421  24.234  0.00  0.00    +0.000 A 
ATOM     22  C   UNL     1      -5.238  12.498  24.543  0.00  0.00    +0.000 A 
ATOM     23  C   UNL     1      -6.004  13.552  24.050  0.00  0.00    +0.000 A 
ATOM     24 CL   UNL     1      -7.687  13.625  24.402  0.00  0.00    +0.000 Cl
ATOM     25  C   UNL     1      -5.416  14.546  23.276  0.00  0.00    +0.000 A 
ATOM     26  C   UNL     1      -4.052  14.473  22.976  0.00  0.00    +0.000 A 
ENDBRANCH  19  20
ENDBRANCH   6  19
TORSDOF 3
ENDMDL
MODEL 9
REMARK VINA RESULT:      -7.4      3.484      4.317
REMARK  Name = 
REMARK  4 active torsions:
REMARK  status: ('A' for Active; 'I' for Inactive)
REMARK    1  A    between atoms: C_1  and  C_2
REMARK    2  A    between atoms: C_5  and  C_6
REMARK    3  A    between atoms: N_11  and  C_12
REMARK    4  A    between atoms: C_12  and  C_13
REMARK                            x       y       z     vdW  Elec       q    Type
REMARK                         _______ _______ _______ _____ _____    ______ ____
ROOT
ATOM      1  C   UNL     1      -2.772  10.895  17.861  0.00  0.00    +0.000 A 
ATOM      2  N   UNL     1      -2.691  10.021  16.838  0.00  0.00    +0.000 NA
ATOM      3  O   UNL     1      -1.391   9.536  16.845  0.00  0.00    +0.000 OA
ATOM      4  C   UNL     1      -0.702  10.108  17.861  0.00  0.00    +0.000 A 
ATOM      5  C   UNL     1       0.599   9.858  18.276  0.00  0.00    +0.000 A 
ATOM      6  N   UNL     1       1.400   8.915  17.644  0.00  0.00    +0.000 N 
ATOM      7  N   UNL     1       1.024  10.552  19.360  0.00  0.00    +0.000 NA
ATOM      8  C   UNL     1       0.175  11.429  19.943  0.00  0.00    +0.000 A 
ATOM      9  N   UNL     1      -1.093  11.707  19.602  0.00  0.00    +0.000 NA
ATOM     10  C   UNL     1      -1.517  10.994  18.527  0.00  0.00    +0.000 A 
ATOM     11  H   UNL     1       1.667   9.238  16.717  0.00  0.00    +0.000 HD
ENDROOT
BRANCH   1  16
ATOM     12  C   UNL     1      -7.658  13.738  19.086  0.00  0.00    +0.000 C 
ATOM     13  C   UNL     1      -6.400  12.973  18.796  0.00  0.00    +0.000 A 
ATOM     14  C   UNL     1      -5.383  12.863  19.748  0.00  0.00    +0.000 A 
ATOM     15  C   UNL     1      -4.207  12.165  19.451  0.00  0.00    +0.000 A 
ATOM     16  C   UNL     1      -4.025  11.572  18.194  0.00  0.00    +0.000 A 
ATOM     17  C   UNL     1      -5.056  11.670  17.250  0.00  0.00    +0.000 A 
ATOM     18  C   UNL     1      -6.232  12.364  17.548  0.00  0.00    +0.000 A 
ENDBRANCH   1  16
BRANCH   6  19
ATOM     19  C   UNL     1       2.523   8.393  18.404  0.00  0.00    +0.000 C 
BRANCH  19  20
ATOM     20  C   UNL     1       2.220   6.981  18.878  0.00  0.00    +0.000 A 
ATOM     21  C   UNL     1       2.263   5.916  17.964  0.00  0.00    +0.000 A 
ATOM     22  C   UNL     1       1.995   4.607  18.379  0.00  0.00    +0.000 A 
ATOM     23  C   UNL     1       1.692   4.350  19.714  0.00  0.00    +0.000 A 
ATOM     24 CL   UNL     1       1.328   2.745  20.216  0.00  0.00    +0.000 Cl
ATOM     25  C   UNL     1       1.681   5.384  20.644  0.00  0.00    +0.000 A 
ATOM     26  C   UNL     1       1.959   6.690  20.229  0.00  0.00    +0.000 A 
ENDBRANCH  19  20
ENDBRANCH   6  19
TORSDOF 3
ENDMDL
