MODEL 1
REMARK VINA RESULT:      -6.7      0.000      0.000
REMARK  Name = 
REMARK  13 active torsions:
REMARK  status: ('A' for Active; 'I' for Inactive)
REMARK    1  A    between atoms: C_1  and  N_2
REMARK    2  A    between atoms: N_2  and  C_3
REMARK    3  A    between atoms: N_2  and  C_4
REMARK    4  A    between atoms: C_4  and  C_5
REMARK    5  A    between atoms: C_5  and  O_6
REMARK    6  A    between atoms: O_6  and  C_7
REMARK    7  A    between atoms: C_10  and  C_11
REMARK    8  A    between atoms: C_11  and  C_23
REMARK    9  A    between atoms: C_12  and  C_13
REMARK   10  A    between atoms: C_12  and  C_17
REMARK   11  A    between atoms: C_13  and  C_14
REMARK   12  A    between atoms: C_14  and  C_15
REMARK   13  A    between atoms: C_15  and  O_16
REMARK                            x       y       z     vdW  Elec       q    Type
REMARK                         _______ _______ _______ _____ _____    ______ ____
ROOT
ATOM      1  C   UNL     1       4.062   5.523  17.966  0.00  0.00    +0.000 C 
ATOM      2  C   UNL     1       3.756   4.241  18.316  0.00  0.00    +0.000 C 
ENDROOT
BRANCH   1   6
ATOM      3  C   UNL     1       1.568   8.737  19.366  0.00  0.00    +0.000 A 
ATOM      4  C   UNL     1       2.000   7.724  20.222  0.00  0.00    +0.000 A 
ATOM      5  C   UNL     1       2.813   6.691  19.754  0.00  0.00    +0.000 A 
ATOM      6  C   UNL     1       3.210   6.652  18.416  0.00  0.00    +0.000 A 
ATOM      7  C   UNL     1       2.831   7.697  17.566  0.00  0.00    +0.000 A 
ATOM      8  C   UNL     1       2.011   8.735  18.040  0.00  0.00    +0.000 A 
BRANCH   3   9
ATOM      9  O   UNL     1       0.716   9.761  19.727  0.00  0.00    +0.000 OA
BRANCH   9  10
ATOM     10  C   UNL     1       0.985  10.307  21.027  0.00  0.00    +0.000 C 
BRANCH  10  11
ATOM     11  C   UNL     1      -0.053  11.359  21.450  0.00  0.00    +0.000 C 
BRANCH  11  13
ATOM     12  C   UNL     1      -1.914  11.608  22.972  0.00  0.00    +0.000 C 
ATOM     13  N   UNL     1      -0.526  11.163  22.840  0.00  0.00    +0.000 NA
ATOM     14  C   UNL     1      -0.410   9.772  23.287  0.00  0.00    +0.000 C 
ENDBRANCH  11  13
ENDBRANCH  10  11
ENDBRANCH   9  10
ENDBRANCH   3   9
ENDBRANCH   1   6
BRANCH   2  15
ATOM     15  C   UNL     1       2.499   3.874  19.017  0.00  0.00    +0.000 A 
ATOM     16  C   UNL     1       1.341   3.620  18.269  0.00  0.00    +0.000 A 
ATOM     17  C   UNL     1       0.192   3.127  18.888  0.00  0.00    +0.000 A 
ATOM     18  C   UNL     1       0.186   2.897  20.262  0.00  0.00    +0.000 A 
ATOM     19  C   UNL     1       1.323   3.178  21.021  0.00  0.00    +0.000 A 
ATOM     20  C   UNL     1       2.476   3.667  20.402  0.00  0.00    +0.000 A 
ENDBRANCH   2  15
BRANCH   1  21
ATOM     21  C   UNL     1       5.270   5.808  17.154  0.00  0.00    +0.000 A 
ATOM     22  C   UNL     1       6.349   6.449  17.756  0.00  0.00    +0.000 A 
ATOM     23  C   UNL     1       7.503   6.639  17.016  0.00  0.00    +0.000 A 
ATOM     24  N   UNL     1       7.644   6.247  15.733  0.00  0.00    +0.000 NA
ATOM     25  C   UNL     1       6.586   5.621  15.169  0.00  0.00    +0.000 A 
ATOM     26  C   UNL     1       5.389   5.382  15.831  0.00  0.00    +0.000 A 
ENDBRANCH   1  21
BRANCH   2  27
ATOM     27  C   UNL     1       4.650   3.025  18.094  0.00  0.00    +0.000 C 
BRANCH  27  28
ATOM     28  C   UNL     1       3.878   1.716  17.894  0.00  0.00    +0.000 C 
BRANCH  28  29
ATOM     29  C   UNL     1       4.120   0.728  19.032  0.00  0.00    +0.000 C 
BRANCH  29  30
ATOM     30  O   UNL     1       5.093   1.215  19.945  0.00  0.00    +0.000 OA
ATOM     31  H   UNL     1       5.654   0.467  20.215  0.00  0.00    +0.000 HD
ENDBRANCH  29  30
ENDBRANCH  28  29
ENDBRANCH  27  28
ENDBRANCH   2  27
TORSDOF 11
ENDMDL
MODEL 2
REMARK VINA RESULT:      -6.6      0.391      1.284
REMARK  Name = 
REMARK  13 active torsions:
REMARK  status: ('A' for Active; 'I' for Inactive)
REMARK    1  A    between atoms: C_1  and  N_2
REMARK    2  A    between atoms: N_2  and  C_3
REMARK    3  A    between atoms: N_2  and  C_4
REMARK    4  A    between atoms: C_4  and  C_5
REMARK    5  A    between atoms: C_5  and  O_6
REMARK    6  A    between atoms: O_6  and  C_7
REMARK    7  A    between atoms: C_10  and  C_11
REMARK    8  A    between atoms: C_11  and  C_23
REMARK    9  A    between atoms: C_12  and  C_13
REMARK   10  A    between atoms: C_12  and  C_17
REMARK   11  A    between atoms: C_13  and  C_14
REMARK   12  A    between atoms: C_14  and  C_15
REMARK   13  A    between atoms: C_15  and  O_16
REMARK                            x       y       z     vdW  Elec       q    Type
REMARK                         _______ _______ _______ _____ _____    ______ ____
ROOT
ATOM      1  C   UNL     1       4.160   5.606  18.248  0.00  0.00    +0.000 C 
ATOM      2  C   UNL     1       3.882   4.326  18.631  0.00  0.00    +0.000 C 
ENDROOT
BRANCH   1   6
ATOM      3  C   UNL     1       1.447   8.851  19.034  0.00  0.00    +0.000 A 
ATOM      4  C   UNL     1       2.007   8.658  17.770  0.00  0.00    +0.000 A 
ATOM      5  C   UNL     1       2.880   7.597  17.530  0.00  0.00    +0.000 A 
ATOM      6  C   UNL     1       3.213   6.707  18.553  0.00  0.00    +0.000 A 
ATOM      7  C   UNL     1       2.608   6.858  19.806  0.00  0.00    +0.000 A 
ATOM      8  C   UNL     1       1.730   7.928  20.045  0.00  0.00    +0.000 A 
BRANCH   3   9
ATOM      9  O   UNL     1       0.623   9.904  19.376  0.00  0.00    +0.000 OA
BRANCH   9  10
ATOM     10  C   UNL     1       0.142   9.847  20.727  0.00  0.00    +0.000 C 
BRANCH  10  11
ATOM     11  C   UNL     1       0.212  11.209  21.435  0.00  0.00    +0.000 C 
BRANCH  11  13
ATOM     12  C   UNL     1      -1.574  11.888  22.915  0.00  0.00    +0.000 C 
ATOM     13  N   UNL     1      -0.310  11.157  22.820  0.00  0.00    +0.000 NA
ATOM     14  C   UNL     1      -0.495   9.786  23.304  0.00  0.00    +0.000 C 
ENDBRANCH  11  13
ENDBRANCH  10  11
ENDBRANCH   9  10
ENDBRANCH   3   9
ENDBRANCH   1   6
BRANCH   2  15
ATOM     15  C   UNL     1       2.580   3.925  19.220  0.00  0.00    +0.000 A 
ATOM     16  C   UNL     1       1.511   3.599  18.374  0.00  0.00    +0.000 A 
ATOM     17  C   UNL     1       0.328   3.075  18.897  0.00  0.00    +0.000 A 
ATOM     18  C   UNL     1       0.199   2.884  20.271  0.00  0.00    +0.000 A 
ATOM     19  C   UNL     1       1.245   3.237  21.125  0.00  0.00    +0.000 A 
ATOM     20  C   UNL     1       2.431   3.757  20.603  0.00  0.00    +0.000 A 
ENDBRANCH   2  15
BRANCH   1  21
ATOM     21  C   UNL     1       5.429   5.917  17.547  0.00  0.00    +0.000 A 
ATOM     22  C   UNL     1       5.608   5.461  16.244  0.00  0.00    +0.000 A 
ATOM     23  C   UNL     1       6.759   5.823  15.568  0.00  0.00    +0.000 A 
ATOM     24  N   UNL     1       7.734   6.587  16.102  0.00  0.00    +0.000 NA
ATOM     25  C   UNL     1       7.539   7.024  17.367  0.00  0.00    +0.000 A 
ATOM     26  C   UNL     1       6.416   6.717  18.124  0.00  0.00    +0.000 A 
ENDBRANCH   1  21
BRANCH   2  27
ATOM     27  C   UNL     1       4.852   3.150  18.561  0.00  0.00    +0.000 C 
BRANCH  27  28
ATOM     28  C   UNL     1       4.183   1.814  18.222  0.00  0.00    +0.000 C 
BRANCH  28  29
ATOM     29  C   UNL     1       4.348   0.790  19.343  0.00  0.00    +0.000 C 
BRANCH  29  30
ATOM     30  O   UNL     1       5.310   1.215  20.297  0.00  0.00    +0.000 OA
ATOM     31  H   UNL     1       6.039   1.647  19.819  0.00  0.00    +0.000 HD
ENDBRANCH  29  30
ENDBRANCH  28  29
ENDBRANCH  27  28
ENDBRANCH   2  27
TORSDOF 11
ENDMDL
MODEL 3
REMARK VINA RESULT:      -6.5      1.295      1.806
REMARK  Name = 
REMARK  13 active torsions:
REMARK  status: ('A' for Active; 'I' for Inactive)
REMARK    1  A    between atoms: C_1  and  N_2
REMARK    2  A    between atoms: N_2  and  C_3
REMARK    3  A    between atoms: N_2  and  C_4
REMARK    4  A    between atoms: C_4  and  C_5
REMARK    5  A    between atoms: C_5  and  O_6
REMARK    6  A    between atoms: O_6  and  C_7
REMARK    7  A    between atoms: C_10  and  C_11
REMARK    8  A    between atoms: C_11  and  C_23
REMARK    9  A    between atoms: C_12  and  C_13
REMARK   10  A    between atoms: C_12  and  C_17
REMARK   11  A    between atoms: C_13  and  C_14
REMARK   12  A    between atoms: C_14  and  C_15
REMARK   13  A    between atoms: C_15  and  O_16
REMARK                            x       y       z     vdW  Elec       q    Type
REMARK                         _______ _______ _______ _____ _____    ______ ____
ROOT
ATOM      1  C   UNL     1       4.066   5.616  18.069  0.00  0.00    +0.000 C 
ATOM      2  C   UNL     1       3.808   4.334  18.458  0.00  0.00    +0.000 C 
ENDROOT
BRANCH   1   6
ATOM      3  C   UNL     1       1.461   8.876  19.116  0.00  0.00    +0.000 A 
ATOM      4  C   UNL     1       1.918   8.699  17.809  0.00  0.00    +0.000 A 
ATOM      5  C   UNL     1       2.757   7.633  17.484  0.00  0.00    +0.000 A 
ATOM      6  C   UNL     1       3.159   6.722  18.464  0.00  0.00    +0.000 A 
ATOM      7  C   UNL     1       2.655   6.859  19.763  0.00  0.00    +0.000 A 
ATOM      8  C   UNL     1       1.811   7.934  20.087  0.00  0.00    +0.000 A 
BRANCH   3   9
ATOM      9  O   UNL     1       0.679   9.932  19.538  0.00  0.00    +0.000 OA
BRANCH   9  10
ATOM     10  C   UNL     1      -0.128  10.507  18.500  0.00  0.00    +0.000 C 
BRANCH  10  11
ATOM     11  C   UNL     1      -1.483  11.015  19.018  0.00  0.00    +0.000 C 
BRANCH  11  13
ATOM     12  C   UNL     1      -1.250  12.773  20.660  0.00  0.00    +0.000 C 
ATOM     13  N   UNL     1      -1.491  12.478  19.246  0.00  0.00    +0.000 NA
ATOM     14  C   UNL     1      -0.510  13.186  18.420  0.00  0.00    +0.000 C 
ENDBRANCH  11  13
ENDBRANCH  10  11
ENDBRANCH   9  10
ENDBRANCH   3   9
ENDBRANCH   1   6
BRANCH   2  15
ATOM     15  C   UNL     1       2.554   3.938  19.148  0.00  0.00    +0.000 A 
ATOM     16  C   UNL     1       1.418   3.626  18.389  0.00  0.00    +0.000 A 
ATOM     17  C   UNL     1       0.277   3.105  19.002  0.00  0.00    +0.000 A 
ATOM     18  C   UNL     1       0.258   2.906  20.381  0.00  0.00    +0.000 A 
ATOM     19  C   UNL     1       1.373   3.245  21.150  0.00  0.00    +0.000 A 
ATOM     20  C   UNL     1       2.517   3.761  20.537  0.00  0.00    +0.000 A 
ENDBRANCH   2  15
BRANCH   1  21
ATOM     21  C   UNL     1       5.276   5.925  17.269  0.00  0.00    +0.000 A 
ATOM     22  C   UNL     1       6.329   6.603  17.876  0.00  0.00    +0.000 A 
ATOM     23  C   UNL     1       7.487   6.816  17.150  0.00  0.00    +0.000 A 
ATOM     24  N   UNL     1       7.656   6.414  15.873  0.00  0.00    +0.000 NA
ATOM     25  C   UNL     1       6.624   5.751  15.304  0.00  0.00    +0.000 A 
ATOM     26  C   UNL     1       5.424   5.487  15.953  0.00  0.00    +0.000 A 
ENDBRANCH   1  21
BRANCH   2  27
ATOM     27  C   UNL     1       4.757   3.151  18.294  0.00  0.00    +0.000 C 
BRANCH  27  28
ATOM     28  C   UNL     1       4.048   1.826  17.991  0.00  0.00    +0.000 C 
BRANCH  28  29
ATOM     29  C   UNL     1       4.243   0.804  19.109  0.00  0.00    +0.000 C 
BRANCH  29  30
ATOM     30  O   UNL     1       5.186   1.258  20.069  0.00  0.00    +0.000 OA
ATOM     31  H   UNL     1       5.788   1.883  19.629  0.00  0.00    +0.000 HD
ENDBRANCH  29  30
ENDBRANCH  28  29
ENDBRANCH  27  28
ENDBRANCH   2  27
TORSDOF 11
ENDMDL
MODEL 4
REMARK VINA RESULT:      -6.3      0.590      1.201
REMARK  Name = 
REMARK  13 active torsions:
REMARK  status: ('A' for Active; 'I' for Inactive)
REMARK    1  A    between atoms: C_1  and  N_2
REMARK    2  A    between atoms: N_2  and  C_3
REMARK    3  A    between atoms: N_2  and  C_4
REMARK    4  A    between atoms: C_4  and  C_5
REMARK    5  A    between atoms: C_5  and  O_6
REMARK    6  A    between atoms: O_6  and  C_7
REMARK    7  A    between atoms: C_10  and  C_11
REMARK    8  A    between atoms: C_11  and  C_23
REMARK    9  A    between atoms: C_12  and  C_13
REMARK   10  A    between atoms: C_12  and  C_17
REMARK   11  A    between atoms: C_13  and  C_14
REMARK   12  A    between atoms: C_14  and  C_15
REMARK   13  A    between atoms: C_15  and  O_16
REMARK                            x       y       z     vdW  Elec       q    Type
REMARK                         _______ _______ _______ _____ _____    ______ ____
ROOT
ATOM      1  C   UNL     1       4.189   5.534  18.317  0.00  0.00    +0.000 C 
ATOM      2  C   UNL     1       3.925   4.277  18.778  0.00  0.00    +0.000 C 
ENDROOT
BRANCH   1   6
ATOM      3  C   UNL     1       1.395   8.704  19.122  0.00  0.00    +0.000 A 
ATOM      4  C   UNL     1       1.840   7.850  20.132  0.00  0.00    +0.000 A 
ATOM      5  C   UNL     1       2.751   6.830  19.856  0.00  0.00    +0.000 A 
ATOM      6  C   UNL     1       3.235   6.643  18.559  0.00  0.00    +0.000 A 
ATOM      7  C   UNL     1       2.841   7.534  17.554  0.00  0.00    +0.000 A 
ATOM      8  C   UNL     1       1.922   8.559  17.835  0.00  0.00    +0.000 A 
BRANCH   3   9
ATOM      9  O   UNL     1       0.453   9.698  19.292  0.00  0.00    +0.000 OA
BRANCH   9  10
ATOM     10  C   UNL     1       0.703  10.546  20.422  0.00  0.00    +0.000 C 
BRANCH  10  11
ATOM     11  C   UNL     1      -0.525  11.385  20.812  0.00  0.00    +0.000 C 
BRANCH  11  13
ATOM     12  C   UNL     1      -0.206  10.023  22.783  0.00  0.00    +0.000 C 
ATOM     13  N   UNL     1      -1.078  11.001  22.131  0.00  0.00    +0.000 NA
ATOM     14  C   UNL     1      -1.280  12.151  23.018  0.00  0.00    +0.000 C 
ENDBRANCH  11  13
ENDBRANCH  10  11
ENDBRANCH   9  10
ENDBRANCH   3   9
ENDBRANCH   1   6
BRANCH   2  15
ATOM     15  C   UNL     1       2.629   3.902  19.398  0.00  0.00    +0.000 A 
ATOM     16  C   UNL     1       1.538   3.586  18.578  0.00  0.00    +0.000 A 
ATOM     17  C   UNL     1       0.358   3.085  19.131  0.00  0.00    +0.000 A 
ATOM     18  C   UNL     1       0.255   2.908  20.509  0.00  0.00    +0.000 A 
ATOM     19  C   UNL     1       1.325   3.251  21.337  0.00  0.00    +0.000 A 
ATOM     20  C   UNL     1       2.508   3.748  20.785  0.00  0.00    +0.000 A 
ENDBRANCH   2  15
BRANCH   1  21
ATOM     21  C   UNL     1       5.452   5.812  17.591  0.00  0.00    +0.000 A 
ATOM     22  C   UNL     1       5.614   5.308  16.303  0.00  0.00    +0.000 A 
ATOM     23  C   UNL     1       6.759   5.639  15.601  0.00  0.00    +0.000 A 
ATOM     24  N   UNL     1       7.743   6.417  16.096  0.00  0.00    +0.000 NA
ATOM     25  C   UNL     1       7.565   6.901  17.346  0.00  0.00    +0.000 A 
ATOM     26  C   UNL     1       6.449   6.628  18.127  0.00  0.00    +0.000 A 
ENDBRANCH   1  21
BRANCH   2  27
ATOM     27  C   UNL     1       4.905   3.108  18.774  0.00  0.00    +0.000 C 
BRANCH  27  28
ATOM     28  C   UNL     1       4.231   1.734  18.864  0.00  0.00    +0.000 C 
BRANCH  28  29
ATOM     29  C   UNL     1       4.814   0.882  19.988  0.00  0.00    +0.000 C 
BRANCH  29  30
ATOM     30  O   UNL     1       5.291   1.686  21.057  0.00  0.00    +0.000 OA
ATOM     31  H   UNL     1       4.583   2.307  21.306  0.00  0.00    +0.000 HD
ENDBRANCH  29  30
ENDBRANCH  28  29
ENDBRANCH  27  28
ENDBRANCH   2  27
TORSDOF 11
ENDMDL
MODEL 5
REMARK VINA RESULT:      -6.3      1.657      1.914
REMARK  Name = 
REMARK  13 active torsions:
REMARK  status: ('A' for Active; 'I' for Inactive)
REMARK    1  A    between atoms: C_1  and  N_2
REMARK    2  A    between atoms: N_2  and  C_3
REMARK    3  A    between atoms: N_2  and  C_4
REMARK    4  A    between atoms: C_4  and  C_5
REMARK    5  A    between atoms: C_5  and  O_6
REMARK    6  A    between atoms: O_6  and  C_7
REMARK    7  A    between atoms: C_10  and  C_11
REMARK    8  A    between atoms: C_11  and  C_23
REMARK    9  A    between atoms: C_12  and  C_13
REMARK   10  A    between atoms: C_12  and  C_17
REMARK   11  A    between atoms: C_13  and  C_14
REMARK   12  A    between atoms: C_14  and  C_15
REMARK   13  A    between atoms: C_15  and  O_16
REMARK                            x       y       z     vdW  Elec       q    Type
REMARK                         _______ _______ _______ _____ _____    ______ ____
ROOT
ATOM      1  C   UNL     1       4.049   5.542  18.062  0.00  0.00    +0.000 C 
ATOM      2  C   UNL     1       3.770   4.263  18.448  0.00  0.00    +0.000 C 
ENDROOT
BRANCH   1   6
ATOM      3  C   UNL     1       1.420   8.727  19.266  0.00  0.00    +0.000 A 
ATOM      4  C   UNL     1       1.881   7.778  20.179  0.00  0.00    +0.000 A 
ATOM      5  C   UNL     1       2.738   6.754  19.774  0.00  0.00    +0.000 A 
ATOM      6  C   UNL     1       3.151   6.659  18.443  0.00  0.00    +0.000 A 
ATOM      7  C   UNL     1       2.742   7.642  17.535  0.00  0.00    +0.000 A 
ATOM      8  C   UNL     1       1.877   8.671  17.945  0.00  0.00    +0.000 A 
BRANCH   3   9
ATOM      9  O   UNL     1       0.526   9.735  19.564  0.00  0.00    +0.000 OA
BRANCH   9  10
ATOM     10  C   UNL     1       0.409  10.728  18.535  0.00  0.00    +0.000 C 
BRANCH  10  11
ATOM     11  C   UNL     1      -0.913  11.508  18.616  0.00  0.00    +0.000 C 
BRANCH  11  13
ATOM     12  C   UNL     1      -3.302  11.484  18.248  0.00  0.00    +0.000 C 
ATOM     13  N   UNL     1      -2.089  10.666  18.296  0.00  0.00    +0.000 NA
ATOM     14  C   UNL     1      -1.937   9.935  17.035  0.00  0.00    +0.000 C 
ENDBRANCH  11  13
ENDBRANCH  10  11
ENDBRANCH   9  10
ENDBRANCH   3   9
ENDBRANCH   1   6
BRANCH   2  15
ATOM     15  C   UNL     1       2.501   3.883  19.119  0.00  0.00    +0.000 A 
ATOM     16  C   UNL     1       1.413   3.455  18.347  0.00  0.00    +0.000 A 
ATOM     17  C   UNL     1       0.265   2.949  18.959  0.00  0.00    +0.000 A 
ATOM     18  C   UNL     1       0.190   2.880  20.349  0.00  0.00    +0.000 A 
ATOM     19  C   UNL     1       1.255   3.335  21.128  0.00  0.00    +0.000 A 
ATOM     20  C   UNL     1       2.407   3.837  20.516  0.00  0.00    +0.000 A 
ENDBRANCH   2  15
BRANCH   1  21
ATOM     21  C   UNL     1       5.275   5.834  17.281  0.00  0.00    +0.000 A 
ATOM     22  C   UNL     1       6.327   6.501  17.903  0.00  0.00    +0.000 A 
ATOM     23  C   UNL     1       7.499   6.699  17.193  0.00  0.00    +0.000 A 
ATOM     24  N   UNL     1       7.681   6.292  15.920  0.00  0.00    +0.000 NA
ATOM     25  C   UNL     1       6.650   5.641  15.336  0.00  0.00    +0.000 A 
ATOM     26  C   UNL     1       5.438   5.392  15.967  0.00  0.00    +0.000 A 
ENDBRANCH   1  21
BRANCH   2  27
ATOM     27  C   UNL     1       4.706   3.068  18.299  0.00  0.00    +0.000 C 
BRANCH  27  28
ATOM     28  C   UNL     1       4.155   1.771  18.902  0.00  0.00    +0.000 C 
BRANCH  28  29
ATOM     29  C   UNL     1       4.863   1.399  20.204  0.00  0.00    +0.000 C 
BRANCH  29  30
ATOM     30  O   UNL     1       5.599   0.193  20.068  0.00  0.00    +0.000 OA
ATOM     31  H   UNL     1       5.365  -0.209  19.214  0.00  0.00    +0.000 HD
ENDBRANCH  29  30
ENDBRANCH  28  29
ENDBRANCH  27  28
ENDBRANCH   2  27
TORSDOF 11
ENDMDL
MODEL 6
REMARK VINA RESULT:      -6.3      1.469      1.902
REMARK  Name = 
REMARK  13 active torsions:
REMARK  status: ('A' for Active; 'I' for Inactive)
REMARK    1  A    between atoms: C_1  and  N_2
REMARK    2  A    between atoms: N_2  and  C_3
REMARK    3  A    between atoms: N_2  and  C_4
REMARK    4  A    between atoms: C_4  and  C_5
REMARK    5  A    between atoms: C_5  and  O_6
REMARK    6  A    between atoms: O_6  and  C_7
REMARK    7  A    between atoms: C_10  and  C_11
REMARK    8  A    between atoms: C_11  and  C_23
REMARK    9  A    between atoms: C_12  and  C_13
REMARK   10  A    between atoms: C_12  and  C_17
REMARK   11  A    between atoms: C_13  and  C_14
REMARK   12  A    between atoms: C_14  and  C_15
REMARK   13  A    between atoms: C_15  and  O_16
REMARK                            x       y       z     vdW  Elec       q    Type
REMARK                         _______ _______ _______ _____ _____    ______ ____
ROOT
ATOM      1  C   UNL     1       4.066   5.522  18.063  0.00  0.00    +0.000 C 
ATOM      2  C   UNL     1       3.797   4.245  18.462  0.00  0.00    +0.000 C 
ENDROOT
BRANCH   1   6
ATOM      3  C   UNL     1       1.514   8.820  19.119  0.00  0.00    +0.000 A 
ATOM      4  C   UNL     1       1.989   8.653  17.818  0.00  0.00    +0.000 A 
ATOM      5  C   UNL     1       2.811   7.575  17.489  0.00  0.00    +0.000 A 
ATOM      6  C   UNL     1       3.176   6.641  18.461  0.00  0.00    +0.000 A 
ATOM      7  C   UNL     1       2.655   6.767  19.753  0.00  0.00    +0.000 A 
ATOM      8  C   UNL     1       1.828   7.855  20.081  0.00  0.00    +0.000 A 
BRANCH   3   9
ATOM      9  O   UNL     1       0.748   9.886  19.545  0.00  0.00    +0.000 OA
BRANCH   9  10
ATOM     10  C   UNL     1       1.220  11.160  19.083  0.00  0.00    +0.000 C 
BRANCH  10  11
ATOM     11  C   UNL     1       0.661  12.330  19.909  0.00  0.00    +0.000 C 
BRANCH  11  13
ATOM     12  C   UNL     1       0.620  14.743  20.033  0.00  0.00    +0.000 C 
ATOM     13  N   UNL     1       1.448  13.573  19.738  0.00  0.00    +0.000 NA
ATOM     14  C   UNL     1       2.654  13.599  20.570  0.00  0.00    +0.000 C 
ENDBRANCH  11  13
ENDBRANCH  10  11
ENDBRANCH   9  10
ENDBRANCH   3   9
ENDBRANCH   1   6
BRANCH   2  15
ATOM     15  C   UNL     1       2.547   3.868  19.169  0.00  0.00    +0.000 A 
ATOM     16  C   UNL     1       1.405   3.544  18.424  0.00  0.00    +0.000 A 
ATOM     17  C   UNL     1       0.266   3.041  19.056  0.00  0.00    +0.000 A 
ATOM     18  C   UNL     1       0.256   2.870  20.438  0.00  0.00    +0.000 A 
ATOM     19  C   UNL     1       1.377   3.221  21.193  0.00  0.00    +0.000 A 
ATOM     20  C   UNL     1       2.519   3.719  20.561  0.00  0.00    +0.000 A 
ENDBRANCH   2  15
BRANCH   1  21
ATOM     21  C   UNL     1       5.271   5.811  17.248  0.00  0.00    +0.000 A 
ATOM     22  C   UNL     1       6.342   6.472  17.841  0.00  0.00    +0.000 A 
ATOM     23  C   UNL     1       7.494   6.667  17.100  0.00  0.00    +0.000 A 
ATOM     24  N   UNL     1       7.640   6.261  15.822  0.00  0.00    +0.000 NA
ATOM     25  C   UNL     1       6.591   5.616  15.265  0.00  0.00    +0.000 A 
ATOM     26  C   UNL     1       5.396   5.370  15.930  0.00  0.00    +0.000 A 
ENDBRANCH   1  21
BRANCH   2  27
ATOM     27  C   UNL     1       4.730   3.050  18.295  0.00  0.00    +0.000 C 
BRANCH  27  28
ATOM     28  C   UNL     1       4.013   1.695  18.324  0.00  0.00    +0.000 C 
BRANCH  28  29
ATOM     29  C   UNL     1       4.566   0.777  19.412  0.00  0.00    +0.000 C 
BRANCH  29  30
ATOM     30  O   UNL     1       5.272   1.511  20.402  0.00  0.00    +0.000 OA
ATOM     31  H   UNL     1       5.629   0.878  21.049  0.00  0.00    +0.000 HD
ENDBRANCH  29  30
ENDBRANCH  28  29
ENDBRANCH  27  28
ENDBRANCH   2  27
TORSDOF 11
ENDMDL
MODEL 7
REMARK VINA RESULT:      -6.2      2.279      4.727
REMARK  Name = 
REMARK  13 active torsions:
REMARK  status: ('A' for Active; 'I' for Inactive)
REMARK    1  A    between atoms: C_1  and  N_2
REMARK    2  A    between atoms: N_2  and  C_3
REMARK    3  A    between atoms: N_2  and  C_4
REMARK    4  A    between atoms: C_4  and  C_5
REMARK    5  A    between atoms: C_5  and  O_6
REMARK    6  A    between atoms: O_6  and  C_7
REMARK    7  A    between atoms: C_10  and  C_11
REMARK    8  A    between atoms: C_11  and  C_23
REMARK    9  A    between atoms: C_12  and  C_13
REMARK   10  A    between atoms: C_12  and  C_17
REMARK   11  A    between atoms: C_13  and  C_14
REMARK   12  A    between atoms: C_14  and  C_15
REMARK   13  A    between atoms: C_15  and  O_16
REMARK                            x       y       z     vdW  Elec       q    Type
REMARK                         _______ _______ _______ _____ _____    ______ ____
ROOT
ATOM      1  C   UNL     1       3.086   5.238  18.760  0.00  0.00    +0.000 C 
ATOM      2  C   UNL     1       4.347   4.958  18.320  0.00  0.00    +0.000 C 
ENDROOT
BRANCH   1   6
ATOM      3  C   UNL     1       1.723   9.287  19.269  0.00  0.00    +0.000 A 
ATOM      4  C   UNL     1       1.832   8.413  20.351  0.00  0.00    +0.000 A 
ATOM      5  C   UNL     1       2.281   7.104  20.170  0.00  0.00    +0.000 A 
ATOM      6  C   UNL     1       2.630   6.643  18.899  0.00  0.00    +0.000 A 
ATOM      7  C   UNL     1       2.581   7.532  17.819  0.00  0.00    +0.000 A 
ATOM      8  C   UNL     1       2.127   8.849  18.004  0.00  0.00    +0.000 A 
BRANCH   3   9
ATOM      9  O   UNL     1       1.233  10.575  19.345  0.00  0.00    +0.000 OA
BRANCH   9  10
ATOM     10  C   UNL     1       1.148  11.084  20.684  0.00  0.00    +0.000 C 
BRANCH  10  11
ATOM     11  C   UNL     1      -0.300  11.168  21.192  0.00  0.00    +0.000 C 
BRANCH  11  13
ATOM     12  C   UNL     1      -1.623  11.742  23.132  0.00  0.00    +0.000 C 
ATOM     13  N   UNL     1      -0.388  11.106  22.669  0.00  0.00    +0.000 NA
ATOM     14  C   UNL     1      -0.315   9.736  23.184  0.00  0.00    +0.000 C 
ENDBRANCH  11  13
ENDBRANCH  10  11
ENDBRANCH   9  10
ENDBRANCH   3   9
ENDBRANCH   1   6
BRANCH   2  15
ATOM     15  C   UNL     1       5.378   6.005  18.109  0.00  0.00    +0.000 A 
ATOM     16  C   UNL     1       6.583   5.940  18.820  0.00  0.00    +0.000 A 
ATOM     17  C   UNL     1       7.626   6.821  18.530  0.00  0.00    +0.000 A 
ATOM     18  C   UNL     1       7.468   7.783  17.534  0.00  0.00    +0.000 A 
ATOM     19  C   UNL     1       6.259   7.877  16.843  0.00  0.00    +0.000 A 
ATOM     20  C   UNL     1       5.216   6.993  17.129  0.00  0.00    +0.000 A 
ENDBRANCH   2  15
BRANCH   1  21
ATOM     21  C   UNL     1       2.143   4.137  19.075  0.00  0.00    +0.000 A 
ATOM     22  C   UNL     1       1.421   3.552  18.039  0.00  0.00    +0.000 A 
ATOM     23  C   UNL     1       0.605   2.473  18.328  0.00  0.00    +0.000 A 
ATOM     24  N   UNL     1       0.456   1.955  19.565  0.00  0.00    +0.000 NA
ATOM     25  C   UNL     1       1.170   2.534  20.556  0.00  0.00    +0.000 A 
ATOM     26  C   UNL     1       2.018   3.618  20.364  0.00  0.00    +0.000 A 
ENDBRANCH   1  21
BRANCH   2  27
ATOM     27  C   UNL     1       4.866   3.574  17.943  0.00  0.00    +0.000 C 
BRANCH  27  28
ATOM     28  C   UNL     1       4.855   3.299  16.435  0.00  0.00    +0.000 C 
BRANCH  28  29
ATOM     29  C   UNL     1       6.135   3.781  15.755  0.00  0.00    +0.000 C 
BRANCH  29  30
ATOM     30  O   UNL     1       6.196   3.357  14.401  0.00  0.00    +0.000 OA
ATOM     31  H   UNL     1       5.468   2.730  14.249  0.00  0.00    +0.000 HD
ENDBRANCH  29  30
ENDBRANCH  28  29
ENDBRANCH  27  28
ENDBRANCH   2  27
TORSDOF 11
ENDMDL
MODEL 8
REMARK VINA RESULT:      -6.2      1.519      2.142
REMARK  Name = 
REMARK  13 active torsions:
REMARK  status: ('A' for Active; 'I' for Inactive)
REMARK    1  A    between atoms: C_1  and  N_2
REMARK    2  A    between atoms: N_2  and  C_3
REMARK    3  A    between atoms: N_2  and  C_4
REMARK    4  A    between atoms: C_4  and  C_5
REMARK    5  A    between atoms: C_5  and  O_6
REMARK    6  A    between atoms: O_6  and  C_7
REMARK    7  A    between atoms: C_10  and  C_11
REMARK    8  A    between atoms: C_11  and  C_23
REMARK    9  A    between atoms: C_12  and  C_13
REMARK   10  A    between atoms: C_12  and  C_17
REMARK   11  A    between atoms: C_13  and  C_14
REMARK   12  A    between atoms: C_14  and  C_15
REMARK   13  A    between atoms: C_15  and  O_16
REMARK                            x       y       z     vdW  Elec       q    Type
REMARK                         _______ _______ _______ _____ _____    ______ ____
ROOT
ATOM      1  C   UNL     1       4.145   5.444  18.192  0.00  0.00    +0.000 C 
ATOM      2  C   UNL     1       3.836   4.159  18.529  0.00  0.00    +0.000 C 
ENDROOT
BRANCH   1   6
ATOM      3  C   UNL     1       1.594   8.745  19.243  0.00  0.00    +0.000 A 
ATOM      4  C   UNL     1       2.112   8.605  17.955  0.00  0.00    +0.000 A 
ATOM      5  C   UNL     1       2.933   7.526  17.628  0.00  0.00    +0.000 A 
ATOM      6  C   UNL     1       3.254   6.563  18.588  0.00  0.00    +0.000 A 
ATOM      7  C   UNL     1       2.689   6.664  19.864  0.00  0.00    +0.000 A 
ATOM      8  C   UNL     1       1.864   7.753  20.191  0.00  0.00    +0.000 A 
BRANCH   3   9
ATOM      9  O   UNL     1       0.825   9.809  19.669  0.00  0.00    +0.000 OA
BRANCH   9  10
ATOM     10  C   UNL     1      -0.197  10.194  18.739  0.00  0.00    +0.000 C 
BRANCH  10  11
ATOM     11  C   UNL     1      -0.265  11.716  18.535  0.00  0.00    +0.000 C 
BRANCH  11  13
ATOM     12  C   UNL     1      -2.420  11.449  17.473  0.00  0.00    +0.000 C 
ATOM     13  N   UNL     1      -1.657  12.217  18.458  0.00  0.00    +0.000 NA
ATOM     14  C   UNL     1      -2.344  12.181  19.752  0.00  0.00    +0.000 C 
ENDBRANCH  11  13
ENDBRANCH  10  11
ENDBRANCH   9  10
ENDBRANCH   3   9
ENDBRANCH   1   6
BRANCH   2  15
ATOM     15  C   UNL     1       2.545   3.777  19.155  0.00  0.00    +0.000 A 
ATOM     16  C   UNL     1       1.449   3.462  18.342  0.00  0.00    +0.000 A 
ATOM     17  C   UNL     1       0.274   2.955  18.900  0.00  0.00    +0.000 A 
ATOM     18  C   UNL     1       0.181   2.773  20.277  0.00  0.00    +0.000 A 
ATOM     19  C   UNL     1       1.255   3.116  21.100  0.00  0.00    +0.000 A 
ATOM     20  C   UNL     1       2.433   3.619  20.543  0.00  0.00    +0.000 A 
ENDBRANCH   2  15
BRANCH   1  21
ATOM     21  C   UNL     1       5.395   5.742  17.451  0.00  0.00    +0.000 A 
ATOM     22  C   UNL     1       5.494   5.357  16.117  0.00  0.00    +0.000 A 
ATOM     23  C   UNL     1       6.629   5.709  15.409  0.00  0.00    +0.000 A 
ATOM     24  N   UNL     1       7.660   6.398  15.939  0.00  0.00    +0.000 NA
ATOM     25  C   UNL     1       7.542   6.768  17.234  0.00  0.00    +0.000 A 
ATOM     26  C   UNL     1       6.441   6.465  18.025  0.00  0.00    +0.000 A 
ENDBRANCH   1  21
BRANCH   2  27
ATOM     27  C   UNL     1       4.757   2.954  18.363  0.00  0.00    +0.000 C 
BRANCH  27  28
ATOM     28  C   UNL     1       4.060   1.607  18.585  0.00  0.00    +0.000 C 
BRANCH  28  29
ATOM     29  C   UNL     1       4.742   0.782  19.675  0.00  0.00    +0.000 C 
BRANCH  29  30
ATOM     30  O   UNL     1       5.305   1.612  20.680  0.00  0.00    +0.000 OA
ATOM     31  H   UNL     1       5.328   1.107  21.511  0.00  0.00    +0.000 HD
ENDBRANCH  29  30
ENDBRANCH  28  29
ENDBRANCH  27  28
ENDBRANCH   2  27
TORSDOF 11
ENDMDL
MODEL 9
REMARK VINA RESULT:      -6.2      3.917     10.027
REMARK  Name = 
REMARK  13 active torsions:
REMARK  status: ('A' for Active; 'I' for Inactive)
REMARK    1  A    between atoms: C_1  and  N_2
REMARK    2  A    between atoms: N_2  and  C_3
REMARK    3  A    between atoms: N_2  and  C_4
REMARK    4  A    between atoms: C_4  and  C_5
REMARK    5  A    between atoms: C_5  and  O_6
REMARK    6  A    between atoms: O_6  and  C_7
REMARK    7  A    between atoms: C_10  and  C_11
REMARK    8  A    between atoms: C_11  and  C_23
REMARK    9  A    between atoms: C_12  and  C_13
REMARK   10  A    between atoms: C_12  and  C_17
REMARK   11  A    between atoms: C_13  and  C_14
REMARK   12  A    between atoms: C_14  and  C_15
REMARK   13  A    between atoms: C_15  and  O_16
REMARK                            x       y       z     vdW  Elec       q    Type
REMARK                         _______ _______ _______ _____ _____    ______ ____
ROOT
ATOM      1  C   UNL     1      -0.587  11.908  18.748  0.00  0.00    +0.000 C 
ATOM      2  C   UNL     1      -0.049  13.152  18.906  0.00  0.00    +0.000 C 
ENDROOT
BRANCH   1   6
ATOM      3  C   UNL     1       1.729   8.377  19.569  0.00  0.00    +0.000 A 
ATOM      4  C   UNL     1       1.748   8.986  18.314  0.00  0.00    +0.000 A 
ATOM      5  C   UNL     1       0.996  10.134  18.065  0.00  0.00    +0.000 A 
ATOM      6  C   UNL     1       0.206  10.696  19.070  0.00  0.00    +0.000 A 
ATOM      7  C   UNL     1       0.230  10.128  20.348  0.00  0.00    +0.000 A 
ATOM      8  C   UNL     1       0.987   8.970  20.596  0.00  0.00    +0.000 A 
BRANCH   3   9
ATOM      9  O   UNL     1       2.392   7.209  19.887  0.00  0.00    +0.000 OA
BRANCH   9  10
ATOM     10  C   UNL     1       2.737   6.410  18.746  0.00  0.00    +0.000 C 
BRANCH  10  11
ATOM     11  C   UNL     1       4.094   5.708  18.907  0.00  0.00    +0.000 C 
BRANCH  11  13
ATOM     12  C   UNL     1       2.888   3.753  19.658  0.00  0.00    +0.000 C 
ATOM     13  N   UNL     1       3.985   4.233  18.816  0.00  0.00    +0.000 NA
ATOM     14  C   UNL     1       3.794   3.763  17.441  0.00  0.00    +0.000 C 
ENDBRANCH  11  13
ENDBRANCH  10  11
ENDBRANCH   9  10
ENDBRANCH   3   9
ENDBRANCH   1   6
BRANCH   2  15
ATOM     15  C   UNL     1       1.379  13.376  19.248  0.00  0.00    +0.000 A 
ATOM     16  C   UNL     1       2.300  13.639  18.225  0.00  0.00    +0.000 A 
ATOM     17  C   UNL     1       3.613  14.002  18.530  0.00  0.00    +0.000 A 
ATOM     18  C   UNL     1       4.018  14.092  19.860  0.00  0.00    +0.000 A 
ATOM     19  C   UNL     1       3.117  13.799  20.885  0.00  0.00    +0.000 A 
ATOM     20  C   UNL     1       1.802  13.441  20.581  0.00  0.00    +0.000 A 
ENDBRANCH   2  15
BRANCH   1  21
ATOM     21  C   UNL     1      -1.985  11.754  18.279  0.00  0.00    +0.000 A 
ATOM     22  C   UNL     1      -2.215  11.332  16.973  0.00  0.00    +0.000 A 
ATOM     23  C   UNL     1      -3.519  11.112  16.567  0.00  0.00    +0.000 A 
ATOM     24  N   UNL     1      -4.593  11.293  17.363  0.00  0.00    +0.000 NA
ATOM     25  C   UNL     1      -4.348  11.698  18.630  0.00  0.00    +0.000 A 
ATOM     26  C   UNL     1      -3.075  11.941  19.130  0.00  0.00    +0.000 A 
ENDBRANCH   1  21
BRANCH   2  27
ATOM     27  C   UNL     1      -0.815  14.468  18.806  0.00  0.00    +0.000 C 
BRANCH  27  28
ATOM     28  C   UNL     1      -1.272  15.022  20.161  0.00  0.00    +0.000 C 
BRANCH  28  29
ATOM     29  C   UNL     1      -1.415  16.542  20.139  0.00  0.00    +0.000 C 
BRANCH  29  30
ATOM     30  O   UNL     1      -1.714  17.017  18.834  0.00  0.00    +0.000 OA
ATOM     31  H   UNL     1      -1.121  17.764  18.641  0.00  0.00    +0.000 HD
ENDBRANCH  29  30
ENDBRANCH  28  29
ENDBRANCH  27  28
ENDBRANCH   2  27
TORSDOF 11
ENDMDL
