MODEL 1
REMARK VINA RESULT:      -6.9      0.000      0.000
REMARK  Name = 
REMARK  8 active torsions:
REMARK  status: ('A' for Active; 'I' for Inactive)
REMARK    1  A    between atoms: C_1  and  O_2
REMARK    2  A    between atoms: O_2  and  C_3
REMARK    3  A    between atoms: C_3  and  C_4
REMARK    4  A    between atoms: C_4  and  N_5
REMARK    5  A    between atoms: C_9  and  C_10
REMARK    6  A    between atoms: C_10  and  N_11
REMARK    7  A    between atoms: C_12  and  C_14
REMARK    8  A    between atoms: C_14  and  C_15
REMARK                            x       y       z     vdW  Elec       q    Type
REMARK                         _______ _______ _______ _____ _____    ______ ____
ROOT
ATOM      1  N   UNL     1       5.542   3.474  18.793  0.00  0.00    +0.000 N 
ATOM      2  C   UNL     1       5.645   4.841  18.931  0.00  0.00    +0.000 C 
ATOM      3  O   UNL     1       4.941   5.464  19.726  0.00  0.00    +0.000 OA
ATOM      4  H   UNL     1       6.092   3.005  18.086  0.00  0.00    +0.000 HD
ENDROOT
BRANCH   2   5
ATOM      5  C   UNL     1       6.741   5.529  18.053  0.00  0.00    +0.000 C 
ATOM      6  C   UNL     1       7.884   6.011  18.960  0.00  0.00    +0.000 C 
ATOM      7  C   UNL     1       7.318   4.530  17.029  0.00  0.00    +0.000 C 
ATOM      8  C   UNL     1       6.344   4.226  15.893  0.00  0.00    +0.000 C 
ATOM      9  C   UNL     1       5.816   5.519  15.291  0.00  0.00    +0.000 C 
ATOM     10  C   UNL     1       5.280   6.442  16.374  0.00  0.00    +0.000 C 
ATOM     11  O   UNL     1       6.256   6.704  17.384  0.00  0.00    +0.000 OA
ENDBRANCH   2   5
BRANCH   1  12
ATOM     12  C   UNL     1       4.717   2.675  19.665  0.00  0.00    +0.000 C 
BRANCH  12  17
ATOM     13  N   UNL     1       2.172   2.480  19.723  0.00  0.00    +0.000 N 
ATOM     14  C   UNL     1       1.202   2.213  18.792  0.00  0.00    +0.000 A 
ATOM     15  N   UNL     1       1.702   2.068  17.586  0.00  0.00    +0.000 NA
ATOM     16  C   UNL     1       3.047   2.225  17.738  0.00  0.00    +0.000 A 
ATOM     17  C   UNL     1       3.382   2.488  19.053  0.00  0.00    +0.000 A 
BRANCH  13  18
ATOM     18  C   UNL     1       1.939   2.742  21.132  0.00  0.00    +0.000 C 
BRANCH  18  19
ATOM     19  C   UNL     1       2.087   4.204  21.565  0.00  0.00    +0.000 C 
BRANCH  19  21
ATOM     20  C   UNL     1       1.790   6.278  20.469  0.00  0.00    +0.000 C 
ATOM     21  O   UNL     1       1.213   5.021  20.784  0.00  0.00    +0.000 OA
ENDBRANCH  19  21
ENDBRANCH  18  19
ENDBRANCH  13  18
ENDBRANCH  12  17
ENDBRANCH   1  12
TORSDOF 6
ENDMDL
MODEL 2
REMARK VINA RESULT:      -6.6      1.838      2.682
REMARK  Name = 
REMARK  8 active torsions:
REMARK  status: ('A' for Active; 'I' for Inactive)
REMARK    1  A    between atoms: C_1  and  O_2
REMARK    2  A    between atoms: O_2  and  C_3
REMARK    3  A    between atoms: C_3  and  C_4
REMARK    4  A    between atoms: C_4  and  N_5
REMARK    5  A    between atoms: C_9  and  C_10
REMARK    6  A    between atoms: C_10  and  N_11
REMARK    7  A    between atoms: C_12  and  C_14
REMARK    8  A    between atoms: C_14  and  C_15
REMARK                            x       y       z     vdW  Elec       q    Type
REMARK                         _______ _______ _______ _____ _____    ______ ____
ROOT
ATOM      1  N   UNL     1       4.703   5.947  18.876  0.00  0.00    +0.000 N 
ATOM      2  C   UNL     1       5.916   5.330  18.659  0.00  0.00    +0.000 C 
ATOM      3  O   UNL     1       6.240   4.312  19.272  0.00  0.00    +0.000 OA
ATOM      4  H   UNL     1       4.497   6.816  18.402  0.00  0.00    +0.000 HD
ENDROOT
BRANCH   2   5
ATOM      5  C   UNL     1       6.817   5.979  17.559  0.00  0.00    +0.000 C 
ATOM      6  C   UNL     1       7.871   6.871  18.232  0.00  0.00    +0.000 C 
ATOM      7  C   UNL     1       7.547   4.888  16.746  0.00  0.00    +0.000 C 
ATOM      8  C   UNL     1       6.613   4.142  15.796  0.00  0.00    +0.000 C 
ATOM      9  C   UNL     1       5.813   5.130  14.960  0.00  0.00    +0.000 C 
ATOM     10  C   UNL     1       5.141   6.169  15.843  0.00  0.00    +0.000 C 
ATOM     11  O   UNL     1       6.081   6.845  16.681  0.00  0.00    +0.000 OA
ENDBRANCH   2   5
BRANCH   1  12
ATOM     12  C   UNL     1       3.685   5.366  19.716  0.00  0.00    +0.000 C 
BRANCH  12  17
ATOM     13  N   UNL     1       3.056   2.910  19.407  0.00  0.00    +0.000 N 
ATOM     14  C   UNL     1       2.403   2.195  18.438  0.00  0.00    +0.000 A 
ATOM     15  N   UNL     1       1.964   2.965  17.468  0.00  0.00    +0.000 NA
ATOM     16  C   UNL     1       2.363   4.224  17.806  0.00  0.00    +0.000 A 
ATOM     17  C   UNL     1       3.042   4.235  19.009  0.00  0.00    +0.000 A 
BRANCH  13  18
ATOM     18  C   UNL     1       3.610   2.360  20.632  0.00  0.00    +0.000 C 
BRANCH  18  19
ATOM     19  C   UNL     1       4.805   1.418  20.450  0.00  0.00    +0.000 C 
BRANCH  19  21
ATOM     20  C   UNL     1       6.013   0.112  22.006  0.00  0.00    +0.000 C 
ATOM     21  O   UNL     1       5.593   1.417  21.641  0.00  0.00    +0.000 OA
ENDBRANCH  19  21
ENDBRANCH  18  19
ENDBRANCH  13  18
ENDBRANCH  12  17
ENDBRANCH   1  12
TORSDOF 6
ENDMDL
MODEL 3
REMARK VINA RESULT:      -6.6      1.877      3.404
REMARK  Name = 
REMARK  8 active torsions:
REMARK  status: ('A' for Active; 'I' for Inactive)
REMARK    1  A    between atoms: C_1  and  O_2
REMARK    2  A    between atoms: O_2  and  C_3
REMARK    3  A    between atoms: C_3  and  C_4
REMARK    4  A    between atoms: C_4  and  N_5
REMARK    5  A    between atoms: C_9  and  C_10
REMARK    6  A    between atoms: C_10  and  N_11
REMARK    7  A    between atoms: C_12  and  C_14
REMARK    8  A    between atoms: C_14  and  C_15
REMARK                            x       y       z     vdW  Elec       q    Type
REMARK                         _______ _______ _______ _____ _____    ______ ____
ROOT
ATOM      1  N   UNL     1       4.437   5.255  19.077  0.00  0.00    +0.000 N 
ATOM      2  C   UNL     1       4.852   5.763  17.865  0.00  0.00    +0.000 C 
ATOM      3  O   UNL     1       4.169   6.574  17.238  0.00  0.00    +0.000 OA
ATOM      4  H   UNL     1       4.993   4.545  19.533  0.00  0.00    +0.000 HD
ENDROOT
BRANCH   2   5
ATOM      5  C   UNL     1       6.256   5.281  17.375  0.00  0.00    +0.000 C 
ATOM      6  C   UNL     1       6.072   4.140  16.363  0.00  0.00    +0.000 C 
ATOM      7  C   UNL     1       7.011   6.434  16.680  0.00  0.00    +0.000 C 
ATOM      8  C   UNL     1       7.517   7.483  17.668  0.00  0.00    +0.000 C 
ATOM      9  C   UNL     1       8.281   6.814  18.800  0.00  0.00    +0.000 C 
ATOM     10  C   UNL     1       7.465   5.688  19.415  0.00  0.00    +0.000 C 
ATOM     11  O   UNL     1       7.053   4.731  18.436  0.00  0.00    +0.000 OA
ENDBRANCH   2   5
BRANCH   1  12
ATOM     12  C   UNL     1       3.260   5.745  19.752  0.00  0.00    +0.000 C 
BRANCH  12  17
ATOM     13  N   UNL     1       1.650   3.785  19.455  0.00  0.00    +0.000 N 
ATOM     14  C   UNL     1       1.035   2.903  20.305  0.00  0.00    +0.000 A 
ATOM     15  N   UNL     1       1.396   3.088  21.554  0.00  0.00    +0.000 NA
ATOM     16  C   UNL     1       2.261   4.141  21.522  0.00  0.00    +0.000 A 
ATOM     17  C   UNL     1       2.451   4.602  20.233  0.00  0.00    +0.000 A 
BRANCH  13  18
ATOM     18  C   UNL     1       1.503   3.807  18.010  0.00  0.00    +0.000 C 
BRANCH  18  19
ATOM     19  C   UNL     1       2.432   2.864  17.238  0.00  0.00    +0.000 C 
BRANCH  19  21
ATOM     20  C   UNL     1       3.725   1.232  18.358  0.00  0.00    +0.000 C 
ATOM     21  O   UNL     1       3.599   2.604  18.019  0.00  0.00    +0.000 OA
ENDBRANCH  19  21
ENDBRANCH  18  19
ENDBRANCH  13  18
ENDBRANCH  12  17
ENDBRANCH   1  12
TORSDOF 6
ENDMDL
MODEL 4
REMARK VINA RESULT:      -6.5      2.260      5.914
REMARK  Name = 
REMARK  8 active torsions:
REMARK  status: ('A' for Active; 'I' for Inactive)
REMARK    1  A    between atoms: C_1  and  O_2
REMARK    2  A    between atoms: O_2  and  C_3
REMARK    3  A    between atoms: C_3  and  C_4
REMARK    4  A    between atoms: C_4  and  N_5
REMARK    5  A    between atoms: C_9  and  C_10
REMARK    6  A    between atoms: C_10  and  N_11
REMARK    7  A    between atoms: C_12  and  C_14
REMARK    8  A    between atoms: C_14  and  C_15
REMARK                            x       y       z     vdW  Elec       q    Type
REMARK                         _______ _______ _______ _____ _____    ______ ____
ROOT
ATOM      1  N   UNL     1       3.490   5.934  17.790  0.00  0.00    +0.000 N 
ATOM      2  C   UNL     1       3.730   5.351  19.015  0.00  0.00    +0.000 C 
ATOM      3  O   UNL     1       4.820   5.459  19.579  0.00  0.00    +0.000 OA
ATOM      4  H   UNL     1       2.605   5.773  17.329  0.00  0.00    +0.000 HD
ENDROOT
BRANCH   2   5
ATOM      5  C   UNL     1       2.519   4.596  19.653  0.00  0.00    +0.000 C 
ATOM      6  C   UNL     1       1.746   5.561  20.564  0.00  0.00    +0.000 C 
ATOM      7  C   UNL     1       1.561   4.086  18.556  0.00  0.00    +0.000 C 
ATOM      8  C   UNL     1       2.131   2.895  17.788  0.00  0.00    +0.000 C 
ATOM      9  C   UNL     1       2.614   1.826  18.756  0.00  0.00    +0.000 C 
ATOM     10  C   UNL     1       3.541   2.423  19.804  0.00  0.00    +0.000 C 
ATOM     11  O   UNL     1       2.929   3.510  20.500  0.00  0.00    +0.000 OA
ENDBRANCH   2   5
BRANCH   1  12
ATOM     12  C   UNL     1       4.439   6.821  17.163  0.00  0.00    +0.000 C 
BRANCH  12  17
ATOM     13  N   UNL     1       6.815   6.004  16.703  0.00  0.00    +0.000 N 
ATOM     14  C   UNL     1       7.392   5.195  15.760  0.00  0.00    +0.000 A 
ATOM     15  N   UNL     1       6.506   4.693  14.930  0.00  0.00    +0.000 NA
ATOM     16  C   UNL     1       5.311   5.210  15.333  0.00  0.00    +0.000 A 
ATOM     17  C   UNL     1       5.457   6.027  16.438  0.00  0.00    +0.000 A 
BRANCH  13  18
ATOM     18  C   UNL     1       7.515   6.665  17.791  0.00  0.00    +0.000 C 
BRANCH  18  19
ATOM     19  C   UNL     1       7.791   8.158  17.587  0.00  0.00    +0.000 C 
BRANCH  19  21
ATOM     20  C   UNL     1       8.897  10.022  18.529  0.00  0.00    +0.000 C 
ATOM     21  O   UNL     1       8.615   8.638  18.650  0.00  0.00    +0.000 OA
ENDBRANCH  19  21
ENDBRANCH  18  19
ENDBRANCH  13  18
ENDBRANCH  12  17
ENDBRANCH   1  12
TORSDOF 6
ENDMDL
MODEL 5
REMARK VINA RESULT:      -6.4      1.313      2.167
REMARK  Name = 
REMARK  8 active torsions:
REMARK  status: ('A' for Active; 'I' for Inactive)
REMARK    1  A    between atoms: C_1  and  O_2
REMARK    2  A    between atoms: O_2  and  C_3
REMARK    3  A    between atoms: C_3  and  C_4
REMARK    4  A    between atoms: C_4  and  N_5
REMARK    5  A    between atoms: C_9  and  C_10
REMARK    6  A    between atoms: C_10  and  N_11
REMARK    7  A    between atoms: C_12  and  C_14
REMARK    8  A    between atoms: C_14  and  C_15
REMARK                            x       y       z     vdW  Elec       q    Type
REMARK                         _______ _______ _______ _____ _____    ______ ____
ROOT
ATOM      1  N   UNL     1       4.752   3.189  18.298  0.00  0.00    +0.000 N 
ATOM      2  C   UNL     1       5.336   4.437  18.320  0.00  0.00    +0.000 C 
ATOM      3  O   UNL     1       5.274   5.162  19.314  0.00  0.00    +0.000 OA
ATOM      4  H   UNL     1       4.769   2.649  17.444  0.00  0.00    +0.000 HD
ENDROOT
BRANCH   2   5
ATOM      5  C   UNL     1       6.115   4.842  17.026  0.00  0.00    +0.000 C 
ATOM      6  C   UNL     1       5.935   3.745  15.966  0.00  0.00    +0.000 C 
ATOM      7  C   UNL     1       5.566   6.167  16.457  0.00  0.00    +0.000 C 
ATOM      8  C   UNL     1       5.971   7.378  17.295  0.00  0.00    +0.000 C 
ATOM      9  C   UNL     1       7.471   7.367  17.546  0.00  0.00    +0.000 C 
ATOM     10  C   UNL     1       7.920   6.021  18.094  0.00  0.00    +0.000 C 
ATOM     11  O   UNL     1       7.532   4.941  17.242  0.00  0.00    +0.000 OA
ENDBRANCH   2   5
BRANCH   1  12
ATOM     12  C   UNL     1       4.164   2.597  19.474  0.00  0.00    +0.000 C 
BRANCH  12  17
ATOM     13  N   UNL     1       1.851   3.502  20.066  0.00  0.00    +0.000 N 
ATOM     14  C   UNL     1       0.566   3.169  19.724  0.00  0.00    +0.000 A 
ATOM     15  N   UNL     1       0.527   2.183  18.856  0.00  0.00    +0.000 NA
ATOM     16  C   UNL     1       1.830   1.847  18.641  0.00  0.00    +0.000 A 
ATOM     17  C   UNL     1       2.688   2.647  19.372  0.00  0.00    +0.000 A 
BRANCH  13  18
ATOM     18  C   UNL     1       2.232   4.582  20.960  0.00  0.00    +0.000 C 
BRANCH  18  19
ATOM     19  C   UNL     1       1.892   5.993  20.472  0.00  0.00    +0.000 C 
BRANCH  19  21
ATOM     20  C   UNL     1       2.484   7.479  18.731  0.00  0.00    +0.000 C 
ATOM     21  O   UNL     1       2.273   6.126  19.102  0.00  0.00    +0.000 OA
ENDBRANCH  19  21
ENDBRANCH  18  19
ENDBRANCH  13  18
ENDBRANCH  12  17
ENDBRANCH   1  12
TORSDOF 6
ENDMDL
MODEL 6
REMARK VINA RESULT:      -6.3      3.010      6.461
REMARK  Name = 
REMARK  8 active torsions:
REMARK  status: ('A' for Active; 'I' for Inactive)
REMARK    1  A    between atoms: C_1  and  O_2
REMARK    2  A    between atoms: O_2  and  C_3
REMARK    3  A    between atoms: C_3  and  C_4
REMARK    4  A    between atoms: C_4  and  N_5
REMARK    5  A    between atoms: C_9  and  C_10
REMARK    6  A    between atoms: C_10  and  N_11
REMARK    7  A    between atoms: C_12  and  C_14
REMARK    8  A    between atoms: C_14  and  C_15
REMARK                            x       y       z     vdW  Elec       q    Type
REMARK                         _______ _______ _______ _____ _____    ______ ____
ROOT
ATOM      1  N   UNL     1       4.079   3.767  17.170  0.00  0.00    +0.000 N 
ATOM      2  C   UNL     1       4.030   4.393  18.397  0.00  0.00    +0.000 C 
ATOM      3  O   UNL     1       4.974   4.343  19.185  0.00  0.00    +0.000 OA
ATOM      4  H   UNL     1       3.261   3.778  16.576  0.00  0.00    +0.000 HD
ENDROOT
BRANCH   2   5
ATOM      5  C   UNL     1       2.725   5.204  18.691  0.00  0.00    +0.000 C 
ATOM      6  C   UNL     1       2.840   6.594  18.047  0.00  0.00    +0.000 C 
ATOM      7  C   UNL     1       1.497   4.487  18.091  0.00  0.00    +0.000 C 
ATOM      8  C   UNL     1       1.109   3.234  18.873  0.00  0.00    +0.000 C 
ATOM      9  C   UNL     1       0.998   3.553  20.356  0.00  0.00    +0.000 C 
ATOM     10  C   UNL     1       2.246   4.266  20.854  0.00  0.00    +0.000 C 
ATOM     11  O   UNL     1       2.527   5.443  20.093  0.00  0.00    +0.000 OA
ENDBRANCH   2   5
BRANCH   1  12
ATOM     12  C   UNL     1       5.280   3.143  16.675  0.00  0.00    +0.000 C 
BRANCH  12  17
ATOM     13  N   UNL     1       6.119   4.327  14.573  0.00  0.00    +0.000 N 
ATOM     14  C   UNL     1       7.050   5.300  14.319  0.00  0.00    +0.000 A 
ATOM     15  N   UNL     1       7.602   5.754  15.421  0.00  0.00    +0.000 NA
ATOM     16  C   UNL     1       7.027   5.038  16.428  0.00  0.00    +0.000 A 
ATOM     17  C   UNL     1       6.094   4.140  15.944  0.00  0.00    +0.000 A 
BRANCH  13  18
ATOM     18  C   UNL     1       5.298   3.663  13.575  0.00  0.00    +0.000 C 
BRANCH  18  19
ATOM     19  C   UNL     1       6.018   3.280  12.278  0.00  0.00    +0.000 C 
BRANCH  19  21
ATOM     20  C   UNL     1       3.984   3.084  11.089  0.00  0.00    +0.000 C 
ATOM     21  O   UNL     1       5.174   2.430  11.501  0.00  0.00    +0.000 OA
ENDBRANCH  19  21
ENDBRANCH  18  19
ENDBRANCH  13  18
ENDBRANCH  12  17
ENDBRANCH   1  12
TORSDOF 6
ENDMDL
MODEL 7
REMARK VINA RESULT:      -6.3      1.552      1.975
REMARK  Name = 
REMARK  8 active torsions:
REMARK  status: ('A' for Active; 'I' for Inactive)
REMARK    1  A    between atoms: C_1  and  O_2
REMARK    2  A    between atoms: O_2  and  C_3
REMARK    3  A    between atoms: C_3  and  C_4
REMARK    4  A    between atoms: C_4  and  N_5
REMARK    5  A    between atoms: C_9  and  C_10
REMARK    6  A    between atoms: C_10  and  N_11
REMARK    7  A    between atoms: C_12  and  C_14
REMARK    8  A    between atoms: C_14  and  C_15
REMARK                            x       y       z     vdW  Elec       q    Type
REMARK                         _______ _______ _______ _____ _____    ______ ____
ROOT
ATOM      1  N   UNL     1       4.597   6.126  18.618  0.00  0.00    +0.000 N 
ATOM      2  C   UNL     1       5.873   5.604  18.580  0.00  0.00    +0.000 C 
ATOM      3  O   UNL     1       6.244   4.750  19.385  0.00  0.00    +0.000 OA
ATOM      4  H   UNL     1       4.347   6.870  17.981  0.00  0.00    +0.000 HD
ENDROOT
BRANCH   2   5
ATOM      5  C   UNL     1       6.785   6.132  17.425  0.00  0.00    +0.000 C 
ATOM      6  C   UNL     1       7.849   7.071  18.012  0.00  0.00    +0.000 C 
ATOM      7  C   UNL     1       7.501   4.959  16.723  0.00  0.00    +0.000 C 
ATOM      8  C   UNL     1       6.559   4.137  15.846  0.00  0.00    +0.000 C 
ATOM      9  C   UNL     1       5.774   5.050  14.916  0.00  0.00    +0.000 C 
ATOM     10  C   UNL     1       5.115   6.178  15.694  0.00  0.00    +0.000 C 
ATOM     11  O   UNL     1       6.062   6.920  16.465  0.00  0.00    +0.000 OA
ENDBRANCH   2   5
BRANCH   1  12
ATOM     12  C   UNL     1       3.581   5.605  19.499  0.00  0.00    +0.000 C 
BRANCH  12  17
ATOM     13  N   UNL     1       2.998   3.203  18.860  0.00  0.00    +0.000 N 
ATOM     14  C   UNL     1       2.096   2.622  18.008  0.00  0.00    +0.000 A 
ATOM     15  N   UNL     1       1.327   3.511  17.422  0.00  0.00    +0.000 NA
ATOM     16  C   UNL     1       1.757   4.716  17.892  0.00  0.00    +0.000 A 
ATOM     17  C   UNL     1       2.794   4.569  18.793  0.00  0.00    +0.000 A 
BRANCH  13  18
ATOM     18  C   UNL     1       3.950   2.490  19.694  0.00  0.00    +0.000 C 
BRANCH  18  19
ATOM     19  C   UNL     1       3.462   2.145  21.105  0.00  0.00    +0.000 C 
BRANCH  19  21
ATOM     20  C   UNL     1       1.246   2.636  21.764  0.00  0.00    +0.000 C 
ATOM     21  O   UNL     1       2.550   3.150  21.550  0.00  0.00    +0.000 OA
ENDBRANCH  19  21
ENDBRANCH  18  19
ENDBRANCH  13  18
ENDBRANCH  12  17
ENDBRANCH   1  12
TORSDOF 6
ENDMDL
MODEL 8
REMARK VINA RESULT:      -6.3      2.538      6.464
REMARK  Name = 
REMARK  8 active torsions:
REMARK  status: ('A' for Active; 'I' for Inactive)
REMARK    1  A    between atoms: C_1  and  O_2
REMARK    2  A    between atoms: O_2  and  C_3
REMARK    3  A    between atoms: C_3  and  C_4
REMARK    4  A    between atoms: C_4  and  N_5
REMARK    5  A    between atoms: C_9  and  C_10
REMARK    6  A    between atoms: C_10  and  N_11
REMARK    7  A    between atoms: C_12  and  C_14
REMARK    8  A    between atoms: C_14  and  C_15
REMARK                            x       y       z     vdW  Elec       q    Type
REMARK                         _______ _______ _______ _____ _____    ______ ____
ROOT
ATOM      1  N   UNL     1       3.716   4.702  18.240  0.00  0.00    +0.000 N 
ATOM      2  C   UNL     1       2.838   3.679  17.956  0.00  0.00    +0.000 C 
ATOM      3  O   UNL     1       2.091   3.723  16.978  0.00  0.00    +0.000 OA
ATOM      4  H   UNL     1       4.270   4.660  19.085  0.00  0.00    +0.000 HD
ENDROOT
BRANCH   2   5
ATOM      5  C   UNL     1       2.895   2.451  18.923  0.00  0.00    +0.000 C 
ATOM      6  C   UNL     1       3.805   1.373  18.315  0.00  0.00    +0.000 C 
ATOM      7  C   UNL     1       3.476   2.867  20.290  0.00  0.00    +0.000 C 
ATOM      8  C   UNL     1       2.496   3.699  21.115  0.00  0.00    +0.000 C 
ATOM      9  C   UNL     1       1.144   3.006  21.183  0.00  0.00    +0.000 C 
ATOM     10  C   UNL     1       0.659   2.625  19.793  0.00  0.00    +0.000 C 
ATOM     11  O   UNL     1       1.614   1.824  19.095  0.00  0.00    +0.000 OA
ENDBRANCH   2   5
BRANCH   1  12
ATOM     12  C   UNL     1       3.919   5.811  17.341  0.00  0.00    +0.000 C 
BRANCH  12  17
ATOM     13  N   UNL     1       6.091   5.096  16.205  0.00  0.00    +0.000 N 
ATOM     14  C   UNL     1       7.389   5.535  16.239  0.00  0.00    +0.000 A 
ATOM     15  N   UNL     1       7.532   6.595  17.002  0.00  0.00    +0.000 NA
ATOM     16  C   UNL     1       6.287   6.845  17.499  0.00  0.00    +0.000 A 
ATOM     17  C   UNL     1       5.359   5.938  17.024  0.00  0.00    +0.000 A 
BRANCH  13  18
ATOM     18  C   UNL     1       5.598   3.981  15.415  0.00  0.00    +0.000 C 
BRANCH  18  19
ATOM     19  C   UNL     1       6.192   3.856  14.008  0.00  0.00    +0.000 C 
BRANCH  19  21
ATOM     20  C   UNL     1       5.479   3.051  11.903  0.00  0.00    +0.000 C 
ATOM     21  O   UNL     1       5.134   3.812  13.050  0.00  0.00    +0.000 OA
ENDBRANCH  19  21
ENDBRANCH  18  19
ENDBRANCH  13  18
ENDBRANCH  12  17
ENDBRANCH   1  12
TORSDOF 6
ENDMDL
MODEL 9
REMARK VINA RESULT:      -6.3      2.248      6.281
REMARK  Name = 
REMARK  8 active torsions:
REMARK  status: ('A' for Active; 'I' for Inactive)
REMARK    1  A    between atoms: C_1  and  O_2
REMARK    2  A    between atoms: O_2  and  C_3
REMARK    3  A    between atoms: C_3  and  C_4
REMARK    4  A    between atoms: C_4  and  N_5
REMARK    5  A    between atoms: C_9  and  C_10
REMARK    6  A    between atoms: C_10  and  N_11
REMARK    7  A    between atoms: C_12  and  C_14
REMARK    8  A    between atoms: C_14  and  C_15
REMARK                            x       y       z     vdW  Elec       q    Type
REMARK                         _______ _______ _______ _____ _____    ______ ____
ROOT
ATOM      1  N   UNL     1       3.684   6.142  18.807  0.00  0.00    +0.000 N 
ATOM      2  C   UNL     1       2.774   5.135  18.568  0.00  0.00    +0.000 C 
ATOM      3  O   UNL     1       2.562   4.714  17.430  0.00  0.00    +0.000 OA
ATOM      4  H   UNL     1       3.786   6.505  19.744  0.00  0.00    +0.000 HD
ENDROOT
BRANCH   2   5
ATOM      5  C   UNL     1       2.075   4.541  19.834  0.00  0.00    +0.000 C 
ATOM      6  C   UNL     1       1.629   5.690  20.750  0.00  0.00    +0.000 C 
ATOM      7  C   UNL     1       0.829   3.725  19.430  0.00  0.00    +0.000 C 
ATOM      8  C   UNL     1       1.186   2.390  18.780  0.00  0.00    +0.000 C 
ATOM      9  C   UNL     1       2.188   1.636  19.641  0.00  0.00    +0.000 C 
ATOM     10  C   UNL     1       3.373   2.521  19.996  0.00  0.00    +0.000 C 
ATOM     11  O   UNL     1       2.962   3.736  20.627  0.00  0.00    +0.000 OA
ENDBRANCH   2   5
BRANCH   1  12
ATOM     12  C   UNL     1       4.545   6.660  17.772  0.00  0.00    +0.000 C 
BRANCH  12  17
ATOM     13  N   UNL     1       6.299   5.221  16.600  0.00  0.00    +0.000 N 
ATOM     14  C   UNL     1       7.424   4.550  17.003  0.00  0.00    +0.000 A 
ATOM     15  N   UNL     1       7.676   4.731  18.280  0.00  0.00    +0.000 NA
ATOM     16  C   UNL     1       6.668   5.530  18.731  0.00  0.00    +0.000 A 
ATOM     17  C   UNL     1       5.791   5.862  17.716  0.00  0.00    +0.000 A 
BRANCH  13  18
ATOM     18  C   UNL     1       5.784   5.265  15.243  0.00  0.00    +0.000 C 
BRANCH  18  19
ATOM     19  C   UNL     1       5.898   3.959  14.451  0.00  0.00    +0.000 C 
BRANCH  19  21
ATOM     20  C   UNL     1       6.333   3.357  12.207  0.00  0.00    +0.000 C 
ATOM     21  O   UNL     1       6.720   4.170  13.303  0.00  0.00    +0.000 OA
ENDBRANCH  19  21
ENDBRANCH  18  19
ENDBRANCH  13  18
ENDBRANCH  12  17
ENDBRANCH   1  12
TORSDOF 6
ENDMDL
