MODEL 1
REMARK VINA RESULT:      -6.5      0.000      0.000
REMARK  Name = 
REMARK  13 active torsions:
REMARK  status: ('A' for Active; 'I' for Inactive)
REMARK    1  A    between atoms: C_1  and  C_2
REMARK    2  A    between atoms: C_2  and  O_3
REMARK    3  A    between atoms: O_3  and  C_4
REMARK    4  A    between atoms: C_4  and  C_6
REMARK    5  A    between atoms: C_8  and  C_9
REMARK    6  A    between atoms: C_9  and  N_10
REMARK    7  A    between atoms: N_10  and  C_11
REMARK    8  A    between atoms: N_10  and  C_12
REMARK    9  A    between atoms: N_10  and  C_15
REMARK   10  A    between atoms: C_12  and  C_13
REMARK   11  A    between atoms: C_15  and  C_16
REMARK   12  A    between atoms: C_18  and  N_19
REMARK   13  A    between atoms: N_22  and  C_23
REMARK                            x       y       z     vdW  Elec       q    Type
REMARK                         _______ _______ _______ _____ _____    ______ ____
ROOT
ATOM      1  C   UNL     1       2.852   6.201  19.144  0.00  0.00    +0.000 A 
ATOM      2  C   UNL     1       3.624   6.254  17.990  0.00  0.00    +0.000 A 
ATOM      3  C   UNL     1       4.078   4.944  17.658  0.00  0.00    +0.000 A 
ATOM      4  C   UNL     1       3.701   4.170  18.747  0.00  0.00    +0.000 A 
ATOM      5  N   UNL     1       2.812   4.871  19.526  0.00  0.00    +0.000 N 
ATOM      6  C   UNL     1       1.866   4.311  20.479  0.00  0.00    +0.000 C 
ENDROOT
BRANCH   4   7
ATOM      7  N   UNL     1       4.051   2.833  19.100  0.00  0.00    +0.000 N 
ATOM      8  O   UNL     1       3.416   1.939  18.526  0.00  0.00    +0.000 OA
ATOM      9  O   UNL     1       4.954   2.691  19.917  0.00  0.00    +0.000 OA
ENDBRANCH   4   7
BRANCH   1  10
ATOM     10  C   UNL     1       2.133   7.276  19.802  0.00  0.00    +0.000 C 
ATOM     11  O   UNL     1       1.606   7.209  20.901  0.00  0.00    +0.000 OA
BRANCH  10  12
ATOM     12  O   UNL     1       2.027   8.314  18.931  0.00  0.00    +0.000 OA
BRANCH  12  14
ATOM     13  C   UNL     1       0.336   9.804  18.194  0.00  0.00    +0.000 C 
ATOM     14  C   UNL     1       1.198   9.390  19.377  0.00  0.00    +0.000 C 
ENDBRANCH  12  14
ENDBRANCH  10  12
ENDBRANCH   1  10
BRANCH   3  15
ATOM     15  C   UNL     1       4.862   4.594  16.417  0.00  0.00    +0.000 C 
BRANCH  15  16
ATOM     16  N   UNL     1       6.346   5.128  16.349  0.00  0.00    +0.000 N 
ATOM     17  C   UNL     1       7.142   4.353  17.415  0.00  0.00    +0.000 C 
BRANCH  16  18
ATOM     18  C   UNL     1       6.920   4.911  14.914  0.00  0.00    +0.000 C 
BRANCH  18  19
ATOM     19  C   UNL     1       6.125   4.019  13.942  0.00  0.00    +0.000 C 
ATOM     20 CL   UNL     1       6.867   3.901  12.333  0.00  0.00    +0.000 Cl
ENDBRANCH  18  19
ENDBRANCH  16  18
BRANCH  16  21
ATOM     21  C   UNL     1       6.398   6.626  16.783  0.00  0.00    +0.000 C 
BRANCH  21  22
ATOM     22  C   UNL     1       7.466   6.963  17.827  0.00  0.00    +0.000 C 
ATOM     23 CL   UNL     1       7.910   8.679  17.695  0.00  0.00    +0.000 Cl
ENDBRANCH  21  22
ENDBRANCH  16  21
ENDBRANCH  15  16
ENDBRANCH   3  15
TORSDOF 10
ENDMDL
MODEL 2
REMARK VINA RESULT:      -6.1      3.423      6.517
REMARK  Name = 
REMARK  13 active torsions:
REMARK  status: ('A' for Active; 'I' for Inactive)
REMARK    1  A    between atoms: C_1  and  C_2
REMARK    2  A    between atoms: C_2  and  O_3
REMARK    3  A    between atoms: O_3  and  C_4
REMARK    4  A    between atoms: C_4  and  C_6
REMARK    5  A    between atoms: C_8  and  C_9
REMARK    6  A    between atoms: C_9  and  N_10
REMARK    7  A    between atoms: N_10  and  C_11
REMARK    8  A    between atoms: N_10  and  C_12
REMARK    9  A    between atoms: N_10  and  C_15
REMARK   10  A    between atoms: C_12  and  C_13
REMARK   11  A    between atoms: C_15  and  C_16
REMARK   12  A    between atoms: C_18  and  N_19
REMARK   13  A    between atoms: N_22  and  C_23
REMARK                            x       y       z     vdW  Elec       q    Type
REMARK                         _______ _______ _______ _____ _____    ______ ____
ROOT
ATOM      1  C   UNL     1       6.007   5.362  15.666  0.00  0.00    +0.000 A 
ATOM      2  C   UNL     1       5.026   6.295  15.979  0.00  0.00    +0.000 A 
ATOM      3  C   UNL     1       4.941   6.444  17.394  0.00  0.00    +0.000 A 
ATOM      4  C   UNL     1       5.765   5.442  17.889  0.00  0.00    +0.000 A 
ATOM      5  N   UNL     1       6.539   4.937  16.871  0.00  0.00    +0.000 N 
ATOM      6  C   UNL     1       7.794   4.215  17.014  0.00  0.00    +0.000 C 
ENDROOT
BRANCH   4   7
ATOM      7  N   UNL     1       5.932   4.951  19.217  0.00  0.00    +0.000 N 
ATOM      8  O   UNL     1       5.211   3.996  19.534  0.00  0.00    +0.000 OA
ATOM      9  O   UNL     1       6.779   5.500  19.912  0.00  0.00    +0.000 OA
ENDBRANCH   4   7
BRANCH   1  10
ATOM     10  C   UNL     1       6.481   4.951  14.358  0.00  0.00    +0.000 C 
ATOM     11  O   UNL     1       7.400   5.465  13.742  0.00  0.00    +0.000 OA
BRANCH  10  12
ATOM     12  O   UNL     1       5.639   3.996  13.880  0.00  0.00    +0.000 OA
BRANCH  12  14
ATOM     13  C   UNL     1       4.716   3.327  11.801  0.00  0.00    +0.000 C 
ATOM     14  C   UNL     1       6.000   3.462  12.604  0.00  0.00    +0.000 C 
ENDBRANCH  12  14
ENDBRANCH  10  12
ENDBRANCH   1  10
BRANCH   3  15
ATOM     15  C   UNL     1       4.056   7.440  18.103  0.00  0.00    +0.000 C 
BRANCH  15  16
ATOM     16  N   UNL     1       2.561   6.999  18.351  0.00  0.00    +0.000 N 
ATOM     17  C   UNL     1       2.349   6.999  19.875  0.00  0.00    +0.000 C 
BRANCH  16  18
ATOM     18  C   UNL     1       1.592   7.983  17.622  0.00  0.00    +0.000 C 
BRANCH  18  19
ATOM     19  C   UNL     1       1.677   9.479  17.976  0.00  0.00    +0.000 C 
ATOM     20 CL   UNL     1       0.342  10.033  19.006  0.00  0.00    +0.000 Cl
ENDBRANCH  18  19
ENDBRANCH  16  18
BRANCH  16  21
ATOM     21  C   UNL     1       2.353   5.522  17.891  0.00  0.00    +0.000 C 
BRANCH  21  22
ATOM     22  C   UNL     1       1.887   4.560  18.987  0.00  0.00    +0.000 C 
ATOM     23 CL   UNL     1       1.351   3.033  18.253  0.00  0.00    +0.000 Cl
ENDBRANCH  21  22
ENDBRANCH  16  21
ENDBRANCH  15  16
ENDBRANCH   3  15
TORSDOF 10
ENDMDL
MODEL 3
REMARK VINA RESULT:      -6.1      1.103      3.054
REMARK  Name = 
REMARK  13 active torsions:
REMARK  status: ('A' for Active; 'I' for Inactive)
REMARK    1  A    between atoms: C_1  and  C_2
REMARK    2  A    between atoms: C_2  and  O_3
REMARK    3  A    between atoms: O_3  and  C_4
REMARK    4  A    between atoms: C_4  and  C_6
REMARK    5  A    between atoms: C_8  and  C_9
REMARK    6  A    between atoms: C_9  and  N_10
REMARK    7  A    between atoms: N_10  and  C_11
REMARK    8  A    between atoms: N_10  and  C_12
REMARK    9  A    between atoms: N_10  and  C_15
REMARK   10  A    between atoms: C_12  and  C_13
REMARK   11  A    between atoms: C_15  and  C_16
REMARK   12  A    between atoms: C_18  and  N_19
REMARK   13  A    between atoms: N_22  and  C_23
REMARK                            x       y       z     vdW  Elec       q    Type
REMARK                         _______ _______ _______ _____ _____    ______ ____
ROOT
ATOM      1  C   UNL     1       2.730   5.432  19.536  0.00  0.00    +0.000 A 
ATOM      2  C   UNL     1       3.329   5.520  18.285  0.00  0.00    +0.000 A 
ATOM      3  C   UNL     1       3.857   4.249  17.916  0.00  0.00    +0.000 A 
ATOM      4  C   UNL     1       3.709   3.477  19.061  0.00  0.00    +0.000 A 
ATOM      5  N   UNL     1       2.871   4.117  19.943  0.00  0.00    +0.000 N 
ATOM      6  C   UNL     1       2.122   3.501  21.028  0.00  0.00    +0.000 C 
ENDROOT
BRANCH   4   7
ATOM      7  N   UNL     1       4.231   2.190  19.386  0.00  0.00    +0.000 N 
ATOM      8  O   UNL     1       5.118   2.169  20.248  0.00  0.00    +0.000 OA
ATOM      9  O   UNL     1       3.744   1.229  18.801  0.00  0.00    +0.000 OA
ENDBRANCH   4   7
BRANCH   1  10
ATOM     10  C   UNL     1       2.008   6.455  20.268  0.00  0.00    +0.000 C 
ATOM     11  O   UNL     1       1.158   6.252  21.120  0.00  0.00    +0.000 OA
BRANCH  10  12
ATOM     12  O   UNL     1       2.334   7.666  19.743  0.00  0.00    +0.000 OA
BRANCH  12  14
ATOM     13  C   UNL     1       1.052   9.397  18.754  0.00  0.00    +0.000 C 
ATOM     14  C   UNL     1       1.428   8.724  20.065  0.00  0.00    +0.000 C 
ENDBRANCH  12  14
ENDBRANCH  10  12
ENDBRANCH   1  10
BRANCH   3  15
ATOM     15  C   UNL     1       4.495   3.935  16.585  0.00  0.00    +0.000 C 
BRANCH  15  16
ATOM     16  N   UNL     1       5.816   4.725  16.235  0.00  0.00    +0.000 N 
ATOM     17  C   UNL     1       5.388   6.152  15.852  0.00  0.00    +0.000 C 
BRANCH  16  18
ATOM     18  C   UNL     1       6.781   4.709  17.462  0.00  0.00    +0.000 C 
BRANCH  18  19
ATOM     19  C   UNL     1       6.964   6.015  18.258  0.00  0.00    +0.000 C 
ATOM     20 CL   UNL     1       8.234   5.910  19.494  0.00  0.00    +0.000 Cl
ENDBRANCH  18  19
ENDBRANCH  16  18
BRANCH  16  21
ATOM     21  C   UNL     1       6.480   4.121  14.958  0.00  0.00    +0.000 C 
BRANCH  21  22
ATOM     22  C   UNL     1       5.552   3.981  13.748  0.00  0.00    +0.000 C 
ATOM     23 CL   UNL     1       6.493   3.466  12.331  0.00  0.00    +0.000 Cl
ENDBRANCH  21  22
ENDBRANCH  16  21
ENDBRANCH  15  16
ENDBRANCH   3  15
TORSDOF 10
ENDMDL
MODEL 4
REMARK VINA RESULT:      -6.1      1.024      2.954
REMARK  Name = 
REMARK  13 active torsions:
REMARK  status: ('A' for Active; 'I' for Inactive)
REMARK    1  A    between atoms: C_1  and  C_2
REMARK    2  A    between atoms: C_2  and  O_3
REMARK    3  A    between atoms: O_3  and  C_4
REMARK    4  A    between atoms: C_4  and  C_6
REMARK    5  A    between atoms: C_8  and  C_9
REMARK    6  A    between atoms: C_9  and  N_10
REMARK    7  A    between atoms: N_10  and  C_11
REMARK    8  A    between atoms: N_10  and  C_12
REMARK    9  A    between atoms: N_10  and  C_15
REMARK   10  A    between atoms: C_12  and  C_13
REMARK   11  A    between atoms: C_15  and  C_16
REMARK   12  A    between atoms: C_18  and  N_19
REMARK   13  A    between atoms: N_22  and  C_23
REMARK                            x       y       z     vdW  Elec       q    Type
REMARK                         _______ _______ _______ _____ _____    ______ ____
ROOT
ATOM      1  C   UNL     1       2.741   6.409  18.941  0.00  0.00    +0.000 A 
ATOM      2  C   UNL     1       3.326   6.157  17.706  0.00  0.00    +0.000 A 
ATOM      3  C   UNL     1       3.706   4.785  17.627  0.00  0.00    +0.000 A 
ATOM      4  C   UNL     1       3.493   4.302  18.911  0.00  0.00    +0.000 A 
ATOM      5  N   UNL     1       2.744   5.206  19.626  0.00  0.00    +0.000 N 
ATOM      6  C   UNL     1       1.950   4.927  20.813  0.00  0.00    +0.000 C 
ENDROOT
BRANCH   4   7
ATOM      7  N   UNL     1       3.877   3.067  19.513  0.00  0.00    +0.000 N 
ATOM      8  O   UNL     1       3.027   2.167  19.487  0.00  0.00    +0.000 OA
ATOM      9  O   UNL     1       5.009   3.003  19.978  0.00  0.00    +0.000 OA
ENDBRANCH   4   7
BRANCH   1  10
ATOM     10  C   UNL     1       2.147   7.640  19.426  0.00  0.00    +0.000 C 
ATOM     11  O   UNL     1       1.891   7.893  20.592  0.00  0.00    +0.000 OA
BRANCH  10  12
ATOM     12  O   UNL     1       1.795   8.396  18.353  0.00  0.00    +0.000 OA
BRANCH  12  14
ATOM     13  C   UNL     1      -0.030   9.894  18.135  0.00  0.00    +0.000 C 
ATOM     14  C   UNL     1       1.386   9.730  18.666  0.00  0.00    +0.000 C 
ENDBRANCH  12  14
ENDBRANCH  10  12
ENDBRANCH   1  10
BRANCH   3  15
ATOM     15  C   UNL     1       4.284   4.122  16.401  0.00  0.00    +0.000 C 
BRANCH  15  16
ATOM     16  N   UNL     1       5.728   4.587  15.965  0.00  0.00    +0.000 N 
ATOM     17  C   UNL     1       5.575   5.997  15.368  0.00  0.00    +0.000 C 
BRANCH  16  18
ATOM     18  C   UNL     1       6.684   4.571  17.199  0.00  0.00    +0.000 C 
BRANCH  18  19
ATOM     19  C   UNL     1       7.267   5.912  17.682  0.00  0.00    +0.000 C 
ATOM     20 CL   UNL     1       7.906   5.842  19.337  0.00  0.00    +0.000 Cl
ENDBRANCH  18  19
ENDBRANCH  16  18
BRANCH  16  21
ATOM     21  C   UNL     1       6.254   3.687  14.803  0.00  0.00    +0.000 C 
BRANCH  21  22
ATOM     22  C   UNL     1       6.097   4.279  13.400  0.00  0.00    +0.000 C 
ATOM     23 CL   UNL     1       6.155   2.977  12.192  0.00  0.00    +0.000 Cl
ENDBRANCH  21  22
ENDBRANCH  16  21
ENDBRANCH  15  16
ENDBRANCH   3  15
TORSDOF 10
ENDMDL
MODEL 5
REMARK VINA RESULT:      -6.1      4.037      7.065
REMARK  Name = 
REMARK  13 active torsions:
REMARK  status: ('A' for Active; 'I' for Inactive)
REMARK    1  A    between atoms: C_1  and  C_2
REMARK    2  A    between atoms: C_2  and  O_3
REMARK    3  A    between atoms: O_3  and  C_4
REMARK    4  A    between atoms: C_4  and  C_6
REMARK    5  A    between atoms: C_8  and  C_9
REMARK    6  A    between atoms: C_9  and  N_10
REMARK    7  A    between atoms: N_10  and  C_11
REMARK    8  A    between atoms: N_10  and  C_12
REMARK    9  A    between atoms: N_10  and  C_15
REMARK   10  A    between atoms: C_12  and  C_13
REMARK   11  A    between atoms: C_15  and  C_16
REMARK   12  A    between atoms: C_18  and  N_19
REMARK   13  A    between atoms: N_22  and  C_23
REMARK                            x       y       z     vdW  Elec       q    Type
REMARK                         _______ _______ _______ _____ _____    ______ ____
ROOT
ATOM      1  C   UNL     1       5.675   4.274  14.174  0.00  0.00    +0.000 A 
ATOM      2  C   UNL     1       4.612   4.517  15.035  0.00  0.00    +0.000 A 
ATOM      3  C   UNL     1       5.056   5.315  16.129  0.00  0.00    +0.000 A 
ATOM      4  C   UNL     1       6.435   5.369  15.971  0.00  0.00    +0.000 A 
ATOM      5  N   UNL     1       6.772   4.921  14.716  0.00  0.00    +0.000 N 
ATOM      6  C   UNL     1       8.005   5.206  13.998  0.00  0.00    +0.000 C 
ENDROOT
BRANCH   4   7
ATOM      7  N   UNL     1       7.451   5.839  16.854  0.00  0.00    +0.000 N 
ATOM      8  O   UNL     1       7.943   4.992  17.611  0.00  0.00    +0.000 OA
ATOM      9  O   UNL     1       7.757   7.023  16.769  0.00  0.00    +0.000 OA
ENDBRANCH   4   7
BRANCH   1  10
ATOM     10  C   UNL     1       5.669   3.572  12.904  0.00  0.00    +0.000 C 
ATOM     11  O   UNL     1       6.640   3.058  12.373  0.00  0.00    +0.000 OA
BRANCH  10  12
ATOM     12  O   UNL     1       4.438   3.710  12.346  0.00  0.00    +0.000 OA
BRANCH  12  14
ATOM     13  C   UNL     1       3.275   3.798  10.282  0.00  0.00    +0.000 C 
ATOM     14  C   UNL     1       4.246   2.989  11.127  0.00  0.00    +0.000 C 
ENDBRANCH  12  14
ENDBRANCH  10  12
ENDBRANCH   1  10
BRANCH   3  15
ATOM     15  C   UNL     1       4.161   5.860  17.216  0.00  0.00    +0.000 C 
BRANCH  15  16
ATOM     16  N   UNL     1       3.604   4.813  18.258  0.00  0.00    +0.000 N 
ATOM     17  C   UNL     1       4.667   3.708  18.384  0.00  0.00    +0.000 C 
BRANCH  16  18
ATOM     18  C   UNL     1       3.327   5.522  19.621  0.00  0.00    +0.000 C 
BRANCH  18  19
ATOM     19  C   UNL     1       2.036   5.158  20.378  0.00  0.00    +0.000 C 
ATOM     20 CL   UNL     1       2.273   3.889  21.597  0.00  0.00    +0.000 Cl
ENDBRANCH  18  19
ENDBRANCH  16  18
BRANCH  16  21
ATOM     21  C   UNL     1       2.329   4.116  17.689  0.00  0.00    +0.000 C 
BRANCH  21  22
ATOM     22  C   UNL     1       2.391   2.586  17.645  0.00  0.00    +0.000 C 
ATOM     23 CL   UNL     1       1.404   1.910  18.959  0.00  0.00    +0.000 Cl
ENDBRANCH  21  22
ENDBRANCH  16  21
ENDBRANCH  15  16
ENDBRANCH   3  15
TORSDOF 10
ENDMDL
MODEL 6
REMARK VINA RESULT:      -6.0      3.406      6.423
REMARK  Name = 
REMARK  13 active torsions:
REMARK  status: ('A' for Active; 'I' for Inactive)
REMARK    1  A    between atoms: C_1  and  C_2
REMARK    2  A    between atoms: C_2  and  O_3
REMARK    3  A    between atoms: O_3  and  C_4
REMARK    4  A    between atoms: C_4  and  C_6
REMARK    5  A    between atoms: C_8  and  C_9
REMARK    6  A    between atoms: C_9  and  N_10
REMARK    7  A    between atoms: N_10  and  C_11
REMARK    8  A    between atoms: N_10  and  C_12
REMARK    9  A    between atoms: N_10  and  C_15
REMARK   10  A    between atoms: C_12  and  C_13
REMARK   11  A    between atoms: C_15  and  C_16
REMARK   12  A    between atoms: C_18  and  N_19
REMARK   13  A    between atoms: N_22  and  C_23
REMARK                            x       y       z     vdW  Elec       q    Type
REMARK                         _______ _______ _______ _____ _____    ______ ____
ROOT
ATOM      1  C   UNL     1       6.248   5.265  15.636  0.00  0.00    +0.000 A 
ATOM      2  C   UNL     1       5.201   6.154  15.847  0.00  0.00    +0.000 A 
ATOM      3  C   UNL     1       4.988   6.320  17.246  0.00  0.00    +0.000 A 
ATOM      4  C   UNL     1       5.813   5.367  17.829  0.00  0.00    +0.000 A 
ATOM      5  N   UNL     1       6.694   4.885  16.890  0.00  0.00    +0.000 N 
ATOM      6  C   UNL     1       7.966   4.228  17.153  0.00  0.00    +0.000 C 
ENDROOT
BRANCH   4   7
ATOM      7  N   UNL     1       5.888   4.904  19.175  0.00  0.00    +0.000 N 
ATOM      8  O   UNL     1       5.174   3.933  19.453  0.00  0.00    +0.000 OA
ATOM      9  O   UNL     1       6.660   5.492  19.923  0.00  0.00    +0.000 OA
ENDBRANCH   4   7
BRANCH   1  10
ATOM     10  C   UNL     1       6.851   4.858  14.381  0.00  0.00    +0.000 C 
ATOM     11  O   UNL     1       7.723   5.467  13.782  0.00  0.00    +0.000 OA
BRANCH  10  12
ATOM     12  O   UNL     1       6.184   3.768  13.921  0.00  0.00    +0.000 OA
BRANCH  12  14
ATOM     13  C   UNL     1       4.917   3.426  11.946  0.00  0.00    +0.000 C 
ATOM     14  C   UNL     1       6.322   3.526  12.518  0.00  0.00    +0.000 C 
ENDBRANCH  12  14
ENDBRANCH  10  12
ENDBRANCH   1  10
BRANCH   3  15
ATOM     15  C   UNL     1       3.999   7.282  17.858  0.00  0.00    +0.000 C 
BRANCH  15  16
ATOM     16  N   UNL     1       2.641   6.662  18.371  0.00  0.00    +0.000 N 
ATOM     17  C   UNL     1       2.489   5.298  17.677  0.00  0.00    +0.000 C 
BRANCH  16  18
ATOM     18  C   UNL     1       2.676   6.530  19.927  0.00  0.00    +0.000 C 
BRANCH  18  19
ATOM     19  C   UNL     1       1.612   5.646  20.603  0.00  0.00    +0.000 C 
ATOM     20 CL   UNL     1       2.280   4.158  21.304  0.00  0.00    +0.000 Cl
ENDBRANCH  18  19
ENDBRANCH  16  18
BRANCH  16  21
ATOM     21  C   UNL     1       1.438   7.527  17.882  0.00  0.00    +0.000 C 
BRANCH  21  22
ATOM     22  C   UNL     1       1.681   9.038  17.883  0.00  0.00    +0.000 C 
ATOM     23 CL   UNL     1       0.434   9.844  18.860  0.00  0.00    +0.000 Cl
ENDBRANCH  21  22
ENDBRANCH  16  21
ENDBRANCH  15  16
ENDBRANCH   3  15
TORSDOF 10
ENDMDL
MODEL 7
REMARK VINA RESULT:      -6.0      4.050      7.071
REMARK  Name = 
REMARK  13 active torsions:
REMARK  status: ('A' for Active; 'I' for Inactive)
REMARK    1  A    between atoms: C_1  and  C_2
REMARK    2  A    between atoms: C_2  and  O_3
REMARK    3  A    between atoms: O_3  and  C_4
REMARK    4  A    between atoms: C_4  and  C_6
REMARK    5  A    between atoms: C_8  and  C_9
REMARK    6  A    between atoms: C_9  and  N_10
REMARK    7  A    between atoms: N_10  and  C_11
REMARK    8  A    between atoms: N_10  and  C_12
REMARK    9  A    between atoms: N_10  and  C_15
REMARK   10  A    between atoms: C_12  and  C_13
REMARK   11  A    between atoms: C_15  and  C_16
REMARK   12  A    between atoms: C_18  and  N_19
REMARK   13  A    between atoms: N_22  and  C_23
REMARK                            x       y       z     vdW  Elec       q    Type
REMARK                         _______ _______ _______ _____ _____    ______ ____
ROOT
ATOM      1  C   UNL     1       5.725   4.208  13.867  0.00  0.00    +0.000 A 
ATOM      2  C   UNL     1       4.652   4.446  14.718  0.00  0.00    +0.000 A 
ATOM      3  C   UNL     1       5.091   5.205  15.841  0.00  0.00    +0.000 A 
ATOM      4  C   UNL     1       6.473   5.239  15.707  0.00  0.00    +0.000 A 
ATOM      5  N   UNL     1       6.823   4.820  14.445  0.00  0.00    +0.000 N 
ATOM      6  C   UNL     1       8.073   5.102  13.754  0.00  0.00    +0.000 C 
ENDROOT
BRANCH   4   7
ATOM      7  N   UNL     1       7.484   5.666  16.617  0.00  0.00    +0.000 N 
ATOM      8  O   UNL     1       7.751   6.874  16.599  0.00  0.00    +0.000 OA
ATOM      9  O   UNL     1       7.977   4.810  17.343  0.00  0.00    +0.000 OA
ENDBRANCH   4   7
BRANCH   1  10
ATOM     10  C   UNL     1       5.727   3.542  12.579  0.00  0.00    +0.000 C 
ATOM     11  O   UNL     1       6.601   2.797  12.166  0.00  0.00    +0.000 OA
BRANCH  10  12
ATOM     12  O   UNL     1       4.668   3.999  11.860  0.00  0.00    +0.000 OA
BRANCH  12  14
ATOM     13  C   UNL     1       3.190   3.729  10.025  0.00  0.00    +0.000 C 
ATOM     14  C   UNL     1       3.980   3.000  11.101  0.00  0.00    +0.000 C 
ENDBRANCH  12  14
ENDBRANCH  10  12
ENDBRANCH   1  10
BRANCH   3  15
ATOM     15  C   UNL     1       4.189   5.736  16.928  0.00  0.00    +0.000 C 
BRANCH  15  16
ATOM     16  N   UNL     1       3.915   4.771  18.147  0.00  0.00    +0.000 N 
ATOM     17  C   UNL     1       4.870   5.203  19.274  0.00  0.00    +0.000 C 
BRANCH  16  18
ATOM     18  C   UNL     1       2.417   4.872  18.575  0.00  0.00    +0.000 C 
BRANCH  18  19
ATOM     19  C   UNL     1       2.100   5.042  20.072  0.00  0.00    +0.000 C 
ATOM     20 CL   UNL     1       1.094   3.735  20.728  0.00  0.00    +0.000 Cl
ENDBRANCH  18  19
ENDBRANCH  16  18
BRANCH  16  21
ATOM     21  C   UNL     1       4.323   3.311  17.779  0.00  0.00    +0.000 C 
BRANCH  21  22
ATOM     22  C   UNL     1       3.193   2.281  17.858  0.00  0.00    +0.000 C 
ATOM     23 CL   UNL     1       3.714   0.897  18.844  0.00  0.00    +0.000 Cl
ENDBRANCH  21  22
ENDBRANCH  16  21
ENDBRANCH  15  16
ENDBRANCH   3  15
TORSDOF 10
ENDMDL
MODEL 8
REMARK VINA RESULT:      -5.9      1.130      1.421
REMARK  Name = 
REMARK  13 active torsions:
REMARK  status: ('A' for Active; 'I' for Inactive)
REMARK    1  A    between atoms: C_1  and  C_2
REMARK    2  A    between atoms: C_2  and  O_3
REMARK    3  A    between atoms: O_3  and  C_4
REMARK    4  A    between atoms: C_4  and  C_6
REMARK    5  A    between atoms: C_8  and  C_9
REMARK    6  A    between atoms: C_9  and  N_10
REMARK    7  A    between atoms: N_10  and  C_11
REMARK    8  A    between atoms: N_10  and  C_12
REMARK    9  A    between atoms: N_10  and  C_15
REMARK   10  A    between atoms: C_12  and  C_13
REMARK   11  A    between atoms: C_15  and  C_16
REMARK   12  A    between atoms: C_18  and  N_19
REMARK   13  A    between atoms: N_22  and  C_23
REMARK                            x       y       z     vdW  Elec       q    Type
REMARK                         _______ _______ _______ _____ _____    ______ ____
ROOT
ATOM      1  C   UNL     1       2.488   6.748  19.177  0.00  0.00    +0.000 A 
ATOM      2  C   UNL     1       3.418   6.733  18.144  0.00  0.00    +0.000 A 
ATOM      3  C   UNL     1       3.775   5.388  17.841  0.00  0.00    +0.000 A 
ATOM      4  C   UNL     1       3.170   4.643  18.845  0.00  0.00    +0.000 A 
ATOM      5  N   UNL     1       2.257   5.426  19.511  0.00  0.00    +0.000 N 
ATOM      6  C   UNL     1       1.132   4.957  20.306  0.00  0.00    +0.000 C 
ENDROOT
BRANCH   4   7
ATOM      7  N   UNL     1       3.325   3.272  19.205  0.00  0.00    +0.000 N 
ATOM      8  O   UNL     1       2.719   2.457  18.499  0.00  0.00    +0.000 OA
ATOM      9  O   UNL     1       4.054   3.027  20.159  0.00  0.00    +0.000 OA
ENDBRANCH   4   7
BRANCH   1  10
ATOM     10  C   UNL     1       1.799   7.885  19.758  0.00  0.00    +0.000 C 
ATOM     11  O   UNL     1       1.548   8.932  19.183  0.00  0.00    +0.000 OA
BRANCH  10  12
ATOM     12  O   UNL     1       1.611   7.639  21.081  0.00  0.00    +0.000 OA
BRANCH  12  14
ATOM     13  C   UNL     1      -0.287   8.641  22.087  0.00  0.00    +0.000 C 
ATOM     14  C   UNL     1       1.209   8.774  21.852  0.00  0.00    +0.000 C 
ENDBRANCH  12  14
ENDBRANCH  10  12
ENDBRANCH   1  10
BRANCH   3  15
ATOM     15  C   UNL     1       4.687   4.973  16.712  0.00  0.00    +0.000 C 
BRANCH  15  16
ATOM     16  N   UNL     1       6.231   5.223  16.927  0.00  0.00    +0.000 N 
ATOM     17  C   UNL     1       6.589   4.620  18.297  0.00  0.00    +0.000 C 
BRANCH  16  18
ATOM     18  C   UNL     1       7.039   4.565  15.765  0.00  0.00    +0.000 C 
BRANCH  18  19
ATOM     19  C   UNL     1       6.410   4.556  14.359  0.00  0.00    +0.000 C 
ATOM     20 CL   UNL     1       7.543   5.038  13.081  0.00  0.00    +0.000 Cl
ENDBRANCH  18  19
ENDBRANCH  16  18
BRANCH  16  21
ATOM     21  C   UNL     1       6.515   6.753  17.047  0.00  0.00    +0.000 C 
BRANCH  21  22
ATOM     22  C   UNL     1       7.709   7.125  17.930  0.00  0.00    +0.000 C 
ATOM     23 CL   UNL     1       8.028   8.868  17.800  0.00  0.00    +0.000 Cl
ENDBRANCH  21  22
ENDBRANCH  16  21
ENDBRANCH  15  16
ENDBRANCH   3  15
TORSDOF 10
ENDMDL
MODEL 9
REMARK VINA RESULT:      -5.9      1.813      3.942
REMARK  Name = 
REMARK  13 active torsions:
REMARK  status: ('A' for Active; 'I' for Inactive)
REMARK    1  A    between atoms: C_1  and  C_2
REMARK    2  A    between atoms: C_2  and  O_3
REMARK    3  A    between atoms: O_3  and  C_4
REMARK    4  A    between atoms: C_4  and  C_6
REMARK    5  A    between atoms: C_8  and  C_9
REMARK    6  A    between atoms: C_9  and  N_10
REMARK    7  A    between atoms: N_10  and  C_11
REMARK    8  A    between atoms: N_10  and  C_12
REMARK    9  A    between atoms: N_10  and  C_15
REMARK   10  A    between atoms: C_12  and  C_13
REMARK   11  A    between atoms: C_15  and  C_16
REMARK   12  A    between atoms: C_18  and  N_19
REMARK   13  A    between atoms: N_22  and  C_23
REMARK                            x       y       z     vdW  Elec       q    Type
REMARK                         _______ _______ _______ _____ _____    ______ ____
ROOT
ATOM      1  C   UNL     1       2.422   4.025  18.401  0.00  0.00    +0.000 A 
ATOM      2  C   UNL     1       3.529   4.316  17.614  0.00  0.00    +0.000 A 
ATOM      3  C   UNL     1       3.833   5.705  17.710  0.00  0.00    +0.000 A 
ATOM      4  C   UNL     1       2.765   6.236  18.423  0.00  0.00    +0.000 A 
ATOM      5  N   UNL     1       2.040   5.216  18.993  0.00  0.00    +0.000 N 
ATOM      6  C   UNL     1       1.142   5.324  20.133  0.00  0.00    +0.000 C 
ENDROOT
BRANCH   4   7
ATOM      7  N   UNL     1       2.390   7.591  18.660  0.00  0.00    +0.000 N 
ATOM      8  O   UNL     1       2.178   8.276  17.652  0.00  0.00    +0.000 OA
ATOM      9  O   UNL     1       2.294   7.945  19.829  0.00  0.00    +0.000 OA
ENDBRANCH   4   7
BRANCH   1  10
ATOM     10  C   UNL     1       1.809   2.736  18.658  0.00  0.00    +0.000 C 
ATOM     11  O   UNL     1       0.649   2.441  18.419  0.00  0.00    +0.000 OA
BRANCH  10  12
ATOM     12  O   UNL     1       2.700   1.967  19.337  0.00  0.00    +0.000 OA
BRANCH  12  14
ATOM     13  C   UNL     1       2.201   2.415  21.612  0.00  0.00    +0.000 C 
ATOM     14  C   UNL     1       3.242   2.572  20.514  0.00  0.00    +0.000 C 
ENDBRANCH  12  14
ENDBRANCH  10  12
ENDBRANCH   1  10
BRANCH   3  15
ATOM     15  C   UNL     1       5.026   6.372  17.070  0.00  0.00    +0.000 C 
BRANCH  15  16
ATOM     16  N   UNL     1       6.442   5.772  17.427  0.00  0.00    +0.000 N 
ATOM     17  C   UNL     1       6.406   5.417  18.924  0.00  0.00    +0.000 C 
BRANCH  16  18
ATOM     18  C   UNL     1       6.727   4.524  16.533  0.00  0.00    +0.000 C 
BRANCH  18  19
ATOM     19  C   UNL     1       7.054   4.757  15.046  0.00  0.00    +0.000 C 
ATOM     20 CL   UNL     1       6.121   3.717  13.951  0.00  0.00    +0.000 Cl
ENDBRANCH  18  19
ENDBRANCH  16  18
BRANCH  16  21
ATOM     21  C   UNL     1       7.543   6.867  17.274  0.00  0.00    +0.000 C 
BRANCH  21  22
ATOM     22  C   UNL     1       7.092   8.292  17.606  0.00  0.00    +0.000 C 
ATOM     23 CL   UNL     1       8.476   9.232  18.206  0.00  0.00    +0.000 Cl
ENDBRANCH  21  22
ENDBRANCH  16  21
ENDBRANCH  15  16
ENDBRANCH   3  15
TORSDOF 10
ENDMDL
