MODEL 1
REMARK VINA RESULT:      -8.8      0.000      0.000
REMARK  Name = 
REMARK  4 active torsions:
REMARK  status: ('A' for Active; 'I' for Inactive)
REMARK    1  A    between atoms: C_2  and  C_3
REMARK    2  A    between atoms: C_4  and  C_5
REMARK    3  A    between atoms: N_7  and  C_8
REMARK    4  A    between atoms: C_14  and  C_15
REMARK                            x       y       z     vdW  Elec       q    Type
REMARK                         _______ _______ _______ _____ _____    ______ ____
ROOT
ATOM      1  C   UNL     1       5.219   4.026  14.487  0.00  0.00    +0.000 C 
ATOM      2  C   UNL     1       5.370   4.321  15.808  0.00  0.00    +0.000 C 
ATOM      3  C   UNL     1       6.780   4.319  16.323  0.00  0.00    +0.000 C 
ATOM      4  O   UNL     1       7.577   4.604  15.219  0.00  0.00    +0.000 OA
ATOM      5  C   UNL     1       6.743   4.320  14.160  0.00  0.00    +0.000 C 
ENDROOT
BRANCH   3   6
ATOM      6  C   UNL     1       7.324   5.445  17.120  0.00  0.00    +0.000 A 
ATOM      7  C   UNL     1       7.241   6.731  16.570  0.00  0.00    +0.000 A 
ATOM      8  C   UNL     1       7.704   7.802  17.310  0.00  0.00    +0.000 A 
ATOM      9  C   UNL     1       8.175   7.579  18.604  0.00  0.00    +0.000 A 
ATOM     10  F   UNL     1       8.625   8.618  19.312  0.00  0.00    +0.000 F 
ATOM     11  C   UNL     1       8.169   6.320  19.194  0.00  0.00    +0.000 A 
ATOM     12  C   UNL     1       7.748   5.237  18.448  0.00  0.00    +0.000 A 
ENDBRANCH   3   6
BRANCH   2  13
ATOM     13  C   UNL     1       4.329   4.467  16.931  0.00  0.00    +0.000 C 
ATOM     14  O   UNL     1       3.937   5.593  17.251  0.00  0.00    +0.000 OA
ATOM     15  N   UNL     1       3.926   3.285  17.566  0.00  0.00    +0.000 N 
ATOM     16  H   UNL     1       4.345   2.404  17.338  0.00  0.00    +0.000 HD
BRANCH  15  17
ATOM     17  C   UNL     1       3.035   3.146  18.658  0.00  0.00    +0.000 A 
ATOM     18  C   UNL     1       1.657   3.036  18.454  0.00  0.00    +0.000 A 
ATOM     19  C   UNL     1       0.778   2.926  19.534  0.00  0.00    +0.000 A 
ATOM     20  C   UNL     1       1.279   2.956  20.833  0.00  0.00    +0.000 A 
ATOM     21  C   UNL     1       2.649   3.114  21.046  0.00  0.00    +0.000 A 
ATOM     22  C   UNL     1       3.529   3.210  19.965  0.00  0.00    +0.000 A 
ENDBRANCH  15  17
ENDBRANCH   2  13
BRANCH   1  24
ATOM     23  C   UNL     1       6.169   3.424  12.219  0.00  0.00    +0.000 C 
ATOM     24  C   UNL     1       5.116   3.696  13.013  0.00  0.00    +0.000 C 
ENDBRANCH   1  24
TORSDOF 4
ENDMDL
MODEL 2
REMARK VINA RESULT:      -8.8      0.137      1.002
REMARK  Name = 
REMARK  4 active torsions:
REMARK  status: ('A' for Active; 'I' for Inactive)
REMARK    1  A    between atoms: C_2  and  C_3
REMARK    2  A    between atoms: C_4  and  C_5
REMARK    3  A    between atoms: N_7  and  C_8
REMARK    4  A    between atoms: C_14  and  C_15
REMARK                            x       y       z     vdW  Elec       q    Type
REMARK                         _______ _______ _______ _____ _____    ______ ____
ROOT
ATOM      1  C   UNL     1       5.227   4.004  14.501  0.00  0.00    +0.000 C 
ATOM      2  C   UNL     1       5.370   4.317  15.818  0.00  0.00    +0.000 C 
ATOM      3  C   UNL     1       6.776   4.306  16.345  0.00  0.00    +0.000 C 
ATOM      4  O   UNL     1       7.586   4.562  15.244  0.00  0.00    +0.000 OA
ATOM      5  C   UNL     1       6.757   4.273  14.182  0.00  0.00    +0.000 C 
ENDROOT
BRANCH   3   6
ATOM      6  C   UNL     1       7.328   5.437  17.129  0.00  0.00    +0.000 A 
ATOM      7  C   UNL     1       7.263   6.716  16.560  0.00  0.00    +0.000 A 
ATOM      8  C   UNL     1       7.734   7.792  17.287  0.00  0.00    +0.000 A 
ATOM      9  C   UNL     1       8.194   7.582  18.587  0.00  0.00    +0.000 A 
ATOM     10  F   UNL     1       8.652   8.626  19.283  0.00  0.00    +0.000 F 
ATOM     11  C   UNL     1       8.170   6.332  19.196  0.00  0.00    +0.000 A 
ATOM     12  C   UNL     1       7.742   5.243  18.462  0.00  0.00    +0.000 A 
ENDBRANCH   3   6
BRANCH   2  13
ATOM     13  C   UNL     1       4.322   4.495  16.930  0.00  0.00    +0.000 C 
ATOM     14  O   UNL     1       3.882   5.623  17.173  0.00  0.00    +0.000 OA
ATOM     15  N   UNL     1       3.968   3.343  17.644  0.00  0.00    +0.000 N 
ATOM     16  H   UNL     1       4.425   2.466  17.475  0.00  0.00    +0.000 HD
BRANCH  15  17
ATOM     17  C   UNL     1       3.082   3.240  18.744  0.00  0.00    +0.000 A 
ATOM     18  C   UNL     1       3.557   2.952  20.027  0.00  0.00    +0.000 A 
ATOM     19  C   UNL     1       2.677   2.825  21.105  0.00  0.00    +0.000 A 
ATOM     20  C   UNL     1       1.307   2.957  20.894  0.00  0.00    +0.000 A 
ATOM     21  C   UNL     1       0.823   3.197  19.607  0.00  0.00    +0.000 A 
ATOM     22  C   UNL     1       1.703   3.337  18.532  0.00  0.00    +0.000 A 
ENDBRANCH  15  17
ENDBRANCH   2  13
BRANCH   1  24
ATOM     23  C   UNL     1       6.183   3.602  12.192  0.00  0.00    +0.000 C 
ATOM     24  C   UNL     1       5.131   3.652  13.032  0.00  0.00    +0.000 C 
ENDBRANCH   1  24
TORSDOF 4
ENDMDL
MODEL 3
REMARK VINA RESULT:      -8.8      0.223      1.044
REMARK  Name = 
REMARK  4 active torsions:
REMARK  status: ('A' for Active; 'I' for Inactive)
REMARK    1  A    between atoms: C_2  and  C_3
REMARK    2  A    between atoms: C_4  and  C_5
REMARK    3  A    between atoms: N_7  and  C_8
REMARK    4  A    between atoms: C_14  and  C_15
REMARK                            x       y       z     vdW  Elec       q    Type
REMARK                         _______ _______ _______ _____ _____    ______ ____
ROOT
ATOM      1  C   UNL     1       5.226   4.148  14.493  0.00  0.00    +0.000 C 
ATOM      2  C   UNL     1       5.325   4.456  15.815  0.00  0.00    +0.000 C 
ATOM      3  C   UNL     1       6.716   4.487  16.378  0.00  0.00    +0.000 C 
ATOM      4  O   UNL     1       7.546   4.778  15.300  0.00  0.00    +0.000 OA
ATOM      5  C   UNL     1       6.754   4.469  14.216  0.00  0.00    +0.000 C 
ENDROOT
BRANCH   3   6
ATOM      6  C   UNL     1       7.211   5.631  17.183  0.00  0.00    +0.000 A 
ATOM      7  C   UNL     1       7.786   5.348  18.429  0.00  0.00    +0.000 A 
ATOM      8  C   UNL     1       8.291   6.392  19.180  0.00  0.00    +0.000 A 
ATOM      9  C   UNL     1       8.275   7.680  18.647  0.00  0.00    +0.000 A 
ATOM     10  F   UNL     1       8.762   8.685  19.380  0.00  0.00    +0.000 F 
ATOM     11  C   UNL     1       7.797   7.955  17.370  0.00  0.00    +0.000 A 
ATOM     12  C   UNL     1       7.250   6.926  16.629  0.00  0.00    +0.000 A 
ENDBRANCH   3   6
BRANCH   2  13
ATOM     13  C   UNL     1       4.244   4.592  16.901  0.00  0.00    +0.000 C 
ATOM     14  O   UNL     1       3.809   5.712  17.187  0.00  0.00    +0.000 OA
ATOM     15  N   UNL     1       3.852   3.410  17.543  0.00  0.00    +0.000 N 
ATOM     16  H   UNL     1       4.303   2.537  17.344  0.00  0.00    +0.000 HD
BRANCH  15  17
ATOM     17  C   UNL     1       2.929   3.264  18.607  0.00  0.00    +0.000 A 
ATOM     18  C   UNL     1       1.617   2.843  18.370  0.00  0.00    +0.000 A 
ATOM     19  C   UNL     1       0.702   2.725  19.418  0.00  0.00    +0.000 A 
ATOM     20  C   UNL     1       1.091   3.061  20.713  0.00  0.00    +0.000 A 
ATOM     21  C   UNL     1       2.385   3.528  20.949  0.00  0.00    +0.000 A 
ATOM     22  C   UNL     1       3.304   3.632  19.903  0.00  0.00    +0.000 A 
ENDBRANCH  15  17
ENDBRANCH   2  13
BRANCH   1  24
ATOM     23  C   UNL     1       6.224   3.323  12.318  0.00  0.00    +0.000 C 
ATOM     24  C   UNL     1       5.179   3.802  13.020  0.00  0.00    +0.000 C 
ENDBRANCH   1  24
TORSDOF 4
ENDMDL
MODEL 4
REMARK VINA RESULT:      -8.6      0.246      1.451
REMARK  Name = 
REMARK  4 active torsions:
REMARK  status: ('A' for Active; 'I' for Inactive)
REMARK    1  A    between atoms: C_2  and  C_3
REMARK    2  A    between atoms: C_4  and  C_5
REMARK    3  A    between atoms: N_7  and  C_8
REMARK    4  A    between atoms: C_14  and  C_15
REMARK                            x       y       z     vdW  Elec       q    Type
REMARK                         _______ _______ _______ _____ _____    ______ ____
ROOT
ATOM      1  C   UNL     1       5.321   4.202  14.426  0.00  0.00    +0.000 C 
ATOM      2  C   UNL     1       5.413   4.470  15.757  0.00  0.00    +0.000 C 
ATOM      3  C   UNL     1       6.803   4.510  16.324  0.00  0.00    +0.000 C 
ATOM      4  O   UNL     1       7.627   4.851  15.257  0.00  0.00    +0.000 OA
ATOM      5  C   UNL     1       6.843   4.562  14.162  0.00  0.00    +0.000 C 
ENDROOT
BRANCH   3   6
ATOM      6  C   UNL     1       7.274   5.636  17.166  0.00  0.00    +0.000 A 
ATOM      7  C   UNL     1       7.838   5.325  18.410  0.00  0.00    +0.000 A 
ATOM      8  C   UNL     1       8.321   6.353  19.196  0.00  0.00    +0.000 A 
ATOM      9  C   UNL     1       8.297   7.656  18.698  0.00  0.00    +0.000 A 
ATOM     10  F   UNL     1       8.763   8.645  19.465  0.00  0.00    +0.000 F 
ATOM     11  C   UNL     1       7.831   7.960  17.424  0.00  0.00    +0.000 A 
ATOM     12  C   UNL     1       7.306   6.946  16.648  0.00  0.00    +0.000 A 
ENDBRANCH   3   6
BRANCH   2  13
ATOM     13  C   UNL     1       4.328   4.549  16.845  0.00  0.00    +0.000 C 
ATOM     14  O   UNL     1       3.859   5.649  17.154  0.00  0.00    +0.000 OA
ATOM     15  N   UNL     1       3.974   3.343  17.464  0.00  0.00    +0.000 N 
ATOM     16  H   UNL     1       4.453   2.489  17.248  0.00  0.00    +0.000 HD
BRANCH  15  17
ATOM     17  C   UNL     1       3.057   3.146  18.524  0.00  0.00    +0.000 A 
ATOM     18  C   UNL     1       3.475   3.202  19.857  0.00  0.00    +0.000 A 
ATOM     19  C   UNL     1       2.573   2.981  20.901  0.00  0.00    +0.000 A 
ATOM     20  C   UNL     1       1.247   2.672  20.610  0.00  0.00    +0.000 A 
ATOM     21  C   UNL     1       0.834   2.568  19.280  0.00  0.00    +0.000 A 
ATOM     22  C   UNL     1       1.732   2.802  18.238  0.00  0.00    +0.000 A 
ENDBRANCH  15  17
ENDBRANCH   2  13
BRANCH   1  24
ATOM     23  C   UNL     1       6.028   2.959  12.337  0.00  0.00    +0.000 C 
ATOM     24  C   UNL     1       5.283   3.903  12.942  0.00  0.00    +0.000 C 
ENDBRANCH   1  24
TORSDOF 4
ENDMDL
MODEL 5
REMARK VINA RESULT:      -7.9      4.519      6.282
REMARK  Name = 
REMARK  4 active torsions:
REMARK  status: ('A' for Active; 'I' for Inactive)
REMARK    1  A    between atoms: C_2  and  C_3
REMARK    2  A    between atoms: C_4  and  C_5
REMARK    3  A    between atoms: N_7  and  C_8
REMARK    4  A    between atoms: C_14  and  C_15
REMARK                            x       y       z     vdW  Elec       q    Type
REMARK                         _______ _______ _______ _____ _____    ______ ____
ROOT
ATOM      1  C   UNL     1       4.739   6.868  17.500  0.00  0.00    +0.000 C 
ATOM      2  C   UNL     1       3.478   6.644  17.961  0.00  0.00    +0.000 C 
ATOM      3  C   UNL     1       2.985   5.230  17.861  0.00  0.00    +0.000 C 
ATOM      4  O   UNL     1       4.128   4.437  17.884  0.00  0.00    +0.000 OA
ATOM      5  C   UNL     1       5.124   5.330  17.555  0.00  0.00    +0.000 C 
ENDROOT
BRANCH   3   6
ATOM      6  C   UNL     1       2.368   4.531  19.014  0.00  0.00    +0.000 A 
ATOM      7  C   UNL     1       1.337   3.620  18.746  0.00  0.00    +0.000 A 
ATOM      8  C   UNL     1       0.773   2.926  19.799  0.00  0.00    +0.000 A 
ATOM      9  C   UNL     1       1.292   3.102  21.082  0.00  0.00    +0.000 A 
ATOM     10  F   UNL     1       0.739   2.430  22.096  0.00  0.00    +0.000 F 
ATOM     11  C   UNL     1       2.380   3.929  21.342  0.00  0.00    +0.000 A 
ATOM     12  C   UNL     1       2.922   4.660  20.303  0.00  0.00    +0.000 A 
ENDBRANCH   3   6
BRANCH   2  13
ATOM     13  C   UNL     1       2.375   7.626  18.394  0.00  0.00    +0.000 C 
ATOM     14  O   UNL     1       1.747   8.249  17.533  0.00  0.00    +0.000 OA
ATOM     15  N   UNL     1       2.189   7.787  19.773  0.00  0.00    +0.000 N 
ATOM     16  H   UNL     1       2.789   7.332  20.435  0.00  0.00    +0.000 HD
BRANCH  15  17
ATOM     17  C   UNL     1       1.292   8.662  20.432  0.00  0.00    +0.000 A 
ATOM     18  C   UNL     1       0.852   9.839  19.819  0.00  0.00    +0.000 A 
ATOM     19  C   UNL     1      -0.012  10.713  20.482  0.00  0.00    +0.000 A 
ATOM     20  C   UNL     1      -0.417  10.425  21.782  0.00  0.00    +0.000 A 
ATOM     21  C   UNL     1       0.057   9.276  22.419  0.00  0.00    +0.000 A 
ATOM     22  C   UNL     1       0.909   8.395  21.751  0.00  0.00    +0.000 A 
ENDBRANCH  15  17
ENDBRANCH   2  13
BRANCH   1  24
ATOM     23  C   UNL     1       7.260   6.680  17.637  0.00  0.00    +0.000 C 
ATOM     24  C   UNL     1       6.147   7.054  16.977  0.00  0.00    +0.000 C 
ENDBRANCH   1  24
TORSDOF 4
ENDMDL
MODEL 6
REMARK VINA RESULT:      -7.8      4.364      6.149
REMARK  Name = 
REMARK  4 active torsions:
REMARK  status: ('A' for Active; 'I' for Inactive)
REMARK    1  A    between atoms: C_2  and  C_3
REMARK    2  A    between atoms: C_4  and  C_5
REMARK    3  A    between atoms: N_7  and  C_8
REMARK    4  A    between atoms: C_14  and  C_15
REMARK                            x       y       z     vdW  Elec       q    Type
REMARK                         _______ _______ _______ _____ _____    ______ ____
ROOT
ATOM      1  C   UNL     1       5.111   6.700  17.387  0.00  0.00    +0.000 C 
ATOM      2  C   UNL     1       3.821   6.546  17.795  0.00  0.00    +0.000 C 
ATOM      3  C   UNL     1       3.264   5.155  17.695  0.00  0.00    +0.000 C 
ATOM      4  O   UNL     1       4.365   4.308  17.782  0.00  0.00    +0.000 OA
ATOM      5  C   UNL     1       5.417   5.146  17.484  0.00  0.00    +0.000 C 
ENDROOT
BRANCH   3   6
ATOM      6  C   UNL     1       2.564   4.508  18.831  0.00  0.00    +0.000 A 
ATOM      7  C   UNL     1       1.453   3.706  18.538  0.00  0.00    +0.000 A 
ATOM      8  C   UNL     1       0.807   3.060  19.574  0.00  0.00    +0.000 A 
ATOM      9  C   UNL     1       1.321   3.170  20.866  0.00  0.00    +0.000 A 
ATOM     10  F   UNL     1       0.690   2.545  21.864  0.00  0.00    +0.000 F 
ATOM     11  C   UNL     1       2.481   3.883  21.151  0.00  0.00    +0.000 A 
ATOM     12  C   UNL     1       3.109   4.568  20.130  0.00  0.00    +0.000 A 
ENDBRANCH   3   6
BRANCH   2  13
ATOM     13  C   UNL     1       2.750   7.587  18.162  0.00  0.00    +0.000 C 
ATOM     14  O   UNL     1       2.327   8.354  17.292  0.00  0.00    +0.000 OA
ATOM     15  N   UNL     1       2.355   7.629  19.506  0.00  0.00    +0.000 N 
ATOM     16  H   UNL     1       2.798   7.051  20.196  0.00  0.00    +0.000 HD
BRANCH  15  17
ATOM     17  C   UNL     1       1.441   8.521  20.115  0.00  0.00    +0.000 A 
ATOM     18  C   UNL     1       0.840   8.213  21.339  0.00  0.00    +0.000 A 
ATOM     19  C   UNL     1      -0.082   9.083  21.925  0.00  0.00    +0.000 A 
ATOM     20  C   UNL     1      -0.431  10.260  21.267  0.00  0.00    +0.000 A 
ATOM     21  C   UNL     1       0.128  10.551  20.021  0.00  0.00    +0.000 A 
ATOM     22  C   UNL     1       1.060   9.687  19.442  0.00  0.00    +0.000 A 
ENDBRANCH  15  17
ENDBRANCH   2  13
BRANCH   1  24
ATOM     23  C   UNL     1       7.501   7.517  17.560  0.00  0.00    +0.000 C 
ATOM     24  C   UNL     1       6.548   6.808  16.924  0.00  0.00    +0.000 C 
ENDBRANCH   1  24
TORSDOF 4
ENDMDL
MODEL 7
REMARK VINA RESULT:      -7.8      3.784      5.682
REMARK  Name = 
REMARK  4 active torsions:
REMARK  status: ('A' for Active; 'I' for Inactive)
REMARK    1  A    between atoms: C_2  and  C_3
REMARK    2  A    between atoms: C_4  and  C_5
REMARK    3  A    between atoms: N_7  and  C_8
REMARK    4  A    between atoms: C_14  and  C_15
REMARK                            x       y       z     vdW  Elec       q    Type
REMARK                         _______ _______ _______ _____ _____    ______ ____
ROOT
ATOM      1  C   UNL     1       2.830   3.540  20.245  0.00  0.00    +0.000 C 
ATOM      2  C   UNL     1       3.279   4.568  19.474  0.00  0.00    +0.000 C 
ATOM      3  C   UNL     1       4.768   4.653  19.298  0.00  0.00    +0.000 C 
ATOM      4  O   UNL     1       5.235   3.354  19.462  0.00  0.00    +0.000 OA
ATOM      5  C   UNL     1       4.191   2.736  20.116  0.00  0.00    +0.000 C 
ENDROOT
BRANCH   3   6
ATOM      6  C   UNL     1       5.391   4.805  17.961  0.00  0.00    +0.000 A 
ATOM      7  C   UNL     1       6.458   5.705  17.839  0.00  0.00    +0.000 A 
ATOM      8  C   UNL     1       7.082   5.834  16.614  0.00  0.00    +0.000 A 
ATOM      9  C   UNL     1       6.679   5.017  15.558  0.00  0.00    +0.000 A 
ATOM     10  F   UNL     1       7.284   5.150  14.375  0.00  0.00    +0.000 F 
ATOM     11  C   UNL     1       5.688   4.051  15.697  0.00  0.00    +0.000 A 
ATOM     12  C   UNL     1       5.028   3.944  16.905  0.00  0.00    +0.000 A 
ENDBRANCH   3   6
BRANCH   2  13
ATOM     13  C   UNL     1       2.544   5.791  18.900  0.00  0.00    +0.000 C 
ATOM     14  O   UNL     1       2.086   5.740  17.755  0.00  0.00    +0.000 OA
ATOM     15  N   UNL     1       2.488   6.927  19.719  0.00  0.00    +0.000 N 
ATOM     16  H   UNL     1       2.960   6.953  20.603  0.00  0.00    +0.000 HD
BRANCH  15  17
ATOM     17  C   UNL     1       1.930   8.192  19.413  0.00  0.00    +0.000 A 
ATOM     18  C   UNL     1       2.205   8.826  18.198  0.00  0.00    +0.000 A 
ATOM     19  C   UNL     1       1.674  10.085  17.910  0.00  0.00    +0.000 A 
ATOM     20  C   UNL     1       0.885  10.732  18.858  0.00  0.00    +0.000 A 
ATOM     21  C   UNL     1       0.646  10.126  20.093  0.00  0.00    +0.000 A 
ATOM     22  C   UNL     1       1.165   8.861  20.375  0.00  0.00    +0.000 A 
ENDBRANCH  15  17
ENDBRANCH   2  13
BRANCH   1  24
ATOM     23  C   UNL     1       1.396   2.434  22.014  0.00  0.00    +0.000 C 
ATOM     24  C   UNL     1       2.391   2.376  21.108  0.00  0.00    +0.000 C 
ENDBRANCH   1  24
TORSDOF 4
ENDMDL
MODEL 8
REMARK VINA RESULT:      -7.8      4.225      6.012
REMARK  Name = 
REMARK  4 active torsions:
REMARK  status: ('A' for Active; 'I' for Inactive)
REMARK    1  A    between atoms: C_2  and  C_3
REMARK    2  A    between atoms: C_4  and  C_5
REMARK    3  A    between atoms: N_7  and  C_8
REMARK    4  A    between atoms: C_14  and  C_15
REMARK                            x       y       z     vdW  Elec       q    Type
REMARK                         _______ _______ _______ _____ _____    ______ ____
ROOT
ATOM      1  C   UNL     1       5.440   6.639  17.484  0.00  0.00    +0.000 C 
ATOM      2  C   UNL     1       4.125   6.430  17.769  0.00  0.00    +0.000 C 
ATOM      3  C   UNL     1       3.630   5.024  17.584  0.00  0.00    +0.000 C 
ATOM      4  O   UNL     1       4.749   4.213  17.749  0.00  0.00    +0.000 OA
ATOM      5  C   UNL     1       5.792   5.095  17.569  0.00  0.00    +0.000 C 
ENDROOT
BRANCH   3   6
ATOM      6  C   UNL     1       2.855   4.322  18.635  0.00  0.00    +0.000 A 
ATOM      7  C   UNL     1       3.470   4.132  19.879  0.00  0.00    +0.000 A 
ATOM      8  C   UNL     1       2.754   3.516  20.888  0.00  0.00    +0.000 A 
ATOM      9  C   UNL     1       1.423   3.168  20.658  0.00  0.00    +0.000 A 
ATOM     10  F   UNL     1       0.738   2.569  21.637  0.00  0.00    +0.000 F 
ATOM     11  C   UNL     1       0.774   3.442  19.459  0.00  0.00    +0.000 A 
ATOM     12  C   UNL     1       1.494   4.018  18.430  0.00  0.00    +0.000 A 
ENDBRANCH   3   6
BRANCH   2  13
ATOM     13  C   UNL     1       2.988   7.423  18.064  0.00  0.00    +0.000 C 
ATOM     14  O   UNL     1       2.567   8.148  17.157  0.00  0.00    +0.000 OA
ATOM     15  N   UNL     1       2.532   7.475  19.387  0.00  0.00    +0.000 N 
ATOM     16  H   UNL     1       2.972   6.936  20.110  0.00  0.00    +0.000 HD
BRANCH  15  17
ATOM     17  C   UNL     1       1.548   8.333  19.934  0.00  0.00    +0.000 A 
ATOM     18  C   UNL     1       1.149   9.492  19.262  0.00  0.00    +0.000 A 
ATOM     19  C   UNL     1       0.197  10.351  19.816  0.00  0.00    +0.000 A 
ATOM     20  C   UNL     1      -0.340  10.065  21.069  0.00  0.00    +0.000 A 
ATOM     21  C   UNL     1       0.089   8.935  21.767  0.00  0.00    +0.000 A 
ATOM     22  C   UNL     1       1.030   8.070  21.207  0.00  0.00    +0.000 A 
ENDBRANCH  15  17
ENDBRANCH   2  13
BRANCH   1  24
ATOM     23  C   UNL     1       7.650   7.873  17.520  0.00  0.00    +0.000 C 
ATOM     24  C   UNL     1       6.908   6.809  17.156  0.00  0.00    +0.000 C 
ENDBRANCH   1  24
TORSDOF 4
ENDMDL
MODEL 9
REMARK VINA RESULT:      -7.8      4.848      6.634
REMARK  Name = 
REMARK  4 active torsions:
REMARK  status: ('A' for Active; 'I' for Inactive)
REMARK    1  A    between atoms: C_2  and  C_3
REMARK    2  A    between atoms: C_4  and  C_5
REMARK    3  A    between atoms: N_7  and  C_8
REMARK    4  A    between atoms: C_14  and  C_15
REMARK                            x       y       z     vdW  Elec       q    Type
REMARK                         _______ _______ _______ _____ _____    ______ ____
ROOT
ATOM      1  C   UNL     1       4.737   6.754  17.433  0.00  0.00    +0.000 C 
ATOM      2  C   UNL     1       3.513   6.607  18.010  0.00  0.00    +0.000 C 
ATOM      3  C   UNL     1       2.874   5.257  17.857  0.00  0.00    +0.000 C 
ATOM      4  O   UNL     1       3.929   4.364  17.695  0.00  0.00    +0.000 OA
ATOM      5  C   UNL     1       4.970   5.188  17.329  0.00  0.00    +0.000 C 
ENDROOT
BRANCH   3   6
ATOM      6  C   UNL     1       2.311   4.520  19.015  0.00  0.00    +0.000 A 
ATOM      7  C   UNL     1       1.192   3.708  18.787  0.00  0.00    +0.000 A 
ATOM      8  C   UNL     1       0.673   2.981  19.840  0.00  0.00    +0.000 A 
ATOM      9  C   UNL     1       1.318   3.022  21.076  0.00  0.00    +0.000 A 
ATOM     10  F   UNL     1       0.808   2.319  22.091  0.00  0.00    +0.000 F 
ATOM     11  C   UNL     1       2.486   3.747  21.285  0.00  0.00    +0.000 A 
ATOM     12  C   UNL     1       2.989   4.512  20.251  0.00  0.00    +0.000 A 
ENDBRANCH   3   6
BRANCH   2  13
ATOM     13  C   UNL     1       2.563   7.643  18.634  0.00  0.00    +0.000 C 
ATOM     14  O   UNL     1       2.282   7.563  19.834  0.00  0.00    +0.000 OA
ATOM     15  N   UNL     1       2.027   8.603  17.765  0.00  0.00    +0.000 N 
ATOM     16  H   UNL     1       2.208   8.569  16.779  0.00  0.00    +0.000 HD
BRANCH  15  17
ATOM     17  C   UNL     1       1.092   9.622  18.066  0.00  0.00    +0.000 A 
ATOM     18  C   UNL     1      -0.266   9.461  17.778  0.00  0.00    +0.000 A 
ATOM     19  C   UNL     1      -1.183  10.480  18.051  0.00  0.00    +0.000 A 
ATOM     20  C   UNL     1      -0.733  11.682  18.590  0.00  0.00    +0.000 A 
ATOM     21  C   UNL     1       0.628  11.868  18.835  0.00  0.00    +0.000 A 
ATOM     22  C   UNL     1       1.542  10.845  18.574  0.00  0.00    +0.000 A 
ENDBRANCH  15  17
ENDBRANCH   2  13
BRANCH   1  24
ATOM     23  C   UNL     1       7.191   7.369  17.367  0.00  0.00    +0.000 C 
ATOM     24  C   UNL     1       6.096   6.856  16.774  0.00  0.00    +0.000 C 
ENDBRANCH   1  24
TORSDOF 4
ENDMDL
