MODEL 1
REMARK VINA RESULT:      -8.2      0.000      0.000
REMARK  Name = 
REMARK  4 active torsions:
REMARK  status: ('A' for Active; 'I' for Inactive)
REMARK    1  A    between atoms: S_2  and  C_4
REMARK    2  A    between atoms: S_2  and  N_14
REMARK    3  A    between atoms: N_17  and  C_18
REMARK    4  A    between atoms: C_18  and  C_19
REMARK                            x       y       z     vdW  Elec       q    Type
REMARK                         _______ _______ _______ _____ _____    ______ ____
ROOT
ATOM      1  O   UNL     1       3.767   5.515  20.188  0.00  0.00    +0.000 OA
ATOM      2  S   UNL     1       3.077   5.837  18.952  0.00  0.00    +0.000 S 
ATOM      3  O   UNL     1       2.147   4.883  18.384  0.00  0.00    +0.000 OA
ENDROOT
BRANCH   2   4
ATOM      4  C   UNL     1       2.176   7.366  19.243  0.00  0.00    +0.000 A 
ATOM      5  C   UNL     1       2.096   8.385  18.287  0.00  0.00    +0.000 A 
ATOM      6  C   UNL     1       1.440   9.592  18.584  0.00  0.00    +0.000 A 
ATOM      7  C   UNL     1       0.897   9.823  19.861  0.00  0.00    +0.000 A 
ATOM      8  C   UNL     1       0.241  11.023  20.194  0.00  0.00    +0.000 A 
ATOM      9  C   UNL     1      -0.287  11.215  21.473  0.00  0.00    +0.000 A 
ATOM     10  C   UNL     1      -0.153  10.219  22.436  0.00  0.00    +0.000 A 
ATOM     11  C   UNL     1       0.516   9.035  22.126  0.00  0.00    +0.000 A 
ATOM     12  C   UNL     1       1.039   8.819  20.843  0.00  0.00    +0.000 A 
ATOM     13  C   UNL     1       1.691   7.611  20.531  0.00  0.00    +0.000 A 
ENDBRANCH   2   4
BRANCH   2  14
ATOM     14  N   UNL     1       4.303   6.145  17.828  0.00  0.00    +0.000 NA
ATOM     15  C   UNL     1       5.692   5.927  18.340  0.00  0.00    +0.000 C 
ATOM     16  C   UNL     1       6.151   4.455  18.231  0.00  0.00    +0.000 C 
ATOM     17  N   UNL     1       6.136   3.949  16.842  0.00  0.00    +0.000 NA
ATOM     18  C   UNL     1       4.741   4.064  16.359  0.00  0.00    +0.000 C 
ATOM     19  C   UNL     1       4.095   5.468  16.478  0.00  0.00    +0.000 C 
BRANCH  17  20
ATOM     20  C   UNL     1       7.092   4.758  16.064  0.00  0.00    +0.000 C 
BRANCH  20  21
ATOM     21  C   UNL     1       7.009   4.707  14.562  0.00  0.00    +0.000 A 
ATOM     22  C   UNL     1       6.237   3.749  13.920  0.00  0.00    +0.000 A 
ATOM     23  C   UNL     1       6.392   3.595  12.547  0.00  0.00    +0.000 A 
ATOM     24  C   UNL     1       7.293   4.405  11.862  0.00  0.00    +0.000 A 
ATOM     25  C   UNL     1       7.994   5.360  12.578  0.00  0.00    +0.000 A 
ATOM     26  N   UNL     1       7.868   5.531  13.903  0.00  0.00    +0.000 NA
ENDBRANCH  20  21
ENDBRANCH  17  20
ENDBRANCH   2  14
TORSDOF 4
ENDMDL
MODEL 2
REMARK VINA RESULT:      -7.7      4.776      7.201
REMARK  Name = 
REMARK  4 active torsions:
REMARK  status: ('A' for Active; 'I' for Inactive)
REMARK    1  A    between atoms: S_2  and  C_4
REMARK    2  A    between atoms: S_2  and  N_14
REMARK    3  A    between atoms: N_17  and  C_18
REMARK    4  A    between atoms: C_18  and  C_19
REMARK                            x       y       z     vdW  Elec       q    Type
REMARK                         _______ _______ _______ _____ _____    ______ ____
ROOT
ATOM      1  O   UNL     1       7.885   6.731  16.451  0.00  0.00    +0.000 OA
ATOM      2  S   UNL     1       7.599   7.034  17.841  0.00  0.00    +0.000 S 
ATOM      3  O   UNL     1       8.256   6.278  18.888  0.00  0.00    +0.000 OA
ENDROOT
BRANCH   2   4
ATOM      4  C   UNL     1       8.005   8.768  18.089  0.00  0.00    +0.000 A 
ATOM      5  C   UNL     1       7.545   9.777  17.234  0.00  0.00    +0.000 A 
ATOM      6  C   UNL     1       7.946  11.111  17.425  0.00  0.00    +0.000 A 
ATOM      7  C   UNL     1       8.855  11.453  18.442  0.00  0.00    +0.000 A 
ATOM      8  C   UNL     1       9.283  12.777  18.656  0.00  0.00    +0.000 A 
ATOM      9  C   UNL     1      10.186  13.078  19.679  0.00  0.00    +0.000 A 
ATOM     10  C   UNL     1      10.682  12.060  20.488  0.00  0.00    +0.000 A 
ATOM     11  C   UNL     1      10.285  10.741  20.272  0.00  0.00    +0.000 A 
ATOM     12  C   UNL     1       9.368  10.422  19.260  0.00  0.00    +0.000 A 
ATOM     13  C   UNL     1       8.953   9.092  19.064  0.00  0.00    +0.000 A 
ENDBRANCH   2   4
BRANCH   2  14
ATOM     14  N   UNL     1       5.925   6.849  18.000  0.00  0.00    +0.000 NA
ATOM     15  C   UNL     1       5.196   6.614  16.714  0.00  0.00    +0.000 C 
ATOM     16  C   UNL     1       5.182   5.127  16.291  0.00  0.00    +0.000 C 
ATOM     17  N   UNL     1       4.545   4.250  17.297  0.00  0.00    +0.000 NA
ATOM     18  C   UNL     1       5.323   4.396  18.549  0.00  0.00    +0.000 C 
ATOM     19  C   UNL     1       5.506   5.845  19.068  0.00  0.00    +0.000 C 
BRANCH  17  20
ATOM     20  C   UNL     1       3.139   4.674  17.430  0.00  0.00    +0.000 C 
BRANCH  20  21
ATOM     21  C   UNL     1       2.318   4.076  18.541  0.00  0.00    +0.000 A 
ATOM     22  C   UNL     1       1.891   4.848  19.612  0.00  0.00    +0.000 A 
ATOM     23  C   UNL     1       1.356   4.196  20.717  0.00  0.00    +0.000 A 
ATOM     24  C   UNL     1       1.250   2.809  20.712  0.00  0.00    +0.000 A 
ATOM     25  C   UNL     1       1.666   2.122  19.585  0.00  0.00    +0.000 A 
ATOM     26  N   UNL     1       2.189   2.722  18.504  0.00  0.00    +0.000 NA
ENDBRANCH  20  21
ENDBRANCH  17  20
ENDBRANCH   2  14
TORSDOF 4
ENDMDL
MODEL 3
REMARK VINA RESULT:      -7.5      4.875      9.357
REMARK  Name = 
REMARK  4 active torsions:
REMARK  status: ('A' for Active; 'I' for Inactive)
REMARK    1  A    between atoms: S_2  and  C_4
REMARK    2  A    between atoms: S_2  and  N_14
REMARK    3  A    between atoms: N_17  and  C_18
REMARK    4  A    between atoms: C_18  and  C_19
REMARK                            x       y       z     vdW  Elec       q    Type
REMARK                         _______ _______ _______ _____ _____    ______ ____
ROOT
ATOM      1  O   UNL     1      -0.538   8.914  21.201  0.00  0.00    +0.000 OA
ATOM      2  S   UNL     1       0.883   9.175  21.071  0.00  0.00    +0.000 S 
ATOM      3  O   UNL     1       1.663   9.492  22.250  0.00  0.00    +0.000 OA
ENDROOT
BRANCH   2   4
ATOM      4  C   UNL     1       1.613   7.716  20.315  0.00  0.00    +0.000 A 
ATOM      5  C   UNL     1       2.247   7.753  19.067  0.00  0.00    +0.000 A 
ATOM      6  C   UNL     1       2.740   6.574  18.483  0.00  0.00    +0.000 A 
ATOM      7  C   UNL     1       2.562   5.328  19.110  0.00  0.00    +0.000 A 
ATOM      8  C   UNL     1       3.037   4.128  18.548  0.00  0.00    +0.000 A 
ATOM      9  C   UNL     1       2.842   2.909  19.203  0.00  0.00    +0.000 A 
ATOM     10  C   UNL     1       2.160   2.873  20.415  0.00  0.00    +0.000 A 
ATOM     11  C   UNL     1       1.664   4.053  20.971  0.00  0.00    +0.000 A 
ATOM     12  C   UNL     1       1.863   5.287  20.336  0.00  0.00    +0.000 A 
ATOM     13  C   UNL     1       1.381   6.475  20.915  0.00  0.00    +0.000 A 
ENDBRANCH   2   4
BRANCH   2  14
ATOM     14  N   UNL     1       0.999  10.459  19.976  0.00  0.00    +0.000 NA
ATOM     15  C   UNL     1      -0.164  10.595  19.045  0.00  0.00    +0.000 C 
ATOM     16  C   UNL     1      -1.334  11.401  19.654  0.00  0.00    +0.000 C 
ATOM     17  N   UNL     1      -0.947  12.775  20.039  0.00  0.00    +0.000 NA
ATOM     18  C   UNL     1       0.137  12.651  21.041  0.00  0.00    +0.000 C 
ATOM     19  C   UNL     1       1.358  11.795  20.617  0.00  0.00    +0.000 C 
BRANCH  17  20
ATOM     20  C   UNL     1      -0.530  13.480  18.812  0.00  0.00    +0.000 C 
BRANCH  20  21
ATOM     21  C   UNL     1       0.133  14.823  18.955  0.00  0.00    +0.000 A 
ATOM     22  C   UNL     1      -0.610  15.966  19.218  0.00  0.00    +0.000 A 
ATOM     23  C   UNL     1       0.018  17.199  19.095  0.00  0.00    +0.000 A 
ATOM     24  C   UNL     1       1.360  17.253  18.732  0.00  0.00    +0.000 A 
ATOM     25  C   UNL     1       2.034  16.063  18.525  0.00  0.00    +0.000 A 
ATOM     26  N   UNL     1       1.455  14.856  18.635  0.00  0.00    +0.000 NA
ENDBRANCH  20  21
ENDBRANCH  17  20
ENDBRANCH   2  14
TORSDOF 4
ENDMDL
MODEL 4
REMARK VINA RESULT:      -7.5      4.157     10.333
REMARK  Name = 
REMARK  4 active torsions:
REMARK  status: ('A' for Active; 'I' for Inactive)
REMARK    1  A    between atoms: S_2  and  C_4
REMARK    2  A    between atoms: S_2  and  N_14
REMARK    3  A    between atoms: N_17  and  C_18
REMARK    4  A    between atoms: C_18  and  C_19
REMARK                            x       y       z     vdW  Elec       q    Type
REMARK                         _______ _______ _______ _____ _____    ______ ____
ROOT
ATOM      1  O   UNL     1       2.333  10.685  17.681  0.00  0.00    +0.000 OA
ATOM      2  S   UNL     1       1.307   9.846  18.272  0.00  0.00    +0.000 S 
ATOM      3  O   UNL     1       0.082   9.594  17.542  0.00  0.00    +0.000 OA
ENDROOT
BRANCH   2   4
ATOM      4  C   UNL     1       2.072   8.254  18.613  0.00  0.00    +0.000 A 
ATOM      5  C   UNL     1       1.912   7.589  19.835  0.00  0.00    +0.000 A 
ATOM      6  C   UNL     1       2.586   6.381  20.083  0.00  0.00    +0.000 A 
ATOM      7  C   UNL     1       3.473   5.842  19.135  0.00  0.00    +0.000 A 
ATOM      8  C   UNL     1       4.170   4.639  19.355  0.00  0.00    +0.000 A 
ATOM      9  C   UNL     1       5.043   4.133  18.388  0.00  0.00    +0.000 A 
ATOM     10  C   UNL     1       5.240   4.830  17.199  0.00  0.00    +0.000 A 
ATOM     11  C   UNL     1       4.575   6.036  16.979  0.00  0.00    +0.000 A 
ATOM     12  C   UNL     1       3.684   6.550  17.931  0.00  0.00    +0.000 A 
ATOM     13  C   UNL     1       2.997   7.755  17.691  0.00  0.00    +0.000 A 
ENDBRANCH   2   4
BRANCH   2  14
ATOM     14  N   UNL     1       0.927  10.582  19.746  0.00  0.00    +0.000 NA
ATOM     15  C   UNL     1       1.364  12.008  19.865  0.00  0.00    +0.000 C 
ATOM     16  C   UNL     1       0.347  13.004  19.262  0.00  0.00    +0.000 C 
ATOM     17  N   UNL     1      -0.984  12.923  19.900  0.00  0.00    +0.000 NA
ATOM     18  C   UNL     1      -1.474  11.540  19.697  0.00  0.00    +0.000 C 
ATOM     19  C   UNL     1      -0.527  10.409  20.173  0.00  0.00    +0.000 C 
BRANCH  17  20
ATOM     20  C   UNL     1      -0.819  13.282  21.321  0.00  0.00    +0.000 C 
BRANCH  20  21
ATOM     21  C   UNL     1      -2.044  13.302  22.195  0.00  0.00    +0.000 A 
ATOM     22  C   UNL     1      -2.212  12.375  23.215  0.00  0.00    +0.000 A 
ATOM     23  C   UNL     1      -3.459  12.287  23.821  0.00  0.00    +0.000 A 
ATOM     24  C   UNL     1      -4.486  13.128  23.406  0.00  0.00    +0.000 A 
ATOM     25  C   UNL     1      -4.220  14.048  22.407  0.00  0.00    +0.000 A 
ATOM     26  N   UNL     1      -3.027  14.157  21.801  0.00  0.00    +0.000 NA
ENDBRANCH  20  21
ENDBRANCH  17  20
ENDBRANCH   2  14
TORSDOF 4
ENDMDL
MODEL 5
REMARK VINA RESULT:      -7.5      2.528      8.512
REMARK  Name = 
REMARK  4 active torsions:
REMARK  status: ('A' for Active; 'I' for Inactive)
REMARK    1  A    between atoms: S_2  and  C_4
REMARK    2  A    between atoms: S_2  and  N_14
REMARK    3  A    between atoms: N_17  and  C_18
REMARK    4  A    between atoms: C_18  and  C_19
REMARK                            x       y       z     vdW  Elec       q    Type
REMARK                         _______ _______ _______ _____ _____    ______ ____
ROOT
ATOM      1  O   UNL     1       2.153   1.977  18.421  0.00  0.00    +0.000 OA
ATOM      2  S   UNL     1       2.729   3.053  19.206  0.00  0.00    +0.000 S 
ATOM      3  O   UNL     1       3.123   2.806  20.578  0.00  0.00    +0.000 OA
ENDROOT
BRANCH   2   4
ATOM      4  C   UNL     1       4.186   3.621  18.318  0.00  0.00    +0.000 A 
ATOM      5  C   UNL     1       5.242   4.286  18.952  0.00  0.00    +0.000 A 
ATOM      6  C   UNL     1       6.328   4.774  18.206  0.00  0.00    +0.000 A 
ATOM      7  C   UNL     1       6.354   4.654  16.805  0.00  0.00    +0.000 A 
ATOM      8  C   UNL     1       7.422   5.140  16.027  0.00  0.00    +0.000 A 
ATOM      9  C   UNL     1       7.413   5.000  14.638  0.00  0.00    +0.000 A 
ATOM     10  C   UNL     1       6.332   4.389  14.009  0.00  0.00    +0.000 A 
ATOM     11  C   UNL     1       5.256   3.925  14.765  0.00  0.00    +0.000 A 
ATOM     12  C   UNL     1       5.255   4.043  16.163  0.00  0.00    +0.000 A 
ATOM     13  C   UNL     1       4.177   3.550  16.921  0.00  0.00    +0.000 A 
ENDBRANCH   2   4
BRANCH   2  14
ATOM     14  N   UNL     1       1.573   4.288  19.181  0.00  0.00    +0.000 NA
ATOM     15  C   UNL     1       1.234   4.855  20.524  0.00  0.00    +0.000 C 
ATOM     16  C   UNL     1       2.211   5.966  20.974  0.00  0.00    +0.000 C 
ATOM     17  N   UNL     1       2.253   7.109  20.038  0.00  0.00    +0.000 NA
ATOM     18  C   UNL     1       2.689   6.576  18.728  0.00  0.00    +0.000 C 
ATOM     19  C   UNL     1       1.860   5.391  18.168  0.00  0.00    +0.000 C 
BRANCH  17  20
ATOM     20  C   UNL     1       0.905   7.707  20.007  0.00  0.00    +0.000 C 
BRANCH  20  21
ATOM     21  C   UNL     1       0.615   8.855  20.936  0.00  0.00    +0.000 A 
ATOM     22  C   UNL     1      -0.105   8.664  22.108  0.00  0.00    +0.000 A 
ATOM     23  C   UNL     1      -0.549   9.787  22.794  0.00  0.00    +0.000 A 
ATOM     24  C   UNL     1      -0.253  11.055  22.303  0.00  0.00    +0.000 A 
ATOM     25  C   UNL     1       0.502  11.152  21.147  0.00  0.00    +0.000 A 
ATOM     26  N   UNL     1       0.945  10.086  20.461  0.00  0.00    +0.000 NA
ENDBRANCH  20  21
ENDBRANCH  17  20
ENDBRANCH   2  14
TORSDOF 4
ENDMDL
MODEL 6
REMARK VINA RESULT:      -7.5      5.160      9.759
REMARK  Name = 
REMARK  4 active torsions:
REMARK  status: ('A' for Active; 'I' for Inactive)
REMARK    1  A    between atoms: S_2  and  C_4
REMARK    2  A    between atoms: S_2  and  N_14
REMARK    3  A    between atoms: N_17  and  C_18
REMARK    4  A    between atoms: C_18  and  C_19
REMARK                            x       y       z     vdW  Elec       q    Type
REMARK                         _______ _______ _______ _____ _____    ______ ____
ROOT
ATOM      1  O   UNL     1      -0.577  10.453  18.246  0.00  0.00    +0.000 OA
ATOM      2  S   UNL     1       0.263  10.293  19.418  0.00  0.00    +0.000 S 
ATOM      3  O   UNL     1      -0.342   9.961  20.691  0.00  0.00    +0.000 OA
ENDROOT
BRANCH   2   4
ATOM      4  C   UNL     1       1.454   9.002  19.031  0.00  0.00    +0.000 A 
ATOM      5  C   UNL     1       2.235   9.023  17.869  0.00  0.00    +0.000 A 
ATOM      6  C   UNL     1       3.101   7.957  17.572  0.00  0.00    +0.000 A 
ATOM      7  C   UNL     1       3.165   6.826  18.405  0.00  0.00    +0.000 A 
ATOM      8  C   UNL     1       4.016   5.737  18.133  0.00  0.00    +0.000 A 
ATOM      9  C   UNL     1       4.053   4.632  18.986  0.00  0.00    +0.000 A 
ATOM     10  C   UNL     1       3.231   4.593  20.109  0.00  0.00    +0.000 A 
ATOM     11  C   UNL     1       2.366   5.654  20.377  0.00  0.00    +0.000 A 
ATOM     12  C   UNL     1       2.327   6.779  19.541  0.00  0.00    +0.000 A 
ATOM     13  C   UNL     1       1.469   7.856  19.831  0.00  0.00    +0.000 A 
ENDBRANCH   2   4
BRANCH   2  14
ATOM     14  N   UNL     1       1.095  11.758  19.572  0.00  0.00    +0.000 NA
ATOM     15  C   UNL     1       1.008  12.655  18.377  0.00  0.00    +0.000 C 
ATOM     16  C   UNL     1      -0.263  13.535  18.374  0.00  0.00    +0.000 C 
ATOM     17  N   UNL     1      -0.359  14.412  19.561  0.00  0.00    +0.000 NA
ATOM     18  C   UNL     1      -0.378  13.527  20.748  0.00  0.00    +0.000 C 
ATOM     19  C   UNL     1       0.792  12.515  20.859  0.00  0.00    +0.000 C 
BRANCH  17  20
ATOM     20  C   UNL     1       0.799  15.326  19.533  0.00  0.00    +0.000 C 
BRANCH  20  21
ATOM     21  C   UNL     1       0.730  16.531  18.634  0.00  0.00    +0.000 A 
ATOM     22  C   UNL     1      -0.488  17.116  18.312  0.00  0.00    +0.000 A 
ATOM     23  C   UNL     1      -0.511  18.061  17.294  0.00  0.00    +0.000 A 
ATOM     24  C   UNL     1       0.672  18.402  16.645  0.00  0.00    +0.000 A 
ATOM     25  C   UNL     1       1.846  17.796  17.057  0.00  0.00    +0.000 A 
ATOM     26  N   UNL     1       1.901  16.879  18.035  0.00  0.00    +0.000 NA
ENDBRANCH  20  21
ENDBRANCH  17  20
ENDBRANCH   2  14
TORSDOF 4
ENDMDL
MODEL 7
REMARK VINA RESULT:      -7.4      3.496      4.712
REMARK  Name = 
REMARK  4 active torsions:
REMARK  status: ('A' for Active; 'I' for Inactive)
REMARK    1  A    between atoms: S_2  and  C_4
REMARK    2  A    between atoms: S_2  and  N_14
REMARK    3  A    between atoms: N_17  and  C_18
REMARK    4  A    between atoms: C_18  and  C_19
REMARK                            x       y       z     vdW  Elec       q    Type
REMARK                         _______ _______ _______ _____ _____    ______ ____
ROOT
ATOM      1  O   UNL     1       7.393   6.883  18.740  0.00  0.00    +0.000 OA
ATOM      2  S   UNL     1       7.072   5.579  18.189  0.00  0.00    +0.000 S 
ATOM      3  O   UNL     1       7.847   4.423  18.591  0.00  0.00    +0.000 OA
ENDROOT
BRANCH   2   4
ATOM      4  C   UNL     1       5.353   5.249  18.603  0.00  0.00    +0.000 A 
ATOM      5  C   UNL     1       4.494   6.240  19.092  0.00  0.00    +0.000 A 
ATOM      6  C   UNL     1       3.178   5.921  19.469  0.00  0.00    +0.000 A 
ATOM      7  C   UNL     1       2.713   4.595  19.413  0.00  0.00    +0.000 A 
ATOM      8  C   UNL     1       1.404   4.239  19.791  0.00  0.00    +0.000 A 
ATOM      9  C   UNL     1       0.978   2.911  19.720  0.00  0.00    +0.000 A 
ATOM     10  C   UNL     1       1.857   1.922  19.287  0.00  0.00    +0.000 A 
ATOM     11  C   UNL     1       3.164   2.257  18.933  0.00  0.00    +0.000 A 
ATOM     12  C   UNL     1       3.604   3.587  18.983  0.00  0.00    +0.000 A 
ATOM     13  C   UNL     1       4.917   3.921  18.601  0.00  0.00    +0.000 A 
ENDBRANCH   2   4
BRANCH   2  14
ATOM     14  N   UNL     1       7.192   5.764  16.512  0.00  0.00    +0.000 NA
ATOM     15  C   UNL     1       7.533   4.512  15.767  0.00  0.00    +0.000 C 
ATOM     16  C   UNL     1       6.295   3.644  15.445  0.00  0.00    +0.000 C 
ATOM     17  N   UNL     1       5.291   4.356  14.625  0.00  0.00    +0.000 NA
ATOM     18  C   UNL     1       4.869   5.545  15.400  0.00  0.00    +0.000 C 
ATOM     19  C   UNL     1       6.007   6.483  15.878  0.00  0.00    +0.000 C 
BRANCH  17  20
ATOM     20  C   UNL     1       5.929   4.693  13.338  0.00  0.00    +0.000 C 
BRANCH  20  21
ATOM     21  C   UNL     1       6.114   3.593  12.327  0.00  0.00    +0.000 A 
ATOM     22  C   UNL     1       5.059   2.764  11.970  0.00  0.00    +0.000 A 
ATOM     23  C   UNL     1       5.345   1.624  11.228  0.00  0.00    +0.000 A 
ATOM     24  C   UNL     1       6.660   1.358  10.857  0.00  0.00    +0.000 A 
ATOM     25  C   UNL     1       7.643   2.259  11.225  0.00  0.00    +0.000 A 
ATOM     26  N   UNL     1       7.399   3.367  11.942  0.00  0.00    +0.000 NA
ENDBRANCH  20  21
ENDBRANCH  17  20
ENDBRANCH   2  14
TORSDOF 4
ENDMDL
MODEL 8
REMARK VINA RESULT:      -7.3      2.056      8.739
REMARK  Name = 
REMARK  4 active torsions:
REMARK  status: ('A' for Active; 'I' for Inactive)
REMARK    1  A    between atoms: S_2  and  C_4
REMARK    2  A    between atoms: S_2  and  N_14
REMARK    3  A    between atoms: N_17  and  C_18
REMARK    4  A    between atoms: C_18  and  C_19
REMARK                            x       y       z     vdW  Elec       q    Type
REMARK                         _______ _______ _______ _____ _____    ______ ____
ROOT
ATOM      1  O   UNL     1       3.350   2.204  17.472  0.00  0.00    +0.000 OA
ATOM      2  S   UNL     1       3.988   3.398  17.996  0.00  0.00    +0.000 S 
ATOM      3  O   UNL     1       4.667   3.343  19.274  0.00  0.00    +0.000 OA
ENDROOT
BRANCH   2   4
ATOM      4  C   UNL     1       5.188   3.928  16.767  0.00  0.00    +0.000 A 
ATOM      5  C   UNL     1       6.199   4.853  17.053  0.00  0.00    +0.000 A 
ATOM      6  C   UNL     1       7.071   5.291  16.042  0.00  0.00    +0.000 A 
ATOM      7  C   UNL     1       6.917   4.853  14.715  0.00  0.00    +0.000 A 
ATOM      8  C   UNL     1       7.768   5.279  13.677  0.00  0.00    +0.000 A 
ATOM      9  C   UNL     1       7.583   4.819  12.370  0.00  0.00    +0.000 A 
ATOM     10  C   UNL     1       6.540   3.943  12.083  0.00  0.00    +0.000 A 
ATOM     11  C   UNL     1       5.675   3.533  13.098  0.00  0.00    +0.000 A 
ATOM     12  C   UNL     1       5.854   3.971  14.417  0.00  0.00    +0.000 A 
ATOM     13  C   UNL     1       4.992   3.534  15.440  0.00  0.00    +0.000 A 
ENDBRANCH   2   4
BRANCH   2  14
ATOM     14  N   UNL     1       2.759   4.558  18.077  0.00  0.00    +0.000 NA
ATOM     15  C   UNL     1       1.875   4.451  19.280  0.00  0.00    +0.000 C 
ATOM     16  C   UNL     1       2.451   5.174  20.519  0.00  0.00    +0.000 C 
ATOM     17  N   UNL     1       2.671   6.618  20.291  0.00  0.00    +0.000 NA
ATOM     18  C   UNL     1       3.627   6.735  19.167  0.00  0.00    +0.000 C 
ATOM     19  C   UNL     1       3.238   5.989  17.864  0.00  0.00    +0.000 C 
BRANCH  17  20
ATOM     20  C   UNL     1       1.358   7.228  20.007  0.00  0.00    +0.000 C 
BRANCH  20  21
ATOM     21  C   UNL     1       1.048   8.565  20.624  0.00  0.00    +0.000 A 
ATOM     22  C   UNL     1       0.650   8.668  21.950  0.00  0.00    +0.000 A 
ATOM     23  C   UNL     1       0.145   9.886  22.389  0.00  0.00    +0.000 A 
ATOM     24  C   UNL     1       0.066  10.957  21.505  0.00  0.00    +0.000 A 
ATOM     25  C   UNL     1       0.520  10.776  20.210  0.00  0.00    +0.000 A 
ATOM     26  N   UNL     1       1.012   9.612  19.755  0.00  0.00    +0.000 NA
ENDBRANCH  20  21
ENDBRANCH  17  20
ENDBRANCH   2  14
TORSDOF 4
ENDMDL
MODEL 9
REMARK VINA RESULT:      -7.3      1.984      8.849
REMARK  Name = 
REMARK  4 active torsions:
REMARK  status: ('A' for Active; 'I' for Inactive)
REMARK    1  A    between atoms: S_2  and  C_4
REMARK    2  A    between atoms: S_2  and  N_14
REMARK    3  A    between atoms: N_17  and  C_18
REMARK    4  A    between atoms: C_18  and  C_19
REMARK                            x       y       z     vdW  Elec       q    Type
REMARK                         _______ _______ _______ _____ _____    ______ ____
ROOT
ATOM      1  O   UNL     1       2.683   3.815  17.466  0.00  0.00    +0.000 OA
ATOM      2  S   UNL     1       3.985   3.753  18.102  0.00  0.00    +0.000 S 
ATOM      3  O   UNL     1       4.412   2.524  18.739  0.00  0.00    +0.000 OA
ENDROOT
BRANCH   2   4
ATOM      4  C   UNL     1       5.200   4.160  16.840  0.00  0.00    +0.000 A 
ATOM      5  C   UNL     1       6.266   5.037  17.077  0.00  0.00    +0.000 A 
ATOM      6  C   UNL     1       7.150   5.381  16.040  0.00  0.00    +0.000 A 
ATOM      7  C   UNL     1       6.954   4.897  14.734  0.00  0.00    +0.000 A 
ATOM      8  C   UNL     1       7.816   5.228  13.672  0.00  0.00    +0.000 A 
ATOM      9  C   UNL     1       7.590   4.725  12.388  0.00  0.00    +0.000 A 
ATOM     10  C   UNL     1       6.496   3.900  12.148  0.00  0.00    +0.000 A 
ATOM     11  C   UNL     1       5.620   3.584  13.187  0.00  0.00    +0.000 A 
ATOM     12  C   UNL     1       5.840   4.066  14.485  0.00  0.00    +0.000 A 
ATOM     13  C   UNL     1       4.966   3.723  15.533  0.00  0.00    +0.000 A 
ENDBRANCH   2   4
BRANCH   2  14
ATOM     14  N   UNL     1       3.976   4.992  19.254  0.00  0.00    +0.000 NA
ATOM     15  C   UNL     1       3.721   6.359  18.701  0.00  0.00    +0.000 C 
ATOM     16  C   UNL     1       2.215   6.677  18.547  0.00  0.00    +0.000 C 
ATOM     17  N   UNL     1       1.479   6.601  19.827  0.00  0.00    +0.000 NA
ATOM     18  C   UNL     1       1.638   5.220  20.334  0.00  0.00    +0.000 C 
ATOM     19  C   UNL     1       3.097   4.710  20.467  0.00  0.00    +0.000 C 
BRANCH  17  20
ATOM     20  C   UNL     1       2.046   7.623  20.727  0.00  0.00    +0.000 C 
BRANCH  20  21
ATOM     21  C   UNL     1       1.199   8.821  21.065  0.00  0.00    +0.000 A 
ATOM     22  C   UNL     1       0.796   9.069  22.370  0.00  0.00    +0.000 A 
ATOM     23  C   UNL     1      -0.177  10.038  22.581  0.00  0.00    +0.000 A 
ATOM     24  C   UNL     1      -0.702  10.734  21.497  0.00  0.00    +0.000 A 
ATOM     25  C   UNL     1      -0.214  10.448  20.234  0.00  0.00    +0.000 A 
ATOM     26  N   UNL     1       0.724   9.517  19.997  0.00  0.00    +0.000 NA
ENDBRANCH  20  21
ENDBRANCH  17  20
ENDBRANCH   2  14
TORSDOF 4
ENDMDL
