MODEL 1
REMARK VINA RESULT:      -7.8      0.000      0.000
REMARK  Name = 
REMARK  7 active torsions:
REMARK  status: ('A' for Active; 'I' for Inactive)
REMARK    1  A    between atoms: C_1  and  O_2
REMARK    2  A    between atoms: O_2  and  C_3
REMARK    3  A    between atoms: C_6  and  C_7
REMARK    4  A    between atoms: C_7  and  C_8
REMARK    5  A    between atoms: C_8  and  N_9
REMARK    6  A    between atoms: N_17  and  C_18
REMARK    7  A    between atoms: N_21  and  C_22
REMARK                            x       y       z     vdW  Elec       q    Type
REMARK                         _______ _______ _______ _____ _____    ______ ____
ROOT
ATOM      1  N   UNL     1       2.516   6.853  20.065  0.00  0.00    +0.000 N 
ATOM      2  C   UNL     1       1.716   7.910  20.361  0.00  0.00    +0.000 A 
ATOM      3  N   UNL     1       1.121   8.732  19.527  0.00  0.00    +0.000 NA
ATOM      4  C   UNL     1       0.445   9.608  20.318  0.00  0.00    +0.000 A 
ATOM      5  C   UNL     1       0.614   9.329  21.635  0.00  0.00    +0.000 A 
ATOM      6  N   UNL     1       1.448   8.244  21.672  0.00  0.00    +0.000 N 
ATOM      7  C   UNL     1       0.001  10.064  22.675  0.00  0.00    +0.000 A 
ATOM      8  O   UNL     1       0.158   9.793  23.859  0.00  0.00    +0.000 OA
ATOM      9  N   UNL     1      -0.795  11.116  22.197  0.00  0.00    +0.000 N 
ATOM     10  C   UNL     1      -1.491  11.947  23.157  0.00  0.00    +0.000 C 
ATOM     11  C   UNL     1      -0.996  11.437  20.837  0.00  0.00    +0.000 A 
ATOM     12  O   UNL     1      -1.729  12.375  20.507  0.00  0.00    +0.000 OA
ATOM     13  N   UNL     1      -0.342  10.646  19.892  0.00  0.00    +0.000 N 
ATOM     14  C   UNL     1      -0.514  10.895  18.471  0.00  0.00    +0.000 C 
ATOM     15  H   UNL     1       3.387   6.823  20.586  0.00  0.00    +0.000 HD
ATOM     16  H   UNL     1       1.765   7.757  22.496  0.00  0.00    +0.000 HD
ENDROOT
BRANCH   1  17
ATOM     17  C   UNL     1       2.713   6.592  18.624  0.00  0.00    +0.000 C 
BRANCH  17  18
ATOM     18  C   UNL     1       3.254   5.177  18.368  0.00  0.00    +0.000 C 
BRANCH  18  22
ATOM     19  C   UNL     1       6.701   5.072  15.722  0.00  0.00    +0.000 A 
ATOM     20  C   UNL     1       5.737   4.067  15.676  0.00  0.00    +0.000 A 
ATOM     21  C   UNL     1       4.621   4.110  16.524  0.00  0.00    +0.000 A 
ATOM     22  C   UNL     1       4.464   5.148  17.452  0.00  0.00    +0.000 A 
ATOM     23  C   UNL     1       5.445   6.147  17.502  0.00  0.00    +0.000 A 
ATOM     24  C   UNL     1       6.557   6.107  16.645  0.00  0.00    +0.000 A 
BRANCH  19  26
ATOM     25  C   UNL     1       7.399   4.891  13.476  0.00  0.00    +0.000 C 
ATOM     26  O   UNL     1       7.751   4.932  14.856  0.00  0.00    +0.000 OA
ENDBRANCH  19  26
ENDBRANCH  18  22
ENDBRANCH  17  18
ENDBRANCH   1  17
TORSDOF 4
ENDMDL
MODEL 2
REMARK VINA RESULT:      -7.6      2.917      8.228
REMARK  Name = 
REMARK  7 active torsions:
REMARK  status: ('A' for Active; 'I' for Inactive)
REMARK    1  A    between atoms: C_1  and  O_2
REMARK    2  A    between atoms: O_2  and  C_3
REMARK    3  A    between atoms: C_6  and  C_7
REMARK    4  A    between atoms: C_7  and  C_8
REMARK    5  A    between atoms: C_8  and  N_9
REMARK    6  A    between atoms: N_17  and  C_18
REMARK    7  A    between atoms: N_21  and  C_22
REMARK                            x       y       z     vdW  Elec       q    Type
REMARK                         _______ _______ _______ _____ _____    ______ ____
ROOT
ATOM      1  N   UNL     1       0.862   8.657  20.776  0.00  0.00    +0.000 N 
ATOM      2  C   UNL     1       1.598   7.602  20.339  0.00  0.00    +0.000 A 
ATOM      3  N   UNL     1       2.363   7.536  19.274  0.00  0.00    +0.000 NA
ATOM      4  C   UNL     1       2.873   6.275  19.284  0.00  0.00    +0.000 A 
ATOM      5  C   UNL     1       2.433   5.564  20.352  0.00  0.00    +0.000 A 
ATOM      6  N   UNL     1       1.595   6.408  21.029  0.00  0.00    +0.000 N 
ATOM      7  C   UNL     1       2.829   4.235  20.623  0.00  0.00    +0.000 A 
ATOM      8  O   UNL     1       2.428   3.610  21.597  0.00  0.00    +0.000 OA
ATOM      9  N   UNL     1       3.720   3.730  19.664  0.00  0.00    +0.000 N 
ATOM     10  C   UNL     1       4.215   2.379  19.824  0.00  0.00    +0.000 C 
ATOM     11  C   UNL     1       4.202   4.438  18.541  0.00  0.00    +0.000 A 
ATOM     12  O   UNL     1       4.999   3.916  17.755  0.00  0.00    +0.000 OA
ATOM     13  N   UNL     1       3.745   5.745  18.369  0.00  0.00    +0.000 N 
ATOM     14  C   UNL     1       4.209   6.550  17.251  0.00  0.00    +0.000 C 
ATOM     15  H   UNL     1      -0.098   8.431  21.019  0.00  0.00    +0.000 HD
ATOM     16  H   UNL     1       1.109   6.210  21.890  0.00  0.00    +0.000 HD
ENDROOT
BRANCH   1  17
ATOM     17  C   UNL     1       0.963   9.882  19.956  0.00  0.00    +0.000 C 
BRANCH  17  18
ATOM     18  C   UNL     1      -0.213  10.838  20.210  0.00  0.00    +0.000 C 
BRANCH  18  22
ATOM     19  C   UNL     1      -3.088  10.905  16.951  0.00  0.00    +0.000 A 
ATOM     20  C   UNL     1      -1.955  10.097  16.885  0.00  0.00    +0.000 A 
ATOM     21  C   UNL     1      -1.035  10.070  17.943  0.00  0.00    +0.000 A 
ATOM     22  C   UNL     1      -1.221  10.873  19.076  0.00  0.00    +0.000 A 
ATOM     23  C   UNL     1      -2.355  11.694  19.129  0.00  0.00    +0.000 A 
ATOM     24  C   UNL     1      -3.281  11.711  18.073  0.00  0.00    +0.000 A 
BRANCH  19  26
ATOM     25  C   UNL     1      -3.371  10.237  14.706  0.00  0.00    +0.000 C 
ATOM     26  O   UNL     1      -3.919  10.860  15.864  0.00  0.00    +0.000 OA
ENDBRANCH  19  26
ENDBRANCH  18  22
ENDBRANCH  17  18
ENDBRANCH   1  17
TORSDOF 4
ENDMDL
MODEL 3
REMARK VINA RESULT:      -7.5      1.990      2.591
REMARK  Name = 
REMARK  7 active torsions:
REMARK  status: ('A' for Active; 'I' for Inactive)
REMARK    1  A    between atoms: C_1  and  O_2
REMARK    2  A    between atoms: O_2  and  C_3
REMARK    3  A    between atoms: C_6  and  C_7
REMARK    4  A    between atoms: C_7  and  C_8
REMARK    5  A    between atoms: C_8  and  N_9
REMARK    6  A    between atoms: N_17  and  C_18
REMARK    7  A    between atoms: N_21  and  C_22
REMARK                            x       y       z     vdW  Elec       q    Type
REMARK                         _______ _______ _______ _____ _____    ______ ____
ROOT
ATOM      1  N   UNL     1       2.572   5.035  20.279  0.00  0.00    +0.000 N 
ATOM      2  C   UNL     1       2.166   6.330  20.244  0.00  0.00    +0.000 A 
ATOM      3  N   UNL     1       2.232   7.172  19.239  0.00  0.00    +0.000 NA
ATOM      4  C   UNL     1       1.699   8.330  19.713  0.00  0.00    +0.000 A 
ATOM      5  C   UNL     1       1.299   8.208  21.003  0.00  0.00    +0.000 A 
ATOM      6  N   UNL     1       1.613   6.924  21.360  0.00  0.00    +0.000 N 
ATOM      7  C   UNL     1       0.685   9.250  21.734  0.00  0.00    +0.000 A 
ATOM      8  O   UNL     1       0.322   9.119  22.897  0.00  0.00    +0.000 OA
ATOM      9  N   UNL     1       0.541  10.425  20.982  0.00  0.00    +0.000 N 
ATOM     10  C   UNL     1      -0.083  11.574  21.606  0.00  0.00    +0.000 C 
ATOM     11  C   UNL     1       0.943  10.592  19.639  0.00  0.00    +0.000 A 
ATOM     12  O   UNL     1       0.762  11.662  19.049  0.00  0.00    +0.000 OA
ATOM     13  N   UNL     1       1.540   9.497  19.012  0.00  0.00    +0.000 N 
ATOM     14  C   UNL     1       1.962   9.578  17.625  0.00  0.00    +0.000 C 
ATOM     15  H   UNL     1       3.141   4.791  21.085  0.00  0.00    +0.000 HD
ATOM     16  H   UNL     1       1.431   6.485  22.250  0.00  0.00    +0.000 HD
ENDROOT
BRANCH   1  17
ATOM     17  C   UNL     1       3.134   4.514  19.015  0.00  0.00    +0.000 C 
BRANCH  17  18
ATOM     18  C   UNL     1       4.613   4.125  19.164  0.00  0.00    +0.000 C 
BRANCH  18  22
ATOM     19  C   UNL     1       7.333   7.177  17.690  0.00  0.00    +0.000 A 
ATOM     20  C   UNL     1       6.067   7.021  17.130  0.00  0.00    +0.000 A 
ATOM     21  C   UNL     1       5.188   6.042  17.616  0.00  0.00    +0.000 A 
ATOM     22  C   UNL     1       5.572   5.184  18.655  0.00  0.00    +0.000 A 
ATOM     23  C   UNL     1       6.853   5.338  19.202  0.00  0.00    +0.000 A 
ATOM     24  C   UNL     1       7.727   6.326  18.722  0.00  0.00    +0.000 A 
BRANCH  19  26
ATOM     25  C   UNL     1       8.231   9.347  17.918  0.00  0.00    +0.000 C 
ATOM     26  O   UNL     1       8.112   8.159  17.140  0.00  0.00    +0.000 OA
ENDBRANCH  19  26
ENDBRANCH  18  22
ENDBRANCH  17  18
ENDBRANCH   1  17
TORSDOF 4
ENDMDL
MODEL 4
REMARK VINA RESULT:      -7.5      3.567      4.801
REMARK  Name = 
REMARK  7 active torsions:
REMARK  status: ('A' for Active; 'I' for Inactive)
REMARK    1  A    between atoms: C_1  and  O_2
REMARK    2  A    between atoms: O_2  and  C_3
REMARK    3  A    between atoms: C_6  and  C_7
REMARK    4  A    between atoms: C_7  and  C_8
REMARK    5  A    between atoms: C_8  and  N_9
REMARK    6  A    between atoms: N_17  and  C_18
REMARK    7  A    between atoms: N_21  and  C_22
REMARK                            x       y       z     vdW  Elec       q    Type
REMARK                         _______ _______ _______ _____ _____    ______ ____
ROOT
ATOM      1  N   UNL     1       1.451   9.608  18.861  0.00  0.00    +0.000 N 
ATOM      2  C   UNL     1       0.210  10.160  18.827  0.00  0.00    +0.000 A 
ATOM      3  N   UNL     1      -0.716  10.011  17.909  0.00  0.00    +0.000 NA
ATOM      4  C   UNL     1      -1.764  10.765  18.339  0.00  0.00    +0.000 A 
ATOM      5  C   UNL     1      -1.492  11.373  19.521  0.00  0.00    +0.000 A 
ATOM      6  N   UNL     1      -0.213  11.002  19.834  0.00  0.00    +0.000 N 
ATOM      7  C   UNL     1      -2.415  12.193  20.208  0.00  0.00    +0.000 A 
ATOM      8  O   UNL     1      -2.155  12.729  21.279  0.00  0.00    +0.000 OA
ATOM      9  N   UNL     1      -3.639  12.314  19.532  0.00  0.00    +0.000 N 
ATOM     10  C   UNL     1      -4.682  13.121  20.131  0.00  0.00    +0.000 C 
ATOM     11  C   UNL     1      -3.960  11.696  18.304  0.00  0.00    +0.000 A 
ATOM     12  O   UNL     1      -5.072  11.848  17.788  0.00  0.00    +0.000 OA
ATOM     13  N   UNL     1      -2.973  10.908  17.711  0.00  0.00    +0.000 N 
ATOM     14  C   UNL     1      -3.230  10.219  16.458  0.00  0.00    +0.000 C 
ATOM     15  H   UNL     1       2.200  10.264  19.063  0.00  0.00    +0.000 HD
ATOM     16  H   UNL     1       0.302  11.257  20.663  0.00  0.00    +0.000 HD
ENDROOT
BRANCH   1  17
ATOM     17  C   UNL     1       1.776   8.714  17.730  0.00  0.00    +0.000 C 
BRANCH  17  18
ATOM     18  C   UNL     1       2.907   7.735  18.083  0.00  0.00    +0.000 C 
BRANCH  18  22
ATOM     19  C   UNL     1       1.479   3.969  19.717  0.00  0.00    +0.000 A 
ATOM     20  C   UNL     1       1.791   5.036  20.556  0.00  0.00    +0.000 A 
ATOM     21  C   UNL     1       2.241   6.253  20.024  0.00  0.00    +0.000 A 
ATOM     22  C   UNL     1       2.412   6.414  18.642  0.00  0.00    +0.000 A 
ATOM     23  C   UNL     1       2.109   5.331  17.806  0.00  0.00    +0.000 A 
ATOM     24  C   UNL     1       1.648   4.116  18.340  0.00  0.00    +0.000 A 
BRANCH  19  26
ATOM     25  C   UNL     1       1.512   2.652  21.674  0.00  0.00    +0.000 C 
ATOM     26  O   UNL     1       1.052   2.826  20.337  0.00  0.00    +0.000 OA
ENDBRANCH  19  26
ENDBRANCH  18  22
ENDBRANCH  17  18
ENDBRANCH   1  17
TORSDOF 4
ENDMDL
MODEL 5
REMARK VINA RESULT:      -7.4      1.994      2.823
REMARK  Name = 
REMARK  7 active torsions:
REMARK  status: ('A' for Active; 'I' for Inactive)
REMARK    1  A    between atoms: C_1  and  O_2
REMARK    2  A    between atoms: O_2  and  C_3
REMARK    3  A    between atoms: C_6  and  C_7
REMARK    4  A    between atoms: C_7  and  C_8
REMARK    5  A    between atoms: C_8  and  N_9
REMARK    6  A    between atoms: N_17  and  C_18
REMARK    7  A    between atoms: N_21  and  C_22
REMARK                            x       y       z     vdW  Elec       q    Type
REMARK                         _______ _______ _______ _____ _____    ______ ____
ROOT
ATOM      1  N   UNL     1       2.677   4.603  20.284  0.00  0.00    +0.000 N 
ATOM      2  C   UNL     1       2.308   5.906  20.181  0.00  0.00    +0.000 A 
ATOM      3  N   UNL     1       2.378   6.686  19.128  0.00  0.00    +0.000 NA
ATOM      4  C   UNL     1       1.889   7.886  19.544  0.00  0.00    +0.000 A 
ATOM      5  C   UNL     1       1.512   7.849  20.847  0.00  0.00    +0.000 A 
ATOM      6  N   UNL     1       1.796   6.579  21.271  0.00  0.00    +0.000 N 
ATOM      7  C   UNL     1       0.944   8.950  21.527  0.00  0.00    +0.000 A 
ATOM      8  O   UNL     1       0.602   8.897  22.702  0.00  0.00    +0.000 OA
ATOM      9  N   UNL     1       0.820  10.084  20.711  0.00  0.00    +0.000 N 
ATOM     10  C   UNL     1       0.242  11.285  21.279  0.00  0.00    +0.000 C 
ATOM     11  C   UNL     1       1.198  10.161  19.353  0.00  0.00    +0.000 A 
ATOM     12  O   UNL     1       1.036  11.201  18.706  0.00  0.00    +0.000 OA
ATOM     13  N   UNL     1       1.750   9.015  18.780  0.00  0.00    +0.000 N 
ATOM     14  C   UNL     1       2.145   9.003  17.382  0.00  0.00    +0.000 C 
ATOM     15  H   UNL     1       3.255   4.389  21.091  0.00  0.00    +0.000 HD
ATOM     16  H   UNL     1       1.620   6.198  22.188  0.00  0.00    +0.000 HD
ENDROOT
BRANCH   1  17
ATOM     17  C   UNL     1       3.197   3.994  19.042  0.00  0.00    +0.000 C 
BRANCH  17  18
ATOM     18  C   UNL     1       4.714   3.760  19.111  0.00  0.00    +0.000 C 
BRANCH  18  22
ATOM     19  C   UNL     1       7.078   6.997  17.432  0.00  0.00    +0.000 A 
ATOM     20  C   UNL     1       7.453   6.388  18.627  0.00  0.00    +0.000 A 
ATOM     21  C   UNL     1       6.693   5.337  19.160  0.00  0.00    +0.000 A 
ATOM     22  C   UNL     1       5.529   4.894  18.518  0.00  0.00    +0.000 A 
ATOM     23  C   UNL     1       5.152   5.522  17.323  0.00  0.00    +0.000 A 
ATOM     24  C   UNL     1       5.920   6.567  16.786  0.00  0.00    +0.000 A 
BRANCH  19  26
ATOM     25  C   UNL     1       8.252   8.964  17.999  0.00  0.00    +0.000 C 
ATOM     26  O   UNL     1       7.886   8.015  17.001  0.00  0.00    +0.000 OA
ENDBRANCH  19  26
ENDBRANCH  18  22
ENDBRANCH  17  18
ENDBRANCH   1  17
TORSDOF 4
ENDMDL
MODEL 6
REMARK VINA RESULT:      -7.4      1.166      1.351
REMARK  Name = 
REMARK  7 active torsions:
REMARK  status: ('A' for Active; 'I' for Inactive)
REMARK    1  A    between atoms: C_1  and  O_2
REMARK    2  A    between atoms: O_2  and  C_3
REMARK    3  A    between atoms: C_6  and  C_7
REMARK    4  A    between atoms: C_7  and  C_8
REMARK    5  A    between atoms: C_8  and  N_9
REMARK    6  A    between atoms: N_17  and  C_18
REMARK    7  A    between atoms: N_21  and  C_22
REMARK                            x       y       z     vdW  Elec       q    Type
REMARK                         _______ _______ _______ _____ _____    ______ ____
ROOT
ATOM      1  N   UNL     1       2.162   7.362  20.809  0.00  0.00    +0.000 N 
ATOM      2  C   UNL     1       1.290   8.401  20.742  0.00  0.00    +0.000 A 
ATOM      3  N   UNL     1       0.710   8.902  19.676  0.00  0.00    +0.000 NA
ATOM      4  C   UNL     1      -0.062   9.921  20.140  0.00  0.00    +0.000 A 
ATOM      5  C   UNL     1       0.033  10.049  21.488  0.00  0.00    +0.000 A 
ATOM      6  N   UNL     1       0.918   9.082  21.882  0.00  0.00    +0.000 N 
ATOM      7  C   UNL     1      -0.686  11.010  22.234  0.00  0.00    +0.000 A 
ATOM      8  O   UNL     1      -0.594  11.106  23.452  0.00  0.00    +0.000 OA
ATOM      9  N   UNL     1      -1.501  11.820  21.430  0.00  0.00    +0.000 N 
ATOM     10  C   UNL     1      -2.303  12.844  22.068  0.00  0.00    +0.000 C 
ATOM     11  C   UNL     1      -1.628  11.717  20.028  0.00  0.00    +0.000 A 
ATOM     12  O   UNL     1      -2.385  12.467  19.402  0.00  0.00    +0.000 OA
ATOM     13  N   UNL     1      -0.872  10.734  19.390  0.00  0.00    +0.000 N 
ATOM     14  C   UNL     1      -0.961  10.548  17.952  0.00  0.00    +0.000 C 
ATOM     15  H   UNL     1       2.997   7.545  21.358  0.00  0.00    +0.000 HD
ATOM     16  H   UNL     1       1.204   8.879  22.827  0.00  0.00    +0.000 HD
ENDROOT
BRANCH   1  17
ATOM     17  C   UNL     1       2.467   6.708  19.520  0.00  0.00    +0.000 C 
BRANCH  17  18
ATOM     18  C   UNL     1       3.324   5.447  19.707  0.00  0.00    +0.000 C 
BRANCH  18  22
ATOM     19  C   UNL     1       6.394   4.932  16.674  0.00  0.00    +0.000 A 
ATOM     20  C   UNL     1       6.699   4.793  18.026  0.00  0.00    +0.000 A 
ATOM     21  C   UNL     1       5.704   4.950  19.001  0.00  0.00    +0.000 A 
ATOM     22  C   UNL     1       4.389   5.274  18.639  0.00  0.00    +0.000 A 
ATOM     23  C   UNL     1       4.093   5.425  17.278  0.00  0.00    +0.000 A 
ATOM     24  C   UNL     1       5.089   5.257  16.303  0.00  0.00    +0.000 A 
BRANCH  19  26
ATOM     25  C   UNL     1       7.084   4.745  14.425  0.00  0.00    +0.000 C 
ATOM     26  O   UNL     1       7.438   4.762  15.805  0.00  0.00    +0.000 OA
ENDBRANCH  19  26
ENDBRANCH  18  22
ENDBRANCH  17  18
ENDBRANCH   1  17
TORSDOF 4
ENDMDL
MODEL 7
REMARK VINA RESULT:      -7.3      2.912      8.519
REMARK  Name = 
REMARK  7 active torsions:
REMARK  status: ('A' for Active; 'I' for Inactive)
REMARK    1  A    between atoms: C_1  and  O_2
REMARK    2  A    between atoms: O_2  and  C_3
REMARK    3  A    between atoms: C_6  and  C_7
REMARK    4  A    between atoms: C_7  and  C_8
REMARK    5  A    between atoms: C_8  and  N_9
REMARK    6  A    between atoms: N_17  and  C_18
REMARK    7  A    between atoms: N_21  and  C_22
REMARK                            x       y       z     vdW  Elec       q    Type
REMARK                         _______ _______ _______ _____ _____    ______ ____
ROOT
ATOM      1  N   UNL     1       0.865   8.899  20.442  0.00  0.00    +0.000 N 
ATOM      2  C   UNL     1       1.594   7.803  20.106  0.00  0.00    +0.000 A 
ATOM      3  N   UNL     1       2.414   7.657  19.091  0.00  0.00    +0.000 NA
ATOM      4  C   UNL     1       2.886   6.386  19.199  0.00  0.00    +0.000 A 
ATOM      5  C   UNL     1       2.367   5.748  20.278  0.00  0.00    +0.000 A 
ATOM      6  N   UNL     1       1.517   6.650  20.859  0.00  0.00    +0.000 N 
ATOM      7  C   UNL     1       2.708   4.426  20.643  0.00  0.00    +0.000 A 
ATOM      8  O   UNL     1       2.235   3.868  21.626  0.00  0.00    +0.000 OA
ATOM      9  N   UNL     1       3.636   3.845  19.766  0.00  0.00    +0.000 N 
ATOM     10  C   UNL     1       4.081   2.492  20.028  0.00  0.00    +0.000 C 
ATOM     11  C   UNL     1       4.199   4.476  18.636  0.00  0.00    +0.000 A 
ATOM     12  O   UNL     1       5.024   3.890  17.926  0.00  0.00    +0.000 OA
ATOM     13  N   UNL     1       3.792   5.783  18.366  0.00  0.00    +0.000 N 
ATOM     14  C   UNL     1       4.340   6.511  17.235  0.00  0.00    +0.000 C 
ATOM     15  H   UNL     1      -0.113   8.713  20.641  0.00  0.00    +0.000 HD
ATOM     16  H   UNL     1       0.978   6.513  21.700  0.00  0.00    +0.000 HD
ENDROOT
BRANCH   1  17
ATOM     17  C   UNL     1       1.047  10.073  19.563  0.00  0.00    +0.000 C 
BRANCH  17  18
ATOM     18  C   UNL     1       0.424   9.851  18.176  0.00  0.00    +0.000 C 
BRANCH  18  22
ATOM     19  C   UNL     1      -3.674  11.260  17.841  0.00  0.00    +0.000 A 
ATOM     20  C   UNL     1      -3.168  10.322  16.944  0.00  0.00    +0.000 A 
ATOM     21  C   UNL     1      -1.849   9.862  17.062  0.00  0.00    +0.000 A 
ATOM     22  C   UNL     1      -1.004  10.353  18.066  0.00  0.00    +0.000 A 
ATOM     23  C   UNL     1      -1.516  11.307  18.956  0.00  0.00    +0.000 A 
ATOM     24  C   UNL     1      -2.841  11.758  18.842  0.00  0.00    +0.000 A 
BRANCH  19  26
ATOM     25  C   UNL     1      -5.940  10.962  18.427  0.00  0.00    +0.000 C 
ATOM     26  O   UNL     1      -4.972  11.644  17.635  0.00  0.00    +0.000 OA
ENDBRANCH  19  26
ENDBRANCH  18  22
ENDBRANCH  17  18
ENDBRANCH   1  17
TORSDOF 4
ENDMDL
MODEL 8
REMARK VINA RESULT:      -7.3      2.872      8.577
REMARK  Name = 
REMARK  7 active torsions:
REMARK  status: ('A' for Active; 'I' for Inactive)
REMARK    1  A    between atoms: C_1  and  O_2
REMARK    2  A    between atoms: O_2  and  C_3
REMARK    3  A    between atoms: C_6  and  C_7
REMARK    4  A    between atoms: C_7  and  C_8
REMARK    5  A    between atoms: C_8  and  N_9
REMARK    6  A    between atoms: N_17  and  C_18
REMARK    7  A    between atoms: N_21  and  C_22
REMARK                            x       y       z     vdW  Elec       q    Type
REMARK                         _______ _______ _______ _____ _____    ______ ____
ROOT
ATOM      1  N   UNL     1       0.930   8.755  20.696  0.00  0.00    +0.000 N 
ATOM      2  C   UNL     1       1.643   7.677  20.276  0.00  0.00    +0.000 A 
ATOM      3  N   UNL     1       2.435   7.589  19.234  0.00  0.00    +0.000 NA
ATOM      4  C   UNL     1       2.903   6.311  19.253  0.00  0.00    +0.000 A 
ATOM      5  C   UNL     1       2.408   5.612  20.305  0.00  0.00    +0.000 A 
ATOM      6  N   UNL     1       1.579   6.482  20.961  0.00  0.00    +0.000 N 
ATOM      7  C   UNL     1       2.751   4.270  20.582  0.00  0.00    +0.000 A 
ATOM      8  O   UNL     1       2.301   3.656  21.542  0.00  0.00    +0.000 OA
ATOM      9  N   UNL     1       3.652   3.738  19.647  0.00  0.00    +0.000 N 
ATOM     10  C   UNL     1       4.097   2.370  19.817  0.00  0.00    +0.000 C 
ATOM     11  C   UNL     1       4.190   4.433  18.543  0.00  0.00    +0.000 A 
ATOM     12  O   UNL     1       4.992   3.887  17.778  0.00  0.00    +0.000 OA
ATOM     13  N   UNL     1       3.783   5.755  18.362  0.00  0.00    +0.000 N 
ATOM     14  C   UNL     1       4.306   6.547  17.262  0.00  0.00    +0.000 C 
ATOM     15  H   UNL     1      -0.044   8.561  20.909  0.00  0.00    +0.000 HD
ATOM     16  H   UNL     1       1.061   6.297  21.807  0.00  0.00    +0.000 HD
ENDROOT
BRANCH   1  17
ATOM     17  C   UNL     1       1.095   9.978  19.884  0.00  0.00    +0.000 C 
BRANCH  17  18
ATOM     18  C   UNL     1       0.029  11.034  20.216  0.00  0.00    +0.000 C 
BRANCH  18  22
ATOM     19  C   UNL     1      -3.278  11.153  17.399  0.00  0.00    +0.000 A 
ATOM     20  C   UNL     1      -3.302  11.926  18.558  0.00  0.00    +0.000 A 
ATOM     21  C   UNL     1      -2.228  11.893  19.459  0.00  0.00    +0.000 A 
ATOM     22  C   UNL     1      -1.122  11.064  19.227  0.00  0.00    +0.000 A 
ATOM     23  C   UNL     1      -1.112  10.279  18.067  0.00  0.00    +0.000 A 
ATOM     24  C   UNL     1      -2.184  10.322  17.160  0.00  0.00    +0.000 A 
BRANCH  19  26
ATOM     25  C   UNL     1      -5.475  11.975  17.144  0.00  0.00    +0.000 C 
ATOM     26  O   UNL     1      -4.377  11.256  16.589  0.00  0.00    +0.000 OA
ENDBRANCH  19  26
ENDBRANCH  18  22
ENDBRANCH  17  18
ENDBRANCH   1  17
TORSDOF 4
ENDMDL
MODEL 9
REMARK VINA RESULT:      -7.3      1.253      1.756
REMARK  Name = 
REMARK  7 active torsions:
REMARK  status: ('A' for Active; 'I' for Inactive)
REMARK    1  A    between atoms: C_1  and  O_2
REMARK    2  A    between atoms: O_2  and  C_3
REMARK    3  A    between atoms: C_6  and  C_7
REMARK    4  A    between atoms: C_7  and  C_8
REMARK    5  A    between atoms: C_8  and  N_9
REMARK    6  A    between atoms: N_17  and  C_18
REMARK    7  A    between atoms: N_21  and  C_22
REMARK                            x       y       z     vdW  Elec       q    Type
REMARK                         _______ _______ _______ _____ _____    ______ ____
ROOT
ATOM      1  N   UNL     1       2.494   5.399  20.477  0.00  0.00    +0.000 N 
ATOM      2  C   UNL     1       2.059   6.685  20.423  0.00  0.00    +0.000 A 
ATOM      3  N   UNL     1       2.100   7.510  19.402  0.00  0.00    +0.000 NA
ATOM      4  C   UNL     1       1.544   8.664  19.859  0.00  0.00    +0.000 A 
ATOM      5  C   UNL     1       1.155   8.556  21.155  0.00  0.00    +0.000 A 
ATOM      6  N   UNL     1       1.500   7.286  21.531  0.00  0.00    +0.000 N 
ATOM      7  C   UNL     1       0.523   9.597  21.871  0.00  0.00    +0.000 A 
ATOM      8  O   UNL     1       0.171   9.478  23.038  0.00  0.00    +0.000 OA
ATOM      9  N   UNL     1       0.349  10.755  21.099  0.00  0.00    +0.000 N 
ATOM     10  C   UNL     1      -0.297  11.900  21.707  0.00  0.00    +0.000 C 
ATOM     11  C   UNL     1       0.738  10.907  19.750  0.00  0.00    +0.000 A 
ATOM     12  O   UNL     1       0.529  11.962  19.144  0.00  0.00    +0.000 OA
ATOM     13  N   UNL     1       1.355   9.815  19.139  0.00  0.00    +0.000 N 
ATOM     14  C   UNL     1       1.766   9.881  17.748  0.00  0.00    +0.000 C 
ATOM     15  H   UNL     1       3.074   5.183  21.283  0.00  0.00    +0.000 HD
ATOM     16  H   UNL     1       1.334   6.859  22.430  0.00  0.00    +0.000 HD
ENDROOT
BRANCH   1  17
ATOM     17  C   UNL     1       3.059   4.869  19.219  0.00  0.00    +0.000 C 
BRANCH  17  18
ATOM     18  C   UNL     1       4.548   4.517  19.365  0.00  0.00    +0.000 C 
BRANCH  18  22
ATOM     19  C   UNL     1       6.862   5.118  15.735  0.00  0.00    +0.000 A 
ATOM     20  C   UNL     1       7.174   5.813  16.901  0.00  0.00    +0.000 A 
ATOM     21  C   UNL     1       6.431   5.608  18.073  0.00  0.00    +0.000 A 
ATOM     22  C   UNL     1       5.346   4.722  18.090  0.00  0.00    +0.000 A 
ATOM     23  C   UNL     1       5.030   4.037  16.909  0.00  0.00    +0.000 A 
ATOM     24  C   UNL     1       5.782   4.236  15.740  0.00  0.00    +0.000 A 
BRANCH  19  26
ATOM     25  C   UNL     1       7.223   4.795  13.426  0.00  0.00    +0.000 C 
ATOM     26  O   UNL     1       7.646   5.393  14.647  0.00  0.00    +0.000 OA
ENDBRANCH  19  26
ENDBRANCH  18  22
ENDBRANCH  17  18
ENDBRANCH   1  17
TORSDOF 4
ENDMDL
