MODEL 1
REMARK VINA RESULT:      -7.4      0.000      0.000
REMARK  Name = 
REMARK  12 active torsions:
REMARK  status: ('A' for Active; 'I' for Inactive)
REMARK    1  A    between atoms: C_1  and  C_2
REMARK    2  A    between atoms: C_2  and  C_3
REMARK    3  A    between atoms: C_3  and  C_4
REMARK    4  A    between atoms: C_4  and  C_5
REMARK    5  A    between atoms: C_5  and  C_6
REMARK    6  A    between atoms: C_6  and  C_7
REMARK    7  A    between atoms: C_7  and  C_8
REMARK    8  A    between atoms: C_9  and  C_10
REMARK    9  A    between atoms: C_10  and  O_12
REMARK   10  A    between atoms: O_12  and  C_13
REMARK   11  A    between atoms: C_25  and  C_26
REMARK   12  A    between atoms: C_26  and  O_27
REMARK                            x       y       z     vdW  Elec       q    Type
REMARK                         _______ _______ _______ _____ _____    ______ ____
ROOT
ATOM      1  C   UNL     1       6.676   6.278  17.397  0.00  0.00    +0.000 C 
ATOM      2  C   UNL     1       5.487   6.018  18.293  0.00  0.00    +0.000 C 
ATOM      3  O   UNL     1       5.458   4.674  18.830  0.00  0.00    +0.000 OA
ATOM      4  C   UNL     1       4.148   4.283  18.772  0.00  0.00    +0.000 A 
ATOM      5  N   UNL     1       3.685   3.293  19.468  0.00  0.00    +0.000 NA
ATOM      6  C   UNL     1       2.336   3.069  19.348  0.00  0.00    +0.000 A 
ATOM      7  N   UNL     1       1.833   2.091  20.021  0.00  0.00    +0.000 NA
ATOM      8  C   UNL     1       1.486   3.941  18.495  0.00  0.00    +0.000 A 
ATOM      9  C   UNL     1       2.094   4.917  17.808  0.00  0.00    +0.000 A 
ATOM     10  N   UNL     1       3.447   5.085  17.922  0.00  0.00    +0.000 N 
ATOM     11  C   UNL     1       4.298   6.087  17.349  0.00  0.00    +0.000 C 
ATOM     12  O   UNL     1       4.752   5.708  16.044  0.00  0.00    +0.000 OA
ATOM     13  C   UNL     1       6.200   5.757  16.028  0.00  0.00    +0.000 C 
ATOM     14  H   UNL     1       2.622   1.671  20.525  0.00  0.00    +0.000 HD
ENDROOT
BRANCH   1  15
ATOM     15  O   UNL     1       6.979   7.692  17.271  0.00  0.00    +0.000 OA
BRANCH  15  16
ATOM     16  C   UNL     1       8.007   8.125  18.059  0.00  0.00    +0.000 C 
ATOM     17  O   UNL     1       8.614   7.445  18.854  0.00  0.00    +0.000 OA
BRANCH  16  19
ATOM     18  C   UNL     1       9.024  10.263  18.650  0.00  0.00    +0.000 C 
ATOM     19  C   UNL     1       8.308   9.548  17.764  0.00  0.00    +0.000 C 
BRANCH  18  20
ATOM     20  C   UNL     1       9.424  11.702  18.469  0.00  0.00    +0.000 C 
BRANCH  20  21
ATOM     21  C   UNL     1      10.771  12.013  19.129  0.00  0.00    +0.000 C 
BRANCH  21  22
ATOM     22  C   UNL     1      10.663  11.994  20.656  0.00  0.00    +0.000 C 
BRANCH  22  23
ATOM     23  C   UNL     1       9.985  13.262  21.177  0.00  0.00    +0.000 C 
BRANCH  23  24
ATOM     24  C   UNL     1       9.228  12.985  22.475  0.00  0.00    +0.000 C 
BRANCH  24  26
ATOM     25  C   UNL     1       7.065  11.919  23.162  0.00  0.00    +0.000 C 
ATOM     26  C   UNL     1       8.334  11.756  22.343  0.00  0.00    +0.000 C 
ENDBRANCH  24  26
ENDBRANCH  23  24
ENDBRANCH  22  23
ENDBRANCH  21  22
ENDBRANCH  20  21
ENDBRANCH  18  20
ENDBRANCH  16  19
ENDBRANCH  15  16
ENDBRANCH   1  15
BRANCH  13  27
ATOM     27  C   UNL     1       6.743   4.355  15.712  0.00  0.00    +0.000 C 
BRANCH  27  28
ATOM     28  O   UNL     1       7.752   3.975  16.647  0.00  0.00    +0.000 OA
ATOM     29  H   UNL     1       8.534   3.697  16.136  0.00  0.00    +0.000 HD
ENDBRANCH  27  28
ENDBRANCH  13  27
TORSDOF 11
ENDMDL
MODEL 2
REMARK VINA RESULT:      -7.1      1.357      2.210
REMARK  Name = 
REMARK  12 active torsions:
REMARK  status: ('A' for Active; 'I' for Inactive)
REMARK    1  A    between atoms: C_1  and  C_2
REMARK    2  A    between atoms: C_2  and  C_3
REMARK    3  A    between atoms: C_3  and  C_4
REMARK    4  A    between atoms: C_4  and  C_5
REMARK    5  A    between atoms: C_5  and  C_6
REMARK    6  A    between atoms: C_6  and  C_7
REMARK    7  A    between atoms: C_7  and  C_8
REMARK    8  A    between atoms: C_9  and  C_10
REMARK    9  A    between atoms: C_10  and  O_12
REMARK   10  A    between atoms: O_12  and  C_13
REMARK   11  A    between atoms: C_25  and  C_26
REMARK   12  A    between atoms: C_26  and  O_27
REMARK                            x       y       z     vdW  Elec       q    Type
REMARK                         _______ _______ _______ _____ _____    ______ ____
ROOT
ATOM      1  C   UNL     1       6.823   5.795  16.938  0.00  0.00    +0.000 C 
ATOM      2  C   UNL     1       5.678   5.480  17.871  0.00  0.00    +0.000 C 
ATOM      3  O   UNL     1       5.612   4.082  18.244  0.00  0.00    +0.000 OA
ATOM      4  C   UNL     1       4.283   3.758  18.224  0.00  0.00    +0.000 A 
ATOM      5  N   UNL     1       3.812   2.712  18.824  0.00  0.00    +0.000 NA
ATOM      6  C   UNL     1       2.448   2.563  18.767  0.00  0.00    +0.000 A 
ATOM      7  N   UNL     1       1.936   1.532  19.349  0.00  0.00    +0.000 NA
ATOM      8  C   UNL     1       1.595   3.570  18.082  0.00  0.00    +0.000 A 
ATOM      9  C   UNL     1       2.210   4.595  17.479  0.00  0.00    +0.000 A 
ATOM     10  N   UNL     1       3.574   4.689  17.524  0.00  0.00    +0.000 N 
ATOM     11  C   UNL     1       4.440   5.716  17.022  0.00  0.00    +0.000 C 
ATOM     12  O   UNL     1       4.796   5.481  15.654  0.00  0.00    +0.000 OA
ATOM     13  C   UNL     1       6.241   5.469  15.549  0.00  0.00    +0.000 C 
ATOM     14  H   UNL     1       2.731   1.019  19.746  0.00  0.00    +0.000 HD
ENDROOT
BRANCH   1  15
ATOM     15  O   UNL     1       7.191   7.200  16.963  0.00  0.00    +0.000 OA
BRANCH  15  16
ATOM     16  C   UNL     1       7.961   7.567  18.029  0.00  0.00    +0.000 C 
ATOM     17  O   UNL     1       8.410   6.811  18.860  0.00  0.00    +0.000 OA
BRANCH  16  19
ATOM     18  C   UNL     1       9.038   9.573  18.907  0.00  0.00    +0.000 C 
ATOM     19  C   UNL     1       8.213   9.029  17.994  0.00  0.00    +0.000 C 
BRANCH  18  20
ATOM     20  C   UNL     1       9.403  11.031  18.972  0.00  0.00    +0.000 C 
BRANCH  20  21
ATOM     21  C   UNL     1       9.760  11.471  20.396  0.00  0.00    +0.000 C 
BRANCH  21  22
ATOM     22  C   UNL     1      11.090  12.229  20.429  0.00  0.00    +0.000 C 
BRANCH  22  23
ATOM     23  C   UNL     1      10.881  13.723  20.180  0.00  0.00    +0.000 C 
BRANCH  23  24
ATOM     24  C   UNL     1      11.486  14.145  18.843  0.00  0.00    +0.000 C 
BRANCH  24  26
ATOM     25  C   UNL     1      10.432  15.950  17.458  0.00  0.00    +0.000 C 
ATOM     26  C   UNL     1      10.402  14.476  17.823  0.00  0.00    +0.000 C 
ENDBRANCH  24  26
ENDBRANCH  23  24
ENDBRANCH  22  23
ENDBRANCH  21  22
ENDBRANCH  20  21
ENDBRANCH  18  20
ENDBRANCH  16  19
ENDBRANCH  15  16
ENDBRANCH   1  15
BRANCH  13  27
ATOM     27  C   UNL     1       6.692   4.094  15.032  0.00  0.00    +0.000 C 
BRANCH  27  28
ATOM     28  O   UNL     1       5.886   3.052  15.583  0.00  0.00    +0.000 OA
ATOM     29  H   UNL     1       6.279   2.204  15.308  0.00  0.00    +0.000 HD
ENDBRANCH  27  28
ENDBRANCH  13  27
TORSDOF 11
ENDMDL
MODEL 3
REMARK VINA RESULT:      -7.1      1.862      2.299
REMARK  Name = 
REMARK  12 active torsions:
REMARK  status: ('A' for Active; 'I' for Inactive)
REMARK    1  A    between atoms: C_1  and  C_2
REMARK    2  A    between atoms: C_2  and  C_3
REMARK    3  A    between atoms: C_3  and  C_4
REMARK    4  A    between atoms: C_4  and  C_5
REMARK    5  A    between atoms: C_5  and  C_6
REMARK    6  A    between atoms: C_6  and  C_7
REMARK    7  A    between atoms: C_7  and  C_8
REMARK    8  A    between atoms: C_9  and  C_10
REMARK    9  A    between atoms: C_10  and  O_12
REMARK   10  A    between atoms: O_12  and  C_13
REMARK   11  A    between atoms: C_25  and  C_26
REMARK   12  A    between atoms: C_26  and  O_27
REMARK                            x       y       z     vdW  Elec       q    Type
REMARK                         _______ _______ _______ _____ _____    ______ ____
ROOT
ATOM      1  C   UNL     1       5.614   5.368  17.822  0.00  0.00    +0.000 C 
ATOM      2  C   UNL     1       4.718   5.344  19.039  0.00  0.00    +0.000 C 
ATOM      3  O   UNL     1       4.739   4.077  19.739  0.00  0.00    +0.000 OA
ATOM      4  C   UNL     1       3.441   3.834  20.099  0.00  0.00    +0.000 A 
ATOM      5  N   UNL     1       3.122   2.984  21.022  0.00  0.00    +0.000 NA
ATOM      6  C   UNL     1       1.782   2.904  21.312  0.00  0.00    +0.000 A 
ATOM      7  N   UNL     1       1.419   2.068  22.224  0.00  0.00    +0.000 NA
ATOM      8  C   UNL     1       0.794   3.772  20.618  0.00  0.00    +0.000 A 
ATOM      9  C   UNL     1       1.253   4.592  19.665  0.00  0.00    +0.000 A 
ATOM     10  N   UNL     1       2.590   4.616  19.376  0.00  0.00    +0.000 N 
ATOM     11  C   UNL     1       3.317   5.447  18.460  0.00  0.00    +0.000 C 
ATOM     12  O   UNL     1       3.342   4.881  17.144  0.00  0.00    +0.000 OA
ATOM     13  C   UNL     1       4.723   4.762  16.721  0.00  0.00    +0.000 C 
ATOM     14  H   UNL     1       2.284   1.616  22.542  0.00  0.00    +0.000 HD
ENDROOT
BRANCH   1  15
ATOM     15  O   UNL     1       5.979   6.716  17.427  0.00  0.00    +0.000 OA
BRANCH  15  16
ATOM     16  C   UNL     1       7.293   6.873  17.090  0.00  0.00    +0.000 C 
ATOM     17  O   UNL     1       7.815   6.442  16.087  0.00  0.00    +0.000 OA
BRANCH  16  19
ATOM     18  C   UNL     1       8.261   8.985  17.837  0.00  0.00    +0.000 C 
ATOM     19  C   UNL     1       7.985   7.698  18.112  0.00  0.00    +0.000 C 
BRANCH  18  20
ATOM     20  C   UNL     1       8.931   9.941  18.786  0.00  0.00    +0.000 C 
BRANCH  20  21
ATOM     21  C   UNL     1       9.129  11.327  18.163  0.00  0.00    +0.000 C 
BRANCH  21  22
ATOM     22  C   UNL     1      10.598  11.578  17.816  0.00  0.00    +0.000 C 
BRANCH  22  23
ATOM     23  C   UNL     1      11.133  12.816  18.537  0.00  0.00    +0.000 C 
BRANCH  23  24
ATOM     24  C   UNL     1      11.197  12.587  20.045  0.00  0.00    +0.000 C 
BRANCH  24  26
ATOM     25  C   UNL     1       9.697  14.594  19.948  0.00  0.00    +0.000 C 
ATOM     26  C   UNL     1      10.650  13.787  20.812  0.00  0.00    +0.000 C 
ENDBRANCH  24  26
ENDBRANCH  23  24
ENDBRANCH  22  23
ENDBRANCH  21  22
ENDBRANCH  20  21
ENDBRANCH  18  20
ENDBRANCH  16  19
ENDBRANCH  15  16
ENDBRANCH   1  15
BRANCH  13  27
ATOM     27  C   UNL     1       5.038   3.281  16.459  0.00  0.00    +0.000 C 
BRANCH  27  28
ATOM     28  O   UNL     1       6.156   3.143  15.582  0.00  0.00    +0.000 OA
ATOM     29  H   UNL     1       6.895   2.787  16.105  0.00  0.00    +0.000 HD
ENDBRANCH  27  28
ENDBRANCH  13  27
TORSDOF 11
ENDMDL
MODEL 4
REMARK VINA RESULT:      -7.1      0.847      1.042
REMARK  Name = 
REMARK  12 active torsions:
REMARK  status: ('A' for Active; 'I' for Inactive)
REMARK    1  A    between atoms: C_1  and  C_2
REMARK    2  A    between atoms: C_2  and  C_3
REMARK    3  A    between atoms: C_3  and  C_4
REMARK    4  A    between atoms: C_4  and  C_5
REMARK    5  A    between atoms: C_5  and  C_6
REMARK    6  A    between atoms: C_6  and  C_7
REMARK    7  A    between atoms: C_7  and  C_8
REMARK    8  A    between atoms: C_9  and  C_10
REMARK    9  A    between atoms: C_10  and  O_12
REMARK   10  A    between atoms: O_12  and  C_13
REMARK   11  A    between atoms: C_25  and  C_26
REMARK   12  A    between atoms: C_26  and  O_27
REMARK                            x       y       z     vdW  Elec       q    Type
REMARK                         _______ _______ _______ _____ _____    ______ ____
ROOT
ATOM      1  C   UNL     1       6.874   6.050  17.225  0.00  0.00    +0.000 C 
ATOM      2  C   UNL     1       5.707   5.881  18.170  0.00  0.00    +0.000 C 
ATOM      3  O   UNL     1       5.610   4.548  18.726  0.00  0.00    +0.000 OA
ATOM      4  C   UNL     1       4.276   4.245  18.724  0.00  0.00    +0.000 A 
ATOM      5  N   UNL     1       3.775   3.296  19.450  0.00  0.00    +0.000 NA
ATOM      6  C   UNL     1       2.410   3.162  19.386  0.00  0.00    +0.000 A 
ATOM      7  N   UNL     1       1.870   2.227  20.092  0.00  0.00    +0.000 NA
ATOM      8  C   UNL     1       1.588   4.080  18.554  0.00  0.00    +0.000 A 
ATOM      9  C   UNL     1       2.232   5.004  17.831  0.00  0.00    +0.000 A 
ATOM     10  N   UNL     1       3.596   5.083  17.890  0.00  0.00    +0.000 N 
ATOM     11  C   UNL     1       4.489   6.019  17.271  0.00  0.00    +0.000 C 
ATOM     12  O   UNL     1       4.865   5.596  15.955  0.00  0.00    +0.000 OA
ATOM     13  C   UNL     1       6.312   5.548  15.882  0.00  0.00    +0.000 C 
ATOM     14  H   UNL     1       2.649   1.761  20.570  0.00  0.00    +0.000 HD
ENDROOT
BRANCH   1  15
ATOM     15  O   UNL     1       7.266   7.440  17.067  0.00  0.00    +0.000 OA
BRANCH  15  16
ATOM     16  C   UNL     1       8.049   7.927  18.074  0.00  0.00    +0.000 C 
ATOM     17  O   UNL     1       8.544   7.265  18.958  0.00  0.00    +0.000 OA
BRANCH  16  19
ATOM     18  C   UNL     1       9.178  10.013  18.646  0.00  0.00    +0.000 C 
ATOM     19  C   UNL     1       8.250   9.387  17.900  0.00  0.00    +0.000 C 
BRANCH  18  20
ATOM     20  C   UNL     1       9.505  11.479  18.555  0.00  0.00    +0.000 C 
BRANCH  20  21
ATOM     21  C   UNL     1       9.863  12.075  19.921  0.00  0.00    +0.000 C 
BRANCH  21  22
ATOM     22  C   UNL     1       9.155  11.332  21.057  0.00  0.00    +0.000 C 
BRANCH  22  23
ATOM     23  C   UNL     1       8.764  12.289  22.183  0.00  0.00    +0.000 C 
BRANCH  23  24
ATOM     24  C   UNL     1       7.584  11.740  22.984  0.00  0.00    +0.000 C 
BRANCH  24  26
ATOM     25  C   UNL     1       8.482  12.957  24.985  0.00  0.00    +0.000 C 
ATOM     26  C   UNL     1       7.919  11.643  24.469  0.00  0.00    +0.000 C 
ENDBRANCH  24  26
ENDBRANCH  23  24
ENDBRANCH  22  23
ENDBRANCH  21  22
ENDBRANCH  20  21
ENDBRANCH  18  20
ENDBRANCH  16  19
ENDBRANCH  15  16
ENDBRANCH   1  15
BRANCH  13  27
ATOM     27  C   UNL     1       6.747   4.109  15.565  0.00  0.00    +0.000 C 
BRANCH  27  28
ATOM     28  O   UNL     1       5.801   3.165  16.070  0.00  0.00    +0.000 OA
ATOM     29  H   UNL     1       5.047   3.669  16.424  0.00  0.00    +0.000 HD
ENDBRANCH  27  28
ENDBRANCH  13  27
TORSDOF 11
ENDMDL
MODEL 5
REMARK VINA RESULT:      -7.0      1.942      2.322
REMARK  Name = 
REMARK  12 active torsions:
REMARK  status: ('A' for Active; 'I' for Inactive)
REMARK    1  A    between atoms: C_1  and  C_2
REMARK    2  A    between atoms: C_2  and  C_3
REMARK    3  A    between atoms: C_3  and  C_4
REMARK    4  A    between atoms: C_4  and  C_5
REMARK    5  A    between atoms: C_5  and  C_6
REMARK    6  A    between atoms: C_6  and  C_7
REMARK    7  A    between atoms: C_7  and  C_8
REMARK    8  A    between atoms: C_9  and  C_10
REMARK    9  A    between atoms: C_10  and  O_12
REMARK   10  A    between atoms: O_12  and  C_13
REMARK   11  A    between atoms: C_25  and  C_26
REMARK   12  A    between atoms: C_26  and  O_27
REMARK                            x       y       z     vdW  Elec       q    Type
REMARK                         _______ _______ _______ _____ _____    ______ ____
ROOT
ATOM      1  C   UNL     1       6.745   5.470  17.189  0.00  0.00    +0.000 C 
ATOM      2  C   UNL     1       5.893   5.462  18.437  0.00  0.00    +0.000 C 
ATOM      3  O   UNL     1       5.721   4.141  19.004  0.00  0.00    +0.000 OA
ATOM      4  C   UNL     1       4.413   4.076  19.397  0.00  0.00    +0.000 A 
ATOM      5  N   UNL     1       3.982   3.195  20.243  0.00  0.00    +0.000 NA
ATOM      6  C   UNL     1       2.657   3.305  20.586  0.00  0.00    +0.000 A 
ATOM      7  N   UNL     1       2.186   2.446  21.424  0.00  0.00    +0.000 NA
ATOM      8  C   UNL     1       1.809   4.392  20.030  0.00  0.00    +0.000 A 
ATOM      9  C   UNL     1       2.371   5.224  19.144  0.00  0.00    +0.000 A 
ATOM     10  N   UNL     1       3.684   5.060  18.797  0.00  0.00    +0.000 N 
ATOM     11  C   UNL     1       4.513   5.855  17.938  0.00  0.00    +0.000 C 
ATOM     12  O   UNL     1       4.405   5.437  16.571  0.00  0.00    +0.000 OA
ATOM     13  C   UNL     1       5.734   5.140  16.074  0.00  0.00    +0.000 C 
ATOM     14  H   UNL     1       2.972   1.827  21.654  0.00  0.00    +0.000 HD
ENDROOT
BRANCH   1  15
ATOM     15  O   UNL     1       7.320   6.775  16.915  0.00  0.00    +0.000 OA
BRANCH  15  16
ATOM     16  C   UNL     1       7.890   7.382  17.997  0.00  0.00    +0.000 C 
ATOM     17  O   UNL     1       8.329   6.811  18.969  0.00  0.00    +0.000 OA
BRANCH  16  19
ATOM     18  C   UNL     1       8.862   9.574  18.450  0.00  0.00    +0.000 C 
ATOM     19  C   UNL     1       7.942   8.850  17.786  0.00  0.00    +0.000 C 
BRANCH  18  20
ATOM     20  C   UNL     1       9.046  11.061  18.313  0.00  0.00    +0.000 C 
BRANCH  20  21
ATOM     21  C   UNL     1      10.469  11.428  17.879  0.00  0.00    +0.000 C 
BRANCH  21  22
ATOM     22  C   UNL     1      10.572  12.906  17.496  0.00  0.00    +0.000 C 
BRANCH  22  23
ATOM     23  C   UNL     1       9.340  13.685  17.956  0.00  0.00    +0.000 C 
BRANCH  23  24
ATOM     24  C   UNL     1       9.704  15.123  18.320  0.00  0.00    +0.000 C 
BRANCH  24  26
ATOM     25  C   UNL     1      11.766  15.840  19.553  0.00  0.00    +0.000 C 
ATOM     26  C   UNL     1      10.397  15.193  19.677  0.00  0.00    +0.000 C 
ENDBRANCH  24  26
ENDBRANCH  23  24
ENDBRANCH  22  23
ENDBRANCH  21  22
ENDBRANCH  20  21
ENDBRANCH  18  20
ENDBRANCH  16  19
ENDBRANCH  15  16
ENDBRANCH   1  15
BRANCH  13  27
ATOM     27  C   UNL     1       5.789   3.665  15.650  0.00  0.00    +0.000 C 
BRANCH  27  28
ATOM     28  O   UNL     1       6.416   3.522  14.375  0.00  0.00    +0.000 OA
ATOM     29  H   UNL     1       6.353   2.584  14.122  0.00  0.00    +0.000 HD
ENDBRANCH  27  28
ENDBRANCH  13  27
TORSDOF 11
ENDMDL
MODEL 6
REMARK VINA RESULT:      -6.9      2.142      3.037
REMARK  Name = 
REMARK  12 active torsions:
REMARK  status: ('A' for Active; 'I' for Inactive)
REMARK    1  A    between atoms: C_1  and  C_2
REMARK    2  A    between atoms: C_2  and  C_3
REMARK    3  A    between atoms: C_3  and  C_4
REMARK    4  A    between atoms: C_4  and  C_5
REMARK    5  A    between atoms: C_5  and  C_6
REMARK    6  A    between atoms: C_6  and  C_7
REMARK    7  A    between atoms: C_7  and  C_8
REMARK    8  A    between atoms: C_9  and  C_10
REMARK    9  A    between atoms: C_10  and  O_12
REMARK   10  A    between atoms: O_12  and  C_13
REMARK   11  A    between atoms: C_25  and  C_26
REMARK   12  A    between atoms: C_26  and  O_27
REMARK                            x       y       z     vdW  Elec       q    Type
REMARK                         _______ _______ _______ _____ _____    ______ ____
ROOT
ATOM      1  C   UNL     1       6.193   4.932  17.780  0.00  0.00    +0.000 C 
ATOM      2  C   UNL     1       5.478   4.884  19.111  0.00  0.00    +0.000 C 
ATOM      3  O   UNL     1       4.976   3.568  19.444  0.00  0.00    +0.000 OA
ATOM      4  C   UNL     1       3.741   3.774  19.995  0.00  0.00    +0.000 A 
ATOM      5  N   UNL     1       3.142   2.880  20.717  0.00  0.00    +0.000 NA
ATOM      6  C   UNL     1       1.938   3.264  21.253  0.00  0.00    +0.000 A 
ATOM      7  N   UNL     1       1.307   2.404  21.977  0.00  0.00    +0.000 NA
ATOM      8  C   UNL     1       1.402   4.633  21.029  0.00  0.00    +0.000 A 
ATOM      9  C   UNL     1       2.109   5.454  20.242  0.00  0.00    +0.000 A 
ATOM     10  N   UNL     1       3.284   5.022  19.693  0.00  0.00    +0.000 N 
ATOM     11  C   UNL     1       4.237   5.731  18.888  0.00  0.00    +0.000 C 
ATOM     12  O   UNL     1       3.903   5.662  17.497  0.00  0.00    +0.000 OA
ATOM     13  C   UNL     1       5.043   5.133  16.775  0.00  0.00    +0.000 C 
ATOM     14  H   UNL     1       1.894   1.563  21.978  0.00  0.00    +0.000 HD
ENDROOT
BRANCH   1  15
ATOM     15  O   UNL     1       7.098   6.062  17.675  0.00  0.00    +0.000 OA
BRANCH  15  16
ATOM     16  C   UNL     1       7.955   6.204  18.729  0.00  0.00    +0.000 C 
ATOM     17  O   UNL     1       8.320   5.311  19.458  0.00  0.00    +0.000 OA
BRANCH  16  19
ATOM     18  C   UNL     1       8.014   8.495  17.891  0.00  0.00    +0.000 C 
ATOM     19  C   UNL     1       8.417   7.611  18.821  0.00  0.00    +0.000 C 
BRANCH  18  20
ATOM     20  C   UNL     1       8.381   9.953  17.876  0.00  0.00    +0.000 C 
BRANCH  20  21
ATOM     21  C   UNL     1       9.414  10.298  18.954  0.00  0.00    +0.000 C 
BRANCH  21  22
ATOM     22  C   UNL     1       9.818  11.773  18.890  0.00  0.00    +0.000 C 
BRANCH  22  23
ATOM     23  C   UNL     1      11.093  11.961  18.068  0.00  0.00    +0.000 C 
BRANCH  23  24
ATOM     24  C   UNL     1      10.937  13.107  17.070  0.00  0.00    +0.000 C 
BRANCH  24  26
ATOM     25  C   UNL     1      11.154  15.597  16.858  0.00  0.00    +0.000 C 
ATOM     26  C   UNL     1      10.791  14.448  17.784  0.00  0.00    +0.000 C 
ENDBRANCH  24  26
ENDBRANCH  23  24
ENDBRANCH  22  23
ENDBRANCH  21  22
ENDBRANCH  20  21
ENDBRANCH  18  20
ENDBRANCH  16  19
ENDBRANCH  15  16
ENDBRANCH   1  15
BRANCH  13  27
ATOM     27  C   UNL     1       4.632   3.825  16.083  0.00  0.00    +0.000 C 
BRANCH  27  28
ATOM     28  O   UNL     1       3.475   3.261  16.701  0.00  0.00    +0.000 OA
ATOM     29  H   UNL     1       3.775   2.761  17.481  0.00  0.00    +0.000 HD
ENDBRANCH  27  28
ENDBRANCH  13  27
TORSDOF 11
ENDMDL
MODEL 7
REMARK VINA RESULT:      -6.9      1.333      1.814
REMARK  Name = 
REMARK  12 active torsions:
REMARK  status: ('A' for Active; 'I' for Inactive)
REMARK    1  A    between atoms: C_1  and  C_2
REMARK    2  A    between atoms: C_2  and  C_3
REMARK    3  A    between atoms: C_3  and  C_4
REMARK    4  A    between atoms: C_4  and  C_5
REMARK    5  A    between atoms: C_5  and  C_6
REMARK    6  A    between atoms: C_6  and  C_7
REMARK    7  A    between atoms: C_7  and  C_8
REMARK    8  A    between atoms: C_9  and  C_10
REMARK    9  A    between atoms: C_10  and  O_12
REMARK   10  A    between atoms: O_12  and  C_13
REMARK   11  A    between atoms: C_25  and  C_26
REMARK   12  A    between atoms: C_26  and  O_27
REMARK                            x       y       z     vdW  Elec       q    Type
REMARK                         _______ _______ _______ _____ _____    ______ ____
ROOT
ATOM      1  C   UNL     1       6.328   5.673  17.166  0.00  0.00    +0.000 C 
ATOM      2  C   UNL     1       5.664   5.612  18.522  0.00  0.00    +0.000 C 
ATOM      3  O   UNL     1       5.482   4.261  19.010  0.00  0.00    +0.000 OA
ATOM      4  C   UNL     1       4.241   4.242  19.586  0.00  0.00    +0.000 A 
ATOM      5  N   UNL     1       3.874   3.321  20.420  0.00  0.00    +0.000 NA
ATOM      6  C   UNL     1       2.622   3.480  20.961  0.00  0.00    +0.000 A 
ATOM      7  N   UNL     1       2.216   2.585  21.795  0.00  0.00    +0.000 NA
ATOM      8  C   UNL     1       1.783   4.658  20.617  0.00  0.00    +0.000 A 
ATOM      9  C   UNL     1       2.270   5.526  19.721  0.00  0.00    +0.000 A 
ATOM     10  N   UNL     1       3.506   5.313  19.174  0.00  0.00    +0.000 N 
ATOM     11  C   UNL     1       4.258   6.126  18.262  0.00  0.00    +0.000 C 
ATOM     12  O   UNL     1       3.928   5.830  16.899  0.00  0.00    +0.000 OA
ATOM     13  C   UNL     1       5.148   5.496  16.192  0.00  0.00    +0.000 C 
ATOM     14  H   UNL     1       2.981   1.904  21.860  0.00  0.00    +0.000 HD
ENDROOT
BRANCH   1  15
ATOM     15  O   UNL     1       6.948   6.960  16.907  0.00  0.00    +0.000 OA
BRANCH  15  16
ATOM     16  C   UNL     1       7.759   7.411  17.909  0.00  0.00    +0.000 C 
ATOM     17  O   UNL     1       8.251   6.724  18.774  0.00  0.00    +0.000 OA
BRANCH  16  19
ATOM     18  C   UNL     1       8.890   9.476  18.553  0.00  0.00    +0.000 C 
ATOM     19  C   UNL     1       7.994   8.869  17.754  0.00  0.00    +0.000 C 
BRANCH  18  20
ATOM     20  C   UNL     1       9.246  10.936  18.489  0.00  0.00    +0.000 C 
BRANCH  20  21
ATOM     21  C   UNL     1      10.089  11.376  19.690  0.00  0.00    +0.000 C 
BRANCH  21  22
ATOM     22  C   UNL     1       9.289  11.298  20.993  0.00  0.00    +0.000 C 
BRANCH  22  23
ATOM     23  C   UNL     1       9.579  12.499  21.893  0.00  0.00    +0.000 C 
BRANCH  23  24
ATOM     24  C   UNL     1       9.262  13.810  21.177  0.00  0.00    +0.000 C 
BRANCH  24  26
ATOM     25  C   UNL     1      11.031  15.551  20.819  0.00  0.00    +0.000 C 
ATOM     26  C   UNL     1      10.020  14.979  21.799  0.00  0.00    +0.000 C 
ENDBRANCH  24  26
ENDBRANCH  23  24
ENDBRANCH  22  23
ENDBRANCH  21  22
ENDBRANCH  20  21
ENDBRANCH  18  20
ENDBRANCH  16  19
ENDBRANCH  15  16
ENDBRANCH   1  15
BRANCH  13  27
ATOM     27  C   UNL     1       5.038   4.060  15.657  0.00  0.00    +0.000 C 
BRANCH  27  28
ATOM     28  O   UNL     1       6.042   3.222  16.231  0.00  0.00    +0.000 OA
ATOM     29  H   UNL     1       6.054   2.392  15.722  0.00  0.00    +0.000 HD
ENDBRANCH  27  28
ENDBRANCH  13  27
TORSDOF 11
ENDMDL
MODEL 8
REMARK VINA RESULT:      -6.9      1.979      2.734
REMARK  Name = 
REMARK  12 active torsions:
REMARK  status: ('A' for Active; 'I' for Inactive)
REMARK    1  A    between atoms: C_1  and  C_2
REMARK    2  A    between atoms: C_2  and  C_3
REMARK    3  A    between atoms: C_3  and  C_4
REMARK    4  A    between atoms: C_4  and  C_5
REMARK    5  A    between atoms: C_5  and  C_6
REMARK    6  A    between atoms: C_6  and  C_7
REMARK    7  A    between atoms: C_7  and  C_8
REMARK    8  A    between atoms: C_9  and  C_10
REMARK    9  A    between atoms: C_10  and  O_12
REMARK   10  A    between atoms: O_12  and  C_13
REMARK   11  A    between atoms: C_25  and  C_26
REMARK   12  A    between atoms: C_26  and  O_27
REMARK                            x       y       z     vdW  Elec       q    Type
REMARK                         _______ _______ _______ _____ _____    ______ ____
ROOT
ATOM      1  C   UNL     1       5.703   5.724  17.868  0.00  0.00    +0.000 C 
ATOM      2  C   UNL     1       4.954   5.505  19.163  0.00  0.00    +0.000 C 
ATOM      3  O   UNL     1       4.910   4.116  19.570  0.00  0.00    +0.000 OA
ATOM      4  C   UNL     1       3.643   3.912  20.044  0.00  0.00    +0.000 A 
ATOM      5  N   UNL     1       3.336   2.907  20.801  0.00  0.00    +0.000 NA
ATOM      6  C   UNL     1       2.037   2.880  21.248  0.00  0.00    +0.000 A 
ATOM      7  N   UNL     1       1.688   1.895  22.003  0.00  0.00    +0.000 NA
ATOM      8  C   UNL     1       1.083   3.964  20.895  0.00  0.00    +0.000 A 
ATOM      9  C   UNL     1       1.521   4.935  20.083  0.00  0.00    +0.000 A 
ATOM     10  N   UNL     1       2.810   4.907  19.626  0.00  0.00    +0.000 N 
ATOM     11  C   UNL     1       3.517   5.856  18.816  0.00  0.00    +0.000 C 
ATOM     12  O   UNL     1       3.327   5.601  17.420  0.00  0.00    +0.000 OA
ATOM     13  C   UNL     1       4.629   5.460  16.796  0.00  0.00    +0.000 C 
ATOM     14  H   UNL     1       2.526   1.311  22.096  0.00  0.00    +0.000 HD
ENDROOT
BRANCH   1  15
ATOM     15  O   UNL     1       6.172   7.090  17.722  0.00  0.00    +0.000 OA
BRANCH  15  16
ATOM     16  C   UNL     1       7.470   7.203  17.313  0.00  0.00    +0.000 C 
ATOM     17  O   UNL     1       7.923   6.750  16.287  0.00  0.00    +0.000 OA
BRANCH  16  19
ATOM     18  C   UNL     1       8.481   9.308  18.021  0.00  0.00    +0.000 C 
ATOM     19  C   UNL     1       8.241   8.012  18.290  0.00  0.00    +0.000 C 
BRANCH  18  20
ATOM     20  C   UNL     1       9.223  10.250  18.930  0.00  0.00    +0.000 C 
BRANCH  20  21
ATOM     21  C   UNL     1       9.983  11.326  18.148  0.00  0.00    +0.000 C 
BRANCH  21  22
ATOM     22  C   UNL     1      10.817  12.209  19.079  0.00  0.00    +0.000 C 
BRANCH  22  23
ATOM     23  C   UNL     1      10.081  13.506  19.418  0.00  0.00    +0.000 C 
BRANCH  23  24
ATOM     24  C   UNL     1      10.038  14.443  18.212  0.00  0.00    +0.000 C 
BRANCH  24  26
ATOM     25  C   UNL     1      12.330  15.252  17.597  0.00  0.00    +0.000 C 
ATOM     26  C   UNL     1      11.052  15.574  18.353  0.00  0.00    +0.000 C 
ENDBRANCH  24  26
ENDBRANCH  23  24
ENDBRANCH  22  23
ENDBRANCH  21  22
ENDBRANCH  20  21
ENDBRANCH  18  20
ENDBRANCH  16  19
ENDBRANCH  15  16
ENDBRANCH   1  15
BRANCH  13  27
ATOM     27  C   UNL     1       4.740   4.055  16.187  0.00  0.00    +0.000 C 
BRANCH  27  28
ATOM     28  O   UNL     1       5.925   3.396  16.634  0.00  0.00    +0.000 OA
ATOM     29  H   UNL     1       5.699   2.909  17.446  0.00  0.00    +0.000 HD
ENDBRANCH  27  28
ENDBRANCH  13  27
TORSDOF 11
ENDMDL
MODEL 9
REMARK VINA RESULT:      -6.9      1.300      1.654
REMARK  Name = 
REMARK  12 active torsions:
REMARK  status: ('A' for Active; 'I' for Inactive)
REMARK    1  A    between atoms: C_1  and  C_2
REMARK    2  A    between atoms: C_2  and  C_3
REMARK    3  A    between atoms: C_3  and  C_4
REMARK    4  A    between atoms: C_4  and  C_5
REMARK    5  A    between atoms: C_5  and  C_6
REMARK    6  A    between atoms: C_6  and  C_7
REMARK    7  A    between atoms: C_7  and  C_8
REMARK    8  A    between atoms: C_9  and  C_10
REMARK    9  A    between atoms: C_10  and  O_12
REMARK   10  A    between atoms: O_12  and  C_13
REMARK   11  A    between atoms: C_25  and  C_26
REMARK   12  A    between atoms: C_26  and  O_27
REMARK                            x       y       z     vdW  Elec       q    Type
REMARK                         _______ _______ _______ _____ _____    ______ ____
ROOT
ATOM      1  C   UNL     1       6.749   4.973  16.518  0.00  0.00    +0.000 C 
ATOM      2  C   UNL     1       5.726   4.629  17.576  0.00  0.00    +0.000 C 
ATOM      3  O   UNL     1       5.157   3.307  17.413  0.00  0.00    +0.000 OA
ATOM      4  C   UNL     1       3.824   3.444  17.687  0.00  0.00    +0.000 A 
ATOM      5  N   UNL     1       3.065   2.435  17.978  0.00  0.00    +0.000 NA
ATOM      6  C   UNL     1       1.766   2.746  18.293  0.00  0.00    +0.000 A 
ATOM      7  N   UNL     1       0.975   1.771  18.587  0.00  0.00    +0.000 NA
ATOM      8  C   UNL     1       1.301   4.158  18.322  0.00  0.00    +0.000 A 
ATOM      9  C   UNL     1       2.181   5.107  17.977  0.00  0.00    +0.000 A 
ATOM     10  N   UNL     1       3.456   4.755  17.631  0.00  0.00    +0.000 N 
ATOM     11  C   UNL     1       4.578   5.584  17.297  0.00  0.00    +0.000 C 
ATOM     12  O   UNL     1       4.600   5.902  15.900  0.00  0.00    +0.000 OA
ATOM     13  C   UNL     1       5.885   5.504  15.358  0.00  0.00    +0.000 C 
ATOM     14  H   UNL     1       1.544   0.921  18.503  0.00  0.00    +0.000 HD
ENDROOT
BRANCH   1  15
ATOM     15  O   UNL     1       7.651   6.029  16.939  0.00  0.00    +0.000 OA
BRANCH  15  16
ATOM     16  C   UNL     1       7.899   6.063  18.281  0.00  0.00    +0.000 C 
ATOM     17  O   UNL     1       7.956   5.097  19.007  0.00  0.00    +0.000 OA
BRANCH  16  19
ATOM     18  C   UNL     1       8.133   8.443  17.799  0.00  0.00    +0.000 C 
ATOM     19  C   UNL     1       8.140   7.461  18.718  0.00  0.00    +0.000 C 
BRANCH  18  20
ATOM     20  C   UNL     1       8.336   9.903  18.102  0.00  0.00    +0.000 C 
BRANCH  20  21
ATOM     21  C   UNL     1       9.306  10.120  19.268  0.00  0.00    +0.000 C 
BRANCH  21  22
ATOM     22  C   UNL     1       9.735  11.585  19.373  0.00  0.00    +0.000 C 
BRANCH  22  23
ATOM     23  C   UNL     1      10.467  11.855  20.688  0.00  0.00    +0.000 C 
BRANCH  23  24
ATOM     24  C   UNL     1       9.831  13.023  21.439  0.00  0.00    +0.000 C 
BRANCH  24  26
ATOM     25  C   UNL     1       7.527  12.967  22.427  0.00  0.00    +0.000 C 
ATOM     26  C   UNL     1       8.972  12.533  22.601  0.00  0.00    +0.000 C 
ENDBRANCH  24  26
ENDBRANCH  23  24
ENDBRANCH  22  23
ENDBRANCH  21  22
ENDBRANCH  20  21
ENDBRANCH  18  20
ENDBRANCH  16  19
ENDBRANCH  15  16
ENDBRANCH   1  15
BRANCH  13  27
ATOM     27  C   UNL     1       5.659   4.450  14.264  0.00  0.00    +0.000 C 
BRANCH  27  28
ATOM     28  O   UNL     1       6.237   3.198  14.632  0.00  0.00    +0.000 OA
ATOM     29  H   UNL     1       5.660   2.496  14.283  0.00  0.00    +0.000 HD
ENDBRANCH  27  28
ENDBRANCH  13  27
TORSDOF 11
ENDMDL
