MODEL 1
REMARK VINA RESULT:      -8.1      0.000      0.000
REMARK  Name = 
REMARK  5 active torsions:
REMARK  status: ('A' for Active; 'I' for Inactive)
REMARK    1  A    between atoms: C_1  and  N_2
REMARK    2  A    between atoms: C_6  and  C_7
REMARK    3  A    between atoms: C_11  and  O_12
REMARK    4  A    between atoms: O_12  and  C_13
REMARK    5  A    between atoms: C_13  and  C_14
REMARK                            x       y       z     vdW  Elec       q    Type
REMARK                         _______ _______ _______ _____ _____    ______ ____
ROOT
ATOM      1  C   UNL     1       2.917   4.876  18.719  0.00  0.00    +0.000 A 
ATOM      2  C   UNL     1       2.410   3.600  18.943  0.00  0.00    +0.000 A 
ATOM      3  N   UNL     1       1.431   3.322  19.832  0.00  0.00    +0.000 NA
ATOM      4  C   UNL     1       0.957   4.370  20.546  0.00  0.00    +0.000 A 
ATOM      5  C   UNL     1       1.428   5.674  20.430  0.00  0.00    +0.000 A 
ATOM      6  C   UNL     1       2.413   5.930  19.480  0.00  0.00    +0.000 A 
ENDROOT
BRANCH   1  12
ATOM      7  C   UNL     1       8.138   6.236  18.847  0.00  0.00    +0.000 C 
ATOM      8  N   UNL     1       7.019   5.875  17.993  0.00  0.00    +0.000 NA
ATOM      9  C   UNL     1       6.571   6.988  17.133  0.00  0.00    +0.000 C 
ATOM     10  C   UNL     1       5.325   6.597  16.292  0.00  0.00    +0.000 C 
ATOM     11  C   UNL     1       4.162   6.318  17.215  0.00  0.00    +0.000 C 
ATOM     12  C   UNL     1       3.962   5.088  17.719  0.00  0.00    +0.000 C 
ATOM     13  C   UNL     1       4.844   3.899  17.392  0.00  0.00    +0.000 C 
ATOM     14  C   UNL     1       6.022   4.221  16.435  0.00  0.00    +0.000 C 
ATOM     15  C   UNL     1       5.618   5.337  15.465  0.00  0.00    +0.000 C 
ATOM     16  C   UNL     1       7.283   4.668  17.207  0.00  0.00    +0.000 C 
ENDBRANCH   1  12
BRANCH   5  17
ATOM     17  O   UNL     1       1.007   6.744  21.163  0.00  0.00    +0.000 OA
BRANCH  17  18
ATOM     18  C   UNL     1       1.564   8.001  20.775  0.00  0.00    +0.000 C 
BRANCH  18  19
ATOM     19  C   UNL     1       0.682   9.086  21.330  0.00  0.00    +0.000 A 
ATOM     20  C   UNL     1       0.280   9.069  22.671  0.00  0.00    +0.000 A 
ATOM     21  C   UNL     1      -0.557  10.070  23.165  0.00  0.00    +0.000 A 
ATOM     22  C   UNL     1      -1.003  11.088  22.325  0.00  0.00    +0.000 A 
ATOM     23  C   UNL     1      -0.615  11.107  20.983  0.00  0.00    +0.000 A 
ATOM     24  C   UNL     1       0.220  10.109  20.488  0.00  0.00    +0.000 A 
ENDBRANCH  18  19
ENDBRANCH  17  18
ENDBRANCH   5  17
TORSDOF 4
ENDMDL
MODEL 2
REMARK VINA RESULT:      -8.1      0.220      1.004
REMARK  Name = 
REMARK  5 active torsions:
REMARK  status: ('A' for Active; 'I' for Inactive)
REMARK    1  A    between atoms: C_1  and  N_2
REMARK    2  A    between atoms: C_6  and  C_7
REMARK    3  A    between atoms: C_11  and  O_12
REMARK    4  A    between atoms: O_12  and  C_13
REMARK    5  A    between atoms: C_13  and  C_14
REMARK                            x       y       z     vdW  Elec       q    Type
REMARK                         _______ _______ _______ _____ _____    ______ ____
ROOT
ATOM      1  C   UNL     1       2.862   4.773  18.559  0.00  0.00    +0.000 A 
ATOM      2  C   UNL     1       2.313   3.501  18.698  0.00  0.00    +0.000 A 
ATOM      3  N   UNL     1       1.321   3.198  19.563  0.00  0.00    +0.000 NA
ATOM      4  C   UNL     1       0.877   4.212  20.343  0.00  0.00    +0.000 A 
ATOM      5  C   UNL     1       1.390   5.504  20.315  0.00  0.00    +0.000 A 
ATOM      6  C   UNL     1       2.387   5.790  19.387  0.00  0.00    +0.000 A 
ENDROOT
BRANCH   1  12
ATOM      7  C   UNL     1       8.068   6.175  18.788  0.00  0.00    +0.000 C 
ATOM      8  N   UNL     1       6.964   5.823  17.912  0.00  0.00    +0.000 NA
ATOM      9  C   UNL     1       6.517   6.951  17.070  0.00  0.00    +0.000 C 
ATOM     10  C   UNL     1       5.286   6.568  16.204  0.00  0.00    +0.000 C 
ATOM     11  C   UNL     1       4.114   6.258  17.105  0.00  0.00    +0.000 C 
ATOM     12  C   UNL     1       3.917   5.016  17.579  0.00  0.00    +0.000 C 
ATOM     13  C   UNL     1       4.815   3.842  17.237  0.00  0.00    +0.000 C 
ATOM     14  C   UNL     1       6.003   4.195  16.304  0.00  0.00    +0.000 C 
ATOM     15  C   UNL     1       5.601   5.329  15.353  0.00  0.00    +0.000 C 
ATOM     16  C   UNL     1       7.249   4.636  17.102  0.00  0.00    +0.000 C 
ENDBRANCH   1  12
BRANCH   5  17
ATOM     17  O   UNL     1       1.000   6.537  21.115  0.00  0.00    +0.000 OA
BRANCH  17  18
ATOM     18  C   UNL     1       1.690   7.769  20.896  0.00  0.00    +0.000 C 
BRANCH  18  19
ATOM     19  C   UNL     1       0.773   8.889  21.300  0.00  0.00    +0.000 A 
ATOM     20  C   UNL     1       0.241   9.763  20.344  0.00  0.00    +0.000 A 
ATOM     21  C   UNL     1      -0.591  10.812  20.738  0.00  0.00    +0.000 A 
ATOM     22  C   UNL     1      -0.891  11.000  22.085  0.00  0.00    +0.000 A 
ATOM     23  C   UNL     1      -0.357  10.139  23.047  0.00  0.00    +0.000 A 
ATOM     24  C   UNL     1       0.474   9.093  22.656  0.00  0.00    +0.000 A 
ENDBRANCH  18  19
ENDBRANCH  17  18
ENDBRANCH   5  17
TORSDOF 4
ENDMDL
MODEL 3
REMARK VINA RESULT:      -8.0      3.913      8.759
REMARK  Name = 
REMARK  5 active torsions:
REMARK  status: ('A' for Active; 'I' for Inactive)
REMARK    1  A    between atoms: C_1  and  N_2
REMARK    2  A    between atoms: C_6  and  C_7
REMARK    3  A    between atoms: C_11  and  O_12
REMARK    4  A    between atoms: O_12  and  C_13
REMARK    5  A    between atoms: C_13  and  C_14
REMARK                            x       y       z     vdW  Elec       q    Type
REMARK                         _______ _______ _______ _____ _____    ______ ____
ROOT
ATOM      1  C   UNL     1       5.151   4.264  17.590  0.00  0.00    +0.000 A 
ATOM      2  C   UNL     1       6.036   4.446  18.649  0.00  0.00    +0.000 A 
ATOM      3  N   UNL     1       7.355   4.692  18.496  0.00  0.00    +0.000 NA
ATOM      4  C   UNL     1       7.813   4.733  17.222  0.00  0.00    +0.000 A 
ATOM      5  C   UNL     1       7.020   4.518  16.099  0.00  0.00    +0.000 A 
ATOM      6  C   UNL     1       5.659   4.301  16.292  0.00  0.00    +0.000 A 
ENDROOT
BRANCH   1  12
ATOM      7  C   UNL     1       2.222   2.808  21.882  0.00  0.00    +0.000 C 
ATOM      8  N   UNL     1       2.178   3.184  20.479  0.00  0.00    +0.000 NA
ATOM      9  C   UNL     1       1.762   2.073  19.600  0.00  0.00    +0.000 C 
ATOM     10  C   UNL     1       1.804   2.482  18.102  0.00  0.00    +0.000 C 
ATOM     11  C   UNL     1       3.228   2.789  17.703  0.00  0.00    +0.000 C 
ATOM     12  C   UNL     1       3.733   4.026  17.849  0.00  0.00    +0.000 C 
ATOM     13  C   UNL     1       2.931   5.195  18.386  0.00  0.00    +0.000 C 
ATOM     14  C   UNL     1       1.472   4.845  18.777  0.00  0.00    +0.000 C 
ATOM     15  C   UNL     1       0.940   3.730  17.869  0.00  0.00    +0.000 C 
ATOM     16  C   UNL     1       1.366   4.380  20.245  0.00  0.00    +0.000 C 
ENDBRANCH   1  12
BRANCH   5  17
ATOM     17  O   UNL     1       7.454   4.506  14.806  0.00  0.00    +0.000 OA
BRANCH  17  18
ATOM     18  C   UNL     1       6.503   4.968  13.844  0.00  0.00    +0.000 C 
BRANCH  18  19
ATOM     19  C   UNL     1       6.321   3.883  12.819  0.00  0.00    +0.000 A 
ATOM     20  C   UNL     1       5.042   3.430  12.472  0.00  0.00    +0.000 A 
ATOM     21  C   UNL     1       4.891   2.407  11.536  0.00  0.00    +0.000 A 
ATOM     22  C   UNL     1       6.011   1.825  10.946  0.00  0.00    +0.000 A 
ATOM     23  C   UNL     1       7.291   2.264  11.294  0.00  0.00    +0.000 A 
ATOM     24  C   UNL     1       7.444   3.284  12.228  0.00  0.00    +0.000 A 
ENDBRANCH  18  19
ENDBRANCH  17  18
ENDBRANCH   5  17
TORSDOF 4
ENDMDL
MODEL 4
REMARK VINA RESULT:      -8.0      2.711      3.635
REMARK  Name = 
REMARK  5 active torsions:
REMARK  status: ('A' for Active; 'I' for Inactive)
REMARK    1  A    between atoms: C_1  and  N_2
REMARK    2  A    between atoms: C_6  and  C_7
REMARK    3  A    between atoms: C_11  and  O_12
REMARK    4  A    between atoms: O_12  and  C_13
REMARK    5  A    between atoms: C_13  and  C_14
REMARK                            x       y       z     vdW  Elec       q    Type
REMARK                         _______ _______ _______ _____ _____    ______ ____
ROOT
ATOM      1  C   UNL     1       2.566   7.460  18.724  0.00  0.00    +0.000 A 
ATOM      2  C   UNL     1       2.216   7.102  20.023  0.00  0.00    +0.000 A 
ATOM      3  N   UNL     1       1.373   7.814  20.800  0.00  0.00    +0.000 NA
ATOM      4  C   UNL     1       0.877   8.952  20.260  0.00  0.00    +0.000 A 
ATOM      5  C   UNL     1       1.200   9.421  18.991  0.00  0.00    +0.000 A 
ATOM      6  C   UNL     1       2.045   8.644  18.204  0.00  0.00    +0.000 A 
ENDROOT
BRANCH   1  12
ATOM      7  C   UNL     1       7.695   5.853  19.205  0.00  0.00    +0.000 C 
ATOM      8  N   UNL     1       6.485   5.761  18.406  0.00  0.00    +0.000 NA
ATOM      9  C   UNL     1       6.625   6.391  17.078  0.00  0.00    +0.000 C 
ATOM     10  C   UNL     1       5.293   6.347  16.281  0.00  0.00    +0.000 C 
ATOM     11  C   UNL     1       4.248   7.168  16.999  0.00  0.00    +0.000 C 
ATOM     12  C   UNL     1       3.468   6.615  17.945  0.00  0.00    +0.000 C 
ATOM     13  C   UNL     1       3.548   5.154  18.342  0.00  0.00    +0.000 C 
ATOM     14  C   UNL     1       4.626   4.341  17.578  0.00  0.00    +0.000 C 
ATOM     15  C   UNL     1       4.794   4.900  16.160  0.00  0.00    +0.000 C 
ATOM     16  C   UNL     1       5.994   4.386  18.293  0.00  0.00    +0.000 C 
ENDBRANCH   1  12
BRANCH   5  17
ATOM     17  O   UNL     1       0.757  10.583  18.432  0.00  0.00    +0.000 OA
BRANCH  17  18
ATOM     18  C   UNL     1      -0.318  11.220  19.126  0.00  0.00    +0.000 C 
BRANCH  18  19
ATOM     19  C   UNL     1      -1.578  10.980  18.342  0.00  0.00    +0.000 A 
ATOM     20  C   UNL     1      -1.593  10.090  17.260  0.00  0.00    +0.000 A 
ATOM     21  C   UNL     1      -2.764   9.896  16.528  0.00  0.00    +0.000 A 
ATOM     22  C   UNL     1      -3.924  10.591  16.864  0.00  0.00    +0.000 A 
ATOM     23  C   UNL     1      -3.916  11.487  17.936  0.00  0.00    +0.000 A 
ATOM     24  C   UNL     1      -2.748  11.683  18.667  0.00  0.00    +0.000 A 
ENDBRANCH  18  19
ENDBRANCH  17  18
ENDBRANCH   5  17
TORSDOF 4
ENDMDL
MODEL 5
REMARK VINA RESULT:      -7.9      3.483      7.826
REMARK  Name = 
REMARK  5 active torsions:
REMARK  status: ('A' for Active; 'I' for Inactive)
REMARK    1  A    between atoms: C_1  and  N_2
REMARK    2  A    between atoms: C_6  and  C_7
REMARK    3  A    between atoms: C_11  and  O_12
REMARK    4  A    between atoms: O_12  and  C_13
REMARK    5  A    between atoms: C_13  and  C_14
REMARK                            x       y       z     vdW  Elec       q    Type
REMARK                         _______ _______ _______ _____ _____    ______ ____
ROOT
ATOM      1  C   UNL     1       2.947   5.934  18.110  0.00  0.00    +0.000 A 
ATOM      2  C   UNL     1       2.441   7.211  18.335  0.00  0.00    +0.000 A 
ATOM      3  N   UNL     1       2.957   8.334  17.790  0.00  0.00    +0.000 NA
ATOM      4  C   UNL     1       4.046   8.171  17.002  0.00  0.00    +0.000 A 
ATOM      5  C   UNL     1       4.655   6.945  16.752  0.00  0.00    +0.000 A 
ATOM      6  C   UNL     1       4.076   5.805  17.302  0.00  0.00    +0.000 A 
ENDROOT
BRANCH   1  12
ATOM      7  C   UNL     1       4.666   1.595  20.819  0.00  0.00    +0.000 C 
ATOM      8  N   UNL     1       3.502   2.301  20.311  0.00  0.00    +0.000 NA
ATOM      9  C   UNL     1       2.813   1.569  19.231  0.00  0.00    +0.000 C 
ATOM     10  C   UNL     1       1.623   2.385  18.654  0.00  0.00    +0.000 C 
ATOM     11  C   UNL     1       2.144   3.646  18.007  0.00  0.00    +0.000 C 
ATOM     12  C   UNL     1       2.309   4.771  18.724  0.00  0.00    +0.000 C 
ATOM     13  C   UNL     1       1.970   4.878  20.198  0.00  0.00    +0.000 C 
ATOM     14  C   UNL     1       1.431   3.566  20.827  0.00  0.00    +0.000 C 
ATOM     15  C   UNL     1       0.648   2.767  19.778  0.00  0.00    +0.000 C 
ATOM     16  C   UNL     1       2.570   2.681  21.375  0.00  0.00    +0.000 C 
ENDBRANCH   1  12
BRANCH   5  17
ATOM     17  O   UNL     1       5.777   6.748  16.003  0.00  0.00    +0.000 OA
BRANCH  17  18
ATOM     18  C   UNL     1       6.345   5.439  16.094  0.00  0.00    +0.000 C 
BRANCH  18  19
ATOM     19  C   UNL     1       6.519   4.916  14.695  0.00  0.00    +0.000 A 
ATOM     20  C   UNL     1       7.572   5.362  13.887  0.00  0.00    +0.000 A 
ATOM     21  C   UNL     1       7.708   4.884  12.583  0.00  0.00    +0.000 A 
ATOM     22  C   UNL     1       6.792   3.965  12.076  0.00  0.00    +0.000 A 
ATOM     23  C   UNL     1       5.733   3.521  12.871  0.00  0.00    +0.000 A 
ATOM     24  C   UNL     1       5.596   3.998  14.172  0.00  0.00    +0.000 A 
ENDBRANCH  18  19
ENDBRANCH  17  18
ENDBRANCH   5  17
TORSDOF 4
ENDMDL
MODEL 6
REMARK VINA RESULT:      -7.9      2.890      3.766
REMARK  Name = 
REMARK  5 active torsions:
REMARK  status: ('A' for Active; 'I' for Inactive)
REMARK    1  A    between atoms: C_1  and  N_2
REMARK    2  A    between atoms: C_6  and  C_7
REMARK    3  A    between atoms: C_11  and  O_12
REMARK    4  A    between atoms: O_12  and  C_13
REMARK    5  A    between atoms: C_13  and  C_14
REMARK                            x       y       z     vdW  Elec       q    Type
REMARK                         _______ _______ _______ _____ _____    ______ ____
ROOT
ATOM      1  C   UNL     1       2.550   7.458  18.686  0.00  0.00    +0.000 A 
ATOM      2  C   UNL     1       2.353   7.181  20.036  0.00  0.00    +0.000 A 
ATOM      3  N   UNL     1       1.512   7.874  20.833  0.00  0.00    +0.000 NA
ATOM      4  C   UNL     1       0.858   8.910  20.257  0.00  0.00    +0.000 A 
ATOM      5  C   UNL     1       1.021   9.298  18.931  0.00  0.00    +0.000 A 
ATOM      6  C   UNL     1       1.868   8.540  18.129  0.00  0.00    +0.000 A 
ENDROOT
BRANCH   1  12
ATOM      7  C   UNL     1       7.634   5.735  19.240  0.00  0.00    +0.000 C 
ATOM      8  N   UNL     1       6.449   5.706  18.400  0.00  0.00    +0.000 NA
ATOM      9  C   UNL     1       6.641   6.402  17.112  0.00  0.00    +0.000 C 
ATOM     10  C   UNL     1       5.334   6.425  16.273  0.00  0.00    +0.000 C 
ATOM     11  C   UNL     1       4.281   7.225  17.001  0.00  0.00    +0.000 C 
ATOM     12  C   UNL     1       3.463   6.639  17.892  0.00  0.00    +0.000 C 
ATOM     13  C   UNL     1       3.505   5.158  18.214  0.00  0.00    +0.000 C 
ATOM     14  C   UNL     1       4.593   4.366  17.441  0.00  0.00    +0.000 C 
ATOM     15  C   UNL     1       4.815   4.995  16.061  0.00  0.00    +0.000 C 
ATOM     16  C   UNL     1       5.938   4.348  18.199  0.00  0.00    +0.000 C 
ENDBRANCH   1  12
BRANCH   5  17
ATOM     17  O   UNL     1       0.415  10.362  18.329  0.00  0.00    +0.000 OA
BRANCH  17  18
ATOM     18  C   UNL     1      -0.727  10.877  19.016  0.00  0.00    +0.000 C 
BRANCH  18  19
ATOM     19  C   UNL     1      -1.889  10.848  18.062  0.00  0.00    +0.000 A 
ATOM     20  C   UNL     1      -3.045  11.598  18.315  0.00  0.00    +0.000 A 
ATOM     21  C   UNL     1      -4.124  11.542  17.433  0.00  0.00    +0.000 A 
ATOM     22  C   UNL     1      -4.061  10.736  16.299  0.00  0.00    +0.000 A 
ATOM     23  C   UNL     1      -2.916   9.977  16.043  0.00  0.00    +0.000 A 
ATOM     24  C   UNL     1      -1.838  10.030  16.923  0.00  0.00    +0.000 A 
ENDBRANCH  18  19
ENDBRANCH  17  18
ENDBRANCH   5  17
TORSDOF 4
ENDMDL
MODEL 7
REMARK VINA RESULT:      -7.9      2.802      4.119
REMARK  Name = 
REMARK  5 active torsions:
REMARK  status: ('A' for Active; 'I' for Inactive)
REMARK    1  A    between atoms: C_1  and  N_2
REMARK    2  A    between atoms: C_6  and  C_7
REMARK    3  A    between atoms: C_11  and  O_12
REMARK    4  A    between atoms: O_12  and  C_13
REMARK    5  A    between atoms: C_13  and  C_14
REMARK                            x       y       z     vdW  Elec       q    Type
REMARK                         _______ _______ _______ _____ _____    ______ ____
ROOT
ATOM      1  C   UNL     1       2.299   7.134  18.950  0.00  0.00    +0.000 A 
ATOM      2  C   UNL     1       2.072   7.084  20.323  0.00  0.00    +0.000 A 
ATOM      3  N   UNL     1       1.443   8.054  21.019  0.00  0.00    +0.000 NA
ATOM      4  C   UNL     1       1.045   9.138  20.312  0.00  0.00    +0.000 A 
ATOM      5  C   UNL     1       1.266   9.305  18.948  0.00  0.00    +0.000 A 
ATOM      6  C   UNL     1       1.886   8.270  18.255  0.00  0.00    +0.000 A 
ENDROOT
BRANCH   1  12
ATOM      7  C   UNL     1       4.310   2.361  20.465  0.00  0.00    +0.000 C 
ATOM      8  N   UNL     1       4.074   3.256  19.345  0.00  0.00    +0.000 NA
ATOM      9  C   UNL     1       5.323   3.794  18.769  0.00  0.00    +0.000 C 
ATOM     10  C   UNL     1       5.035   4.808  17.627  0.00  0.00    +0.000 C 
ATOM     11  C   UNL     1       4.310   6.008  18.190  0.00  0.00    +0.000 C 
ATOM     12  C   UNL     1       2.969   6.026  18.273  0.00  0.00    +0.000 C 
ATOM     13  C   UNL     1       2.089   4.886  17.797  0.00  0.00    +0.000 C 
ATOM     14  C   UNL     1       2.867   3.676  17.218  0.00  0.00    +0.000 C 
ATOM     15  C   UNL     1       4.159   4.158  16.547  0.00  0.00    +0.000 C 
ATOM     16  C   UNL     1       3.230   2.650  18.312  0.00  0.00    +0.000 C 
ENDBRANCH   1  12
BRANCH   5  17
ATOM     17  O   UNL     1       0.921  10.400  18.212  0.00  0.00    +0.000 OA
BRANCH  17  18
ATOM     18  C   UNL     1       0.012  11.299  18.851  0.00  0.00    +0.000 C 
BRANCH  18  19
ATOM     19  C   UNL     1      -1.363  11.029  18.305  0.00  0.00    +0.000 A 
ATOM     20  C   UNL     1      -1.562  10.070  17.303  0.00  0.00    +0.000 A 
ATOM     21  C   UNL     1      -2.840   9.847  16.791  0.00  0.00    +0.000 A 
ATOM     22  C   UNL     1      -3.924  10.581  17.267  0.00  0.00    +0.000 A 
ATOM     23  C   UNL     1      -3.733  11.547  18.258  0.00  0.00    +0.000 A 
ATOM     24  C   UNL     1      -2.458  11.771  18.771  0.00  0.00    +0.000 A 
ENDBRANCH  18  19
ENDBRANCH  17  18
ENDBRANCH   5  17
TORSDOF 4
ENDMDL
MODEL 8
REMARK VINA RESULT:      -7.8      3.911      8.850
REMARK  Name = 
REMARK  5 active torsions:
REMARK  status: ('A' for Active; 'I' for Inactive)
REMARK    1  A    between atoms: C_1  and  N_2
REMARK    2  A    between atoms: C_6  and  C_7
REMARK    3  A    between atoms: C_11  and  O_12
REMARK    4  A    between atoms: O_12  and  C_13
REMARK    5  A    between atoms: C_13  and  C_14
REMARK                            x       y       z     vdW  Elec       q    Type
REMARK                         _______ _______ _______ _____ _____    ______ ____
ROOT
ATOM      1  C   UNL     1       5.088   4.281  17.444  0.00  0.00    +0.000 A 
ATOM      2  C   UNL     1       6.036   4.338  18.462  0.00  0.00    +0.000 A 
ATOM      3  N   UNL     1       7.350   4.570  18.256  0.00  0.00    +0.000 NA
ATOM      4  C   UNL     1       7.736   4.726  16.968  0.00  0.00    +0.000 A 
ATOM      5  C   UNL     1       6.877   4.641  15.878  0.00  0.00    +0.000 A 
ATOM      6  C   UNL     1       5.523   4.436  16.128  0.00  0.00    +0.000 A 
ENDROOT
BRANCH   1  12
ATOM      7  C   UNL     1       2.340   2.750  21.829  0.00  0.00    +0.000 C 
ATOM      8  N   UNL     1       2.237   3.159  20.438  0.00  0.00    +0.000 NA
ATOM      9  C   UNL     1       1.772   2.072  19.554  0.00  0.00    +0.000 C 
ATOM     10  C   UNL     1       1.750   2.516  18.065  0.00  0.00    +0.000 C 
ATOM     11  C   UNL     1       3.157   2.820  17.609  0.00  0.00    +0.000 C 
ATOM     12  C   UNL     1       3.680   4.049  17.761  0.00  0.00    +0.000 C 
ATOM     13  C   UNL     1       2.915   5.212  18.359  0.00  0.00    +0.000 C 
ATOM     14  C   UNL     1       1.471   4.865  18.808  0.00  0.00    +0.000 C 
ATOM     15  C   UNL     1       0.889   3.776  17.899  0.00  0.00    +0.000 C 
ATOM     16  C   UNL     1       1.427   4.367  20.269  0.00  0.00    +0.000 C 
ENDBRANCH   1  12
BRANCH   5  17
ATOM     17  O   UNL     1       7.236   4.747  14.566  0.00  0.00    +0.000 OA
BRANCH  17  18
ATOM     18  C   UNL     1       6.149   4.879  13.648  0.00  0.00    +0.000 C 
BRANCH  18  19
ATOM     19  C   UNL     1       6.221   3.730  12.681  0.00  0.00    +0.000 A 
ATOM     20  C   UNL     1       7.452   3.295  12.174  0.00  0.00    +0.000 A 
ATOM     21  C   UNL     1       7.500   2.242  11.259  0.00  0.00    +0.000 A 
ATOM     22  C   UNL     1       6.324   1.623  10.840  0.00  0.00    +0.000 A 
ATOM     23  C   UNL     1       5.092   2.058  11.334  0.00  0.00    +0.000 A 
ATOM     24  C   UNL     1       5.041   3.108  12.246  0.00  0.00    +0.000 A 
ENDBRANCH  18  19
ENDBRANCH  17  18
ENDBRANCH   5  17
TORSDOF 4
ENDMDL
MODEL 9
REMARK VINA RESULT:      -7.7      3.343      8.892
REMARK  Name = 
REMARK  5 active torsions:
REMARK  status: ('A' for Active; 'I' for Inactive)
REMARK    1  A    between atoms: C_1  and  N_2
REMARK    2  A    between atoms: C_6  and  C_7
REMARK    3  A    between atoms: C_11  and  O_12
REMARK    4  A    between atoms: O_12  and  C_13
REMARK    5  A    between atoms: C_13  and  C_14
REMARK                            x       y       z     vdW  Elec       q    Type
REMARK                         _______ _______ _______ _____ _____    ______ ____
ROOT
ATOM      1  C   UNL     1       5.304   4.158  17.313  0.00  0.00    +0.000 A 
ATOM      2  C   UNL     1       6.504   4.420  17.969  0.00  0.00    +0.000 A 
ATOM      3  N   UNL     1       7.568   5.013  17.386  0.00  0.00    +0.000 NA
ATOM      4  C   UNL     1       7.432   5.336  16.079  0.00  0.00    +0.000 A 
ATOM      5  C   UNL     1       6.294   5.075  15.323  0.00  0.00    +0.000 A 
ATOM      6  C   UNL     1       5.204   4.494  15.964  0.00  0.00    +0.000 A 
ENDROOT
BRANCH   1  12
ATOM      7  C   UNL     1       1.537   5.847  20.788  0.00  0.00    +0.000 C 
ATOM      8  N   UNL     1       2.049   4.711  20.042  0.00  0.00    +0.000 NA
ATOM      9  C   UNL     1       2.631   3.669  20.911  0.00  0.00    +0.000 C 
ATOM     10  C   UNL     1       3.241   2.506  20.081  0.00  0.00    +0.000 C 
ATOM     11  C   UNL     1       4.397   3.026  19.259  0.00  0.00    +0.000 C 
ATOM     12  C   UNL     1       4.195   3.532  18.030  0.00  0.00    +0.000 C 
ATOM     13  C   UNL     1       2.832   3.598  17.369  0.00  0.00    +0.000 C 
ATOM     14  C   UNL     1       1.672   3.048  18.239  0.00  0.00    +0.000 C 
ATOM     15  C   UNL     1       2.183   1.916  19.138  0.00  0.00    +0.000 C 
ATOM     16  C   UNL     1       1.052   4.146  19.130  0.00  0.00    +0.000 C 
ENDBRANCH   1  12
BRANCH   5  17
ATOM     17  O   UNL     1       6.137   5.344  13.995  0.00  0.00    +0.000 OA
BRANCH  17  18
ATOM     18  C   UNL     1       7.197   4.884  13.154  0.00  0.00    +0.000 C 
BRANCH  18  19
ATOM     19  C   UNL     1       6.694   3.688  12.393  0.00  0.00    +0.000 A 
ATOM     20  C   UNL     1       7.588   2.778  11.814  0.00  0.00    +0.000 A 
ATOM     21  C   UNL     1       7.106   1.686  11.091  0.00  0.00    +0.000 A 
ATOM     22  C   UNL     1       5.735   1.498  10.937  0.00  0.00    +0.000 A 
ATOM     23  C   UNL     1       4.836   2.406  11.503  0.00  0.00    +0.000 A 
ATOM     24  C   UNL     1       5.315   3.497  12.223  0.00  0.00    +0.000 A 
ENDBRANCH  18  19
ENDBRANCH  17  18
ENDBRANCH   5  17
TORSDOF 4
ENDMDL
