MODEL 1
REMARK VINA RESULT:      -6.8      0.000      0.000
REMARK  Name = 
REMARK  17 active torsions:
REMARK  status: ('A' for Active; 'I' for Inactive)
REMARK    1  A    between atoms: C_2  and  O_3
REMARK    2  A    between atoms: C_2  and  C_4
REMARK    3  A    between atoms: C_4  and  O_5
REMARK    4  A    between atoms: C_4  and  C_6
REMARK    5  A    between atoms: C_6  and  O_7
REMARK    6  A    between atoms: C_6  and  C_8
REMARK    7  A    between atoms: C_8  and  O_9
REMARK    8  A    between atoms: C_8  and  C_21
REMARK    9  A    between atoms: O_9  and  C_10
REMARK   10  A    between atoms: C_12  and  C_13
REMARK   11  A    between atoms: C_13  and  O_14
REMARK   12  A    between atoms: C_15  and  O_16
REMARK   13  A    between atoms: C_17  and  O_18
REMARK   14  A    between atoms: C_19  and  O_20
REMARK   15  A    between atoms: C_21  and  O_22
REMARK   16  A    between atoms: C_21  and  C_23
REMARK   17  A    between atoms: C_23  and  O_24
REMARK                            x       y       z     vdW  Elec       q    Type
REMARK                         _______ _______ _______ _____ _____    ______ ____
ROOT
ATOM      1  C   UNL     1       5.700   6.020  17.721  0.00  0.00    +0.000 C 
ENDROOT
BRANCH   1   2
ATOM      2  O   UNL     1       5.270   5.011  18.672  0.00  0.00    +0.000 OA
BRANCH   2   3
ATOM      3  C   UNL     1       3.881   4.658  18.717  0.00  0.00    +0.000 C 
ATOM      4  O   UNL     1       3.305   5.358  19.839  0.00  0.00    +0.000 OA
ATOM      5  C   UNL     1       1.874   5.230  19.881  0.00  0.00    +0.000 C 
ATOM      6  C   UNL     1       1.530   3.764  20.182  0.00  0.00    +0.000 C 
ATOM      7  C   UNL     1       2.100   2.887  19.064  0.00  0.00    +0.000 C 
ATOM      8  C   UNL     1       3.606   3.135  18.834  0.00  0.00    +0.000 C 
BRANCH   8   9
ATOM      9  O   UNL     1       4.033   2.435  17.645  0.00  0.00    +0.000 OA
ATOM     10  H   UNL     1       4.319   1.542  17.896  0.00  0.00    +0.000 HD
ENDBRANCH   8   9
BRANCH   7  11
ATOM     11  O   UNL     1       1.872   1.505  19.368  0.00  0.00    +0.000 OA
ATOM     12  H   UNL     1       2.403   1.000  18.719  0.00  0.00    +0.000 HD
ENDBRANCH   7  11
BRANCH   6  13
ATOM     13  O   UNL     1       2.120   3.325  21.421  0.00  0.00    +0.000 OA
ATOM     14  H   UNL     1       2.708   2.583  21.214  0.00  0.00    +0.000 HD
ENDBRANCH   6  13
BRANCH   5  15
ATOM     15  C   UNL     1       1.309   6.191  20.931  0.00  0.00    +0.000 C 
BRANCH  15  16
ATOM     16  O   UNL     1       2.013   7.429  20.883  0.00  0.00    +0.000 OA
ATOM     17  H   UNL     1       2.082   7.680  19.945  0.00  0.00    +0.000 HD
ENDBRANCH  15  16
ENDBRANCH   5  15
ENDBRANCH   2   3
ENDBRANCH   1   2
BRANCH   1  18
ATOM     18  C   UNL     1       5.463   5.450  16.280  0.00  0.00    +0.000 C 
BRANCH  18  19
ATOM     19  O   UNL     1       5.448   6.599  15.378  0.00  0.00    +0.000 OA
ATOM     20  H   UNL     1       5.607   6.294  14.467  0.00  0.00    +0.000 HD
ENDBRANCH  18  19
BRANCH  18  21
ATOM     21  C   UNL     1       6.441   4.409  15.672  0.00  0.00    +0.000 C 
BRANCH  21  22
ATOM     22  O   UNL     1       5.993   3.058  15.823  0.00  0.00    +0.000 OA
ATOM     23  H   UNL     1       5.053   3.100  16.090  0.00  0.00    +0.000 HD
ENDBRANCH  21  22
BRANCH  21  25
ATOM     24  O   UNL     1       7.785   5.497  13.910  0.00  0.00    +0.000 OA
ATOM     25  C   UNL     1       7.005   4.638  14.268  0.00  0.00    +0.000 C 
BRANCH  25  26
ATOM     26  O   UNL     1       6.568   3.664  13.405  0.00  0.00    +0.000 OA
ATOM     27  H   UNL     1       6.801   2.775  13.756  0.00  0.00    +0.000 HD
ENDBRANCH  25  26
ENDBRANCH  21  25
ENDBRANCH  18  21
ENDBRANCH   1  18
BRANCH   1  28
ATOM     28  C   UNL     1       7.151   6.464  17.990  0.00  0.00    +0.000 C 
BRANCH  28  29
ATOM     29  O   UNL     1       7.753   6.869  16.757  0.00  0.00    +0.000 OA
ATOM     30  H   UNL     1       7.369   6.319  16.052  0.00  0.00    +0.000 HD
ENDBRANCH  28  29
BRANCH  28  31
ATOM     31  C   UNL     1       7.980   5.407  18.749  0.00  0.00    +0.000 C 
BRANCH  31  32
ATOM     32  O   UNL     1       7.769   5.573  20.157  0.00  0.00    +0.000 OA
ATOM     33  H   UNL     1       8.007   4.733  20.585  0.00  0.00    +0.000 HD
ENDBRANCH  31  32
ENDBRANCH  28  31
ENDBRANCH   1  28
TORSDOF 17
ENDMDL
MODEL 2
REMARK VINA RESULT:      -6.5      1.010      1.605
REMARK  Name = 
REMARK  17 active torsions:
REMARK  status: ('A' for Active; 'I' for Inactive)
REMARK    1  A    between atoms: C_2  and  O_3
REMARK    2  A    between atoms: C_2  and  C_4
REMARK    3  A    between atoms: C_4  and  O_5
REMARK    4  A    between atoms: C_4  and  C_6
REMARK    5  A    between atoms: C_6  and  O_7
REMARK    6  A    between atoms: C_6  and  C_8
REMARK    7  A    between atoms: C_8  and  O_9
REMARK    8  A    between atoms: C_8  and  C_21
REMARK    9  A    between atoms: O_9  and  C_10
REMARK   10  A    between atoms: C_12  and  C_13
REMARK   11  A    between atoms: C_13  and  O_14
REMARK   12  A    between atoms: C_15  and  O_16
REMARK   13  A    between atoms: C_17  and  O_18
REMARK   14  A    between atoms: C_19  and  O_20
REMARK   15  A    between atoms: C_21  and  O_22
REMARK   16  A    between atoms: C_21  and  C_23
REMARK   17  A    between atoms: C_23  and  O_24
REMARK                            x       y       z     vdW  Elec       q    Type
REMARK                         _______ _______ _______ _____ _____    ______ ____
ROOT
ATOM      1  C   UNL     1       6.016   5.193  16.889  0.00  0.00    +0.000 C 
ENDROOT
BRANCH   1   2
ATOM      2  O   UNL     1       5.437   4.234  17.813  0.00  0.00    +0.000 OA
BRANCH   2   3
ATOM      3  C   UNL     1       4.041   4.338  18.125  0.00  0.00    +0.000 C 
ATOM      4  O   UNL     1       3.869   5.549  18.888  0.00  0.00    +0.000 OA
ATOM      5  C   UNL     1       2.482   5.862  19.105  0.00  0.00    +0.000 C 
ATOM      6  C   UNL     1       1.887   4.790  20.030  0.00  0.00    +0.000 C 
ATOM      7  C   UNL     1       2.014   3.426  19.346  0.00  0.00    +0.000 C 
ATOM      8  C   UNL     1       3.462   3.125  18.902  0.00  0.00    +0.000 C 
BRANCH   8   9
ATOM      9  O   UNL     1       3.479   1.930  18.092  0.00  0.00    +0.000 OA
ATOM     10  H   UNL     1       2.869   2.051  17.347  0.00  0.00    +0.000 HD
ENDBRANCH   8   9
BRANCH   7  11
ATOM     11  O   UNL     1       1.549   2.397  20.228  0.00  0.00    +0.000 OA
ATOM     12  H   UNL     1       2.178   1.653  20.123  0.00  0.00    +0.000 HD
ENDBRANCH   7  11
BRANCH   6  13
ATOM     13  O   UNL     1       2.597   4.716  21.282  0.00  0.00    +0.000 OA
ATOM     14  H   UNL     1       2.053   5.161  21.949  0.00  0.00    +0.000 HD
ENDBRANCH   6  13
BRANCH   5  15
ATOM     15  C   UNL     1       2.365   7.271  19.691  0.00  0.00    +0.000 C 
BRANCH  15  16
ATOM     16  O   UNL     1       1.659   7.223  20.928  0.00  0.00    +0.000 OA
ATOM     17  H   UNL     1       1.807   6.338  21.305  0.00  0.00    +0.000 HD
ENDBRANCH  15  16
ENDBRANCH   5  15
ENDBRANCH   2   3
ENDBRANCH   1   2
BRANCH   1  18
ATOM     18  C   UNL     1       6.755   4.388  15.766  0.00  0.00    +0.000 C 
BRANCH  18  19
ATOM     19  O   UNL     1       6.150   3.059  15.743  0.00  0.00    +0.000 OA
ATOM     20  H   UNL     1       5.485   2.997  16.453  0.00  0.00    +0.000 HD
ENDBRANCH  18  19
BRANCH  18  21
ATOM     21  C   UNL     1       6.769   4.905  14.303  0.00  0.00    +0.000 C 
BRANCH  21  22
ATOM     22  O   UNL     1       7.999   5.539  13.939  0.00  0.00    +0.000 OA
ATOM     23  H   UNL     1       7.771   6.430  13.606  0.00  0.00    +0.000 HD
ENDBRANCH  21  22
BRANCH  21  25
ATOM     24  O   UNL     1       6.945   3.418  12.340  0.00  0.00    +0.000 OA
ATOM     25  C   UNL     1       6.278   3.991  13.177  0.00  0.00    +0.000 C 
BRANCH  25  26
ATOM     26  O   UNL     1       4.920   3.812  13.256  0.00  0.00    +0.000 OA
ATOM     27  H   UNL     1       4.458   4.500  12.724  0.00  0.00    +0.000 HD
ENDBRANCH  25  26
ENDBRANCH  21  25
ENDBRANCH  18  21
ENDBRANCH   1  18
BRANCH   1  28
ATOM     28  C   UNL     1       6.908   6.213  17.623  0.00  0.00    +0.000 C 
BRANCH  28  29
ATOM     29  O   UNL     1       7.702   6.916  16.664  0.00  0.00    +0.000 OA
ATOM     30  H   UNL     1       7.628   6.438  15.819  0.00  0.00    +0.000 HD
ENDBRANCH  28  29
BRANCH  28  31
ATOM     31  C   UNL     1       7.745   5.584  18.756  0.00  0.00    +0.000 C 
BRANCH  31  32
ATOM     32  O   UNL     1       6.920   5.432  19.917  0.00  0.00    +0.000 OA
ATOM     33  H   UNL     1       7.095   6.192  20.497  0.00  0.00    +0.000 HD
ENDBRANCH  31  32
ENDBRANCH  28  31
ENDBRANCH   1  28
TORSDOF 17
ENDMDL
MODEL 3
REMARK VINA RESULT:      -6.5      1.068      1.554
REMARK  Name = 
REMARK  17 active torsions:
REMARK  status: ('A' for Active; 'I' for Inactive)
REMARK    1  A    between atoms: C_2  and  O_3
REMARK    2  A    between atoms: C_2  and  C_4
REMARK    3  A    between atoms: C_4  and  O_5
REMARK    4  A    between atoms: C_4  and  C_6
REMARK    5  A    between atoms: C_6  and  O_7
REMARK    6  A    between atoms: C_6  and  C_8
REMARK    7  A    between atoms: C_8  and  O_9
REMARK    8  A    between atoms: C_8  and  C_21
REMARK    9  A    between atoms: O_9  and  C_10
REMARK   10  A    between atoms: C_12  and  C_13
REMARK   11  A    between atoms: C_13  and  O_14
REMARK   12  A    between atoms: C_15  and  O_16
REMARK   13  A    between atoms: C_17  and  O_18
REMARK   14  A    between atoms: C_19  and  O_20
REMARK   15  A    between atoms: C_21  and  O_22
REMARK   16  A    between atoms: C_21  and  C_23
REMARK   17  A    between atoms: C_23  and  O_24
REMARK                            x       y       z     vdW  Elec       q    Type
REMARK                         _______ _______ _______ _____ _____    ______ ____
ROOT
ATOM      1  C   UNL     1       5.163   5.092  17.423  0.00  0.00    +0.000 C 
ENDROOT
BRANCH   1   2
ATOM      2  O   UNL     1       4.091   4.113  17.381  0.00  0.00    +0.000 OA
BRANCH   2   3
ATOM      3  C   UNL     1       2.870   4.403  18.074  0.00  0.00    +0.000 C 
ATOM      4  O   UNL     1       3.095   5.603  18.840  0.00  0.00    +0.000 OA
ATOM      5  C   UNL     1       1.885   6.102  19.437  0.00  0.00    +0.000 C 
ATOM      6  C   UNL     1       1.427   5.097  20.505  0.00  0.00    +0.000 C 
ATOM      7  C   UNL     1       1.160   3.750  19.829  0.00  0.00    +0.000 C 
ATOM      8  C   UNL     1       2.365   3.262  18.997  0.00  0.00    +0.000 C 
BRANCH   8   9
ATOM      9  O   UNL     1       1.981   2.100  18.229  0.00  0.00    +0.000 OA
ATOM     10  H   UNL     1       2.766   1.756  17.773  0.00  0.00    +0.000 HD
ENDBRANCH   8   9
BRANCH   7  11
ATOM     11  O   UNL     1       0.819   2.771  20.818  0.00  0.00    +0.000 OA
ATOM     12  H   UNL     1      -0.057   3.038  21.165  0.00  0.00    +0.000 HD
ENDBRANCH   7  11
BRANCH   6  13
ATOM     13  O   UNL     1       2.443   4.887  21.505  0.00  0.00    +0.000 OA
ATOM     14  H   UNL     1       2.271   5.511  22.226  0.00  0.00    +0.000 HD
ENDBRANCH   6  13
BRANCH   5  15
ATOM     15  C   UNL     1       2.141   7.496  20.015  0.00  0.00    +0.000 C 
BRANCH  15  16
ATOM     16  O   UNL     1       1.583   7.586  21.323  0.00  0.00    +0.000 OA
ATOM     17  H   UNL     1       0.629   7.746  21.215  0.00  0.00    +0.000 HD
ENDBRANCH  15  16
ENDBRANCH   5  15
ENDBRANCH   2   3
ENDBRANCH   1   2
BRANCH   1  18
ATOM     18  C   UNL     1       5.616   5.368  15.948  0.00  0.00    +0.000 C 
BRANCH  18  19
ATOM     19  O   UNL     1       6.229   6.694  15.946  0.00  0.00    +0.000 OA
ATOM     20  H   UNL     1       5.614   7.332  16.350  0.00  0.00    +0.000 HD
ENDBRANCH  18  19
BRANCH  18  21
ATOM     21  C   UNL     1       6.606   4.410  15.233  0.00  0.00    +0.000 C 
BRANCH  21  22
ATOM     22  O   UNL     1       6.175   3.045  15.241  0.00  0.00    +0.000 OA
ATOM     23  H   UNL     1       5.366   3.000  14.694  0.00  0.00    +0.000 HD
ENDBRANCH  21  22
BRANCH  21  25
ATOM     24  O   UNL     1       7.994   5.643  13.606  0.00  0.00    +0.000 OA
ATOM     25  C   UNL     1       7.165   4.793  13.861  0.00  0.00    +0.000 C 
BRANCH  25  26
ATOM     26  O   UNL     1       6.656   3.975  12.884  0.00  0.00    +0.000 OA
ATOM     27  H   UNL     1       6.779   3.032  13.137  0.00  0.00    +0.000 HD
ENDBRANCH  25  26
ENDBRANCH  21  25
ENDBRANCH  18  21
ENDBRANCH   1  18
BRANCH   1  28
ATOM     28  C   UNL     1       6.302   4.638  18.355  0.00  0.00    +0.000 C 
BRANCH  28  29
ATOM     29  O   UNL     1       5.772   3.754  19.347  0.00  0.00    +0.000 OA
ATOM     30  H   UNL     1       6.235   3.943  20.182  0.00  0.00    +0.000 HD
ENDBRANCH  28  29
BRANCH  28  31
ATOM     31  C   UNL     1       7.100   5.813  18.958  0.00  0.00    +0.000 C 
BRANCH  31  32
ATOM     32  O   UNL     1       7.674   5.397  20.203  0.00  0.00    +0.000 OA
ATOM     33  H   UNL     1       7.222   4.579  20.470  0.00  0.00    +0.000 HD
ENDBRANCH  31  32
ENDBRANCH  28  31
ENDBRANCH   1  28
TORSDOF 17
ENDMDL
MODEL 4
REMARK VINA RESULT:      -6.3      0.802      1.032
REMARK  Name = 
REMARK  17 active torsions:
REMARK  status: ('A' for Active; 'I' for Inactive)
REMARK    1  A    between atoms: C_2  and  O_3
REMARK    2  A    between atoms: C_2  and  C_4
REMARK    3  A    between atoms: C_4  and  O_5
REMARK    4  A    between atoms: C_4  and  C_6
REMARK    5  A    between atoms: C_6  and  O_7
REMARK    6  A    between atoms: C_6  and  C_8
REMARK    7  A    between atoms: C_8  and  O_9
REMARK    8  A    between atoms: C_8  and  C_21
REMARK    9  A    between atoms: O_9  and  C_10
REMARK   10  A    between atoms: C_12  and  C_13
REMARK   11  A    between atoms: C_13  and  O_14
REMARK   12  A    between atoms: C_15  and  O_16
REMARK   13  A    between atoms: C_17  and  O_18
REMARK   14  A    between atoms: C_19  and  O_20
REMARK   15  A    between atoms: C_21  and  O_22
REMARK   16  A    between atoms: C_21  and  C_23
REMARK   17  A    between atoms: C_23  and  O_24
REMARK                            x       y       z     vdW  Elec       q    Type
REMARK                         _______ _______ _______ _____ _____    ______ ____
ROOT
ATOM      1  C   UNL     1       5.642   5.773  17.462  0.00  0.00    +0.000 C 
ENDROOT
BRANCH   1   2
ATOM      2  O   UNL     1       5.251   4.664  18.314  0.00  0.00    +0.000 OA
BRANCH   2   3
ATOM      3  C   UNL     1       3.875   4.260  18.326  0.00  0.00    +0.000 C 
ATOM      4  O   UNL     1       3.222   5.015  19.366  0.00  0.00    +0.000 OA
ATOM      5  C   UNL     1       1.796   4.834  19.355  0.00  0.00    +0.000 C 
ATOM      6  C   UNL     1       1.494   3.380  19.750  0.00  0.00    +0.000 C 
ATOM      7  C   UNL     1       2.147   2.448  18.727  0.00  0.00    +0.000 C 
ATOM      8  C   UNL     1       3.652   2.739  18.544  0.00  0.00    +0.000 C 
BRANCH   8   9
ATOM      9  O   UNL     1       4.159   1.972  17.430  0.00  0.00    +0.000 OA
ATOM     10  H   UNL     1       4.091   2.510  16.626  0.00  0.00    +0.000 HD
ENDBRANCH   8   9
BRANCH   7  11
ATOM     11  O   UNL     1       1.957   1.084  19.123  0.00  0.00    +0.000 OA
ATOM     12  H   UNL     1       1.575   1.120  20.025  0.00  0.00    +0.000 HD
ENDBRANCH   7  11
BRANCH   6  13
ATOM     13  O   UNL     1       2.041   3.057  21.043  0.00  0.00    +0.000 OA
ATOM     14  H   UNL     1       1.566   3.588  21.699  0.00  0.00    +0.000 HD
ENDBRANCH   6  13
BRANCH   5  15
ATOM     15  C   UNL     1       1.148   5.845  20.305  0.00  0.00    +0.000 C 
BRANCH  15  16
ATOM     16  O   UNL     1       2.014   6.097  21.407  0.00  0.00    +0.000 OA
ATOM     17  H   UNL     1       2.894   6.292  21.038  0.00  0.00    +0.000 HD
ENDBRANCH  15  16
ENDBRANCH   5  15
ENDBRANCH   2   3
ENDBRANCH   1   2
BRANCH   1  18
ATOM     18  C   UNL     1       5.412   5.335  15.974  0.00  0.00    +0.000 C 
BRANCH  18  19
ATOM     19  O   UNL     1       5.459   6.556  15.173  0.00  0.00    +0.000 OA
ATOM     20  H   UNL     1       5.501   6.319  14.229  0.00  0.00    +0.000 HD
ENDBRANCH  18  19
BRANCH  18  21
ATOM     21  C   UNL     1       6.362   4.312  15.297  0.00  0.00    +0.000 C 
BRANCH  21  22
ATOM     22  O   UNL     1       6.079   2.956  15.655  0.00  0.00    +0.000 OA
ATOM     23  H   UNL     1       5.681   2.976  16.548  0.00  0.00    +0.000 HD
ENDBRANCH  21  22
BRANCH  21  25
ATOM     24  O   UNL     1       6.148   3.785  12.895  0.00  0.00    +0.000 OA
ATOM     25  C   UNL     1       6.646   4.427  13.797  0.00  0.00    +0.000 C 
BRANCH  25  26
ATOM     26  O   UNL     1       7.527   5.448  13.547  0.00  0.00    +0.000 OA
ATOM     27  H   UNL     1       7.215   6.276  13.979  0.00  0.00    +0.000 HD
ENDBRANCH  25  26
ENDBRANCH  21  25
ENDBRANCH  18  21
ENDBRANCH   1  18
BRANCH   1  28
ATOM     28  C   UNL     1       7.079   6.236  17.766  0.00  0.00    +0.000 C 
BRANCH  28  29
ATOM     29  O   UNL     1       7.727   6.589  16.541  0.00  0.00    +0.000 OA
ATOM     30  H   UNL     1       7.407   7.473  16.288  0.00  0.00    +0.000 HD
ENDBRANCH  28  29
BRANCH  28  31
ATOM     31  C   UNL     1       7.882   5.217  18.603  0.00  0.00    +0.000 C 
BRANCH  31  32
ATOM     32  O   UNL     1       8.221   4.098  17.776  0.00  0.00    +0.000 OA
ATOM     33  H   UNL     1       8.070   4.365  16.853  0.00  0.00    +0.000 HD
ENDBRANCH  31  32
ENDBRANCH  28  31
ENDBRANCH   1  28
TORSDOF 17
ENDMDL
MODEL 5
REMARK VINA RESULT:      -6.3      1.452      2.140
REMARK  Name = 
REMARK  17 active torsions:
REMARK  status: ('A' for Active; 'I' for Inactive)
REMARK    1  A    between atoms: C_2  and  O_3
REMARK    2  A    between atoms: C_2  and  C_4
REMARK    3  A    between atoms: C_4  and  O_5
REMARK    4  A    between atoms: C_4  and  C_6
REMARK    5  A    between atoms: C_6  and  O_7
REMARK    6  A    between atoms: C_6  and  C_8
REMARK    7  A    between atoms: C_8  and  O_9
REMARK    8  A    between atoms: C_8  and  C_21
REMARK    9  A    between atoms: O_9  and  C_10
REMARK   10  A    between atoms: C_12  and  C_13
REMARK   11  A    between atoms: C_13  and  O_14
REMARK   12  A    between atoms: C_15  and  O_16
REMARK   13  A    between atoms: C_17  and  O_18
REMARK   14  A    between atoms: C_19  and  O_20
REMARK   15  A    between atoms: C_21  and  O_22
REMARK   16  A    between atoms: C_21  and  C_23
REMARK   17  A    between atoms: C_23  and  O_24
REMARK                            x       y       z     vdW  Elec       q    Type
REMARK                         _______ _______ _______ _____ _____    ______ ____
ROOT
ATOM      1  C   UNL     1       6.112   5.156  16.233  0.00  0.00    +0.000 C 
ENDROOT
BRANCH   1   2
ATOM      2  O   UNL     1       5.348   3.948  16.490  0.00  0.00    +0.000 OA
BRANCH   2   3
ATOM      3  C   UNL     1       4.078   4.065  17.146  0.00  0.00    +0.000 C 
ATOM      4  O   UNL     1       3.945   5.439  17.563  0.00  0.00    +0.000 OA
ATOM      5  C   UNL     1       2.632   5.727  18.072  0.00  0.00    +0.000 C 
ATOM      6  C   UNL     1       2.444   4.952  19.386  0.00  0.00    +0.000 C 
ATOM      7  C   UNL     1       2.576   3.455  19.096  0.00  0.00    +0.000 C 
ATOM      8  C   UNL     1       3.888   3.114  18.358  0.00  0.00    +0.000 C 
BRANCH   8   9
ATOM      9  O   UNL     1       3.858   1.732  17.937  0.00  0.00    +0.000 OA
ATOM     10  H   UNL     1       4.660   1.291  18.260  0.00  0.00    +0.000 HD
ENDBRANCH   8   9
BRANCH   7  11
ATOM     11  O   UNL     1       2.496   2.716  20.321  0.00  0.00    +0.000 OA
ATOM     12  H   UNL     1       2.577   3.379  21.037  0.00  0.00    +0.000 HD
ENDBRANCH   7  11
BRANCH   6  13
ATOM     13  O   UNL     1       3.455   5.298  20.353  0.00  0.00    +0.000 OA
ATOM     14  H   UNL     1       3.910   4.479  20.601  0.00  0.00    +0.000 HD
ENDBRANCH   6  13
BRANCH   5  15
ATOM     15  C   UNL     1       2.478   7.239  18.257  0.00  0.00    +0.000 C 
BRANCH  15  16
ATOM     16  O   UNL     1       2.060   7.523  19.589  0.00  0.00    +0.000 OA
ATOM     17  H   UNL     1       2.813   7.323  20.172  0.00  0.00    +0.000 HD
ENDBRANCH  15  16
ENDBRANCH   5  15
ENDBRANCH   2   3
ENDBRANCH   1   2
BRANCH   1  18
ATOM     18  C   UNL     1       6.455   5.187  14.704  0.00  0.00    +0.000 C 
BRANCH  18  19
ATOM     19  O   UNL     1       7.894   5.423  14.609  0.00  0.00    +0.000 OA
ATOM     20  H   UNL     1       8.111   5.723  13.708  0.00  0.00    +0.000 HD
ENDBRANCH  18  19
BRANCH  18  21
ATOM     21  C   UNL     1       6.135   3.969  13.797  0.00  0.00    +0.000 C 
BRANCH  21  22
ATOM     22  O   UNL     1       4.731   3.727  13.652  0.00  0.00    +0.000 OA
ATOM     23  H   UNL     1       4.297   4.093  14.448  0.00  0.00    +0.000 HD
ENDBRANCH  21  22
BRANCH  21  25
ATOM     24  O   UNL     1       7.532   4.649  11.879  0.00  0.00    +0.000 OA
ATOM     25  C   UNL     1       6.850   3.823  12.452  0.00  0.00    +0.000 C 
BRANCH  25  26
ATOM     26  O   UNL     1       6.696   2.553  11.956  0.00  0.00    +0.000 OA
ATOM     27  H   UNL     1       6.059   2.050  12.513  0.00  0.00    +0.000 HD
ENDBRANCH  25  26
ENDBRANCH  21  25
ENDBRANCH  18  21
ENDBRANCH   1  18
BRANCH   1  28
ATOM     28  C   UNL     1       7.341   5.251  17.156  0.00  0.00    +0.000 C 
BRANCH  28  29
ATOM     29  O   UNL     1       7.337   4.141  18.058  0.00  0.00    +0.000 OA
ATOM     30  H   UNL     1       7.565   4.483  18.940  0.00  0.00    +0.000 HD
ENDBRANCH  28  29
BRANCH  28  31
ATOM     31  C   UNL     1       7.460   6.612  17.873  0.00  0.00    +0.000 C 
BRANCH  31  32
ATOM     32  O   UNL     1       7.731   7.629  16.902  0.00  0.00    +0.000 OA
ATOM     33  H   UNL     1       6.912   7.771  16.396  0.00  0.00    +0.000 HD
ENDBRANCH  31  32
ENDBRANCH  28  31
ENDBRANCH   1  28
TORSDOF 17
ENDMDL
MODEL 6
REMARK VINA RESULT:      -6.3      1.537      4.038
REMARK  Name = 
REMARK  17 active torsions:
REMARK  status: ('A' for Active; 'I' for Inactive)
REMARK    1  A    between atoms: C_2  and  O_3
REMARK    2  A    between atoms: C_2  and  C_4
REMARK    3  A    between atoms: C_4  and  O_5
REMARK    4  A    between atoms: C_4  and  C_6
REMARK    5  A    between atoms: C_6  and  O_7
REMARK    6  A    between atoms: C_6  and  C_8
REMARK    7  A    between atoms: C_8  and  O_9
REMARK    8  A    between atoms: C_8  and  C_21
REMARK    9  A    between atoms: O_9  and  C_10
REMARK   10  A    between atoms: C_12  and  C_13
REMARK   11  A    between atoms: C_13  and  O_14
REMARK   12  A    between atoms: C_15  and  O_16
REMARK   13  A    between atoms: C_17  and  O_18
REMARK   14  A    between atoms: C_19  and  O_20
REMARK   15  A    between atoms: C_21  and  O_22
REMARK   16  A    between atoms: C_21  and  C_23
REMARK   17  A    between atoms: C_23  and  O_24
REMARK                            x       y       z     vdW  Elec       q    Type
REMARK                         _______ _______ _______ _____ _____    ______ ____
ROOT
ATOM      1  C   UNL     1       5.664   4.850  16.889  0.00  0.00    +0.000 C 
ENDROOT
BRANCH   1   2
ATOM      2  O   UNL     1       4.680   5.602  17.648  0.00  0.00    +0.000 OA
BRANCH   2   3
ATOM      3  C   UNL     1       4.153   5.024  18.850  0.00  0.00    +0.000 C 
ATOM      4  O   UNL     1       4.244   3.592  18.704  0.00  0.00    +0.000 OA
ATOM      5  C   UNL     1       3.916   2.900  19.921  0.00  0.00    +0.000 C 
ATOM      6  C   UNL     1       2.423   3.119  20.210  0.00  0.00    +0.000 C 
ATOM      7  C   UNL     1       2.169   4.619  20.377  0.00  0.00    +0.000 C 
ATOM      8  C   UNL     1       2.693   5.439  19.179  0.00  0.00    +0.000 C 
BRANCH   8   9
ATOM      9  O   UNL     1       2.609   6.848  19.486  0.00  0.00    +0.000 OA
ATOM     10  H   UNL     1       3.406   7.288  19.150  0.00  0.00    +0.000 HD
ENDBRANCH   8   9
BRANCH   7  11
ATOM     11  O   UNL     1       0.767   4.856  20.556  0.00  0.00    +0.000 OA
ATOM     12  H   UNL     1       0.463   5.287  19.731  0.00  0.00    +0.000 HD
ENDBRANCH   7  11
BRANCH   6  13
ATOM     13  O   UNL     1       1.599   2.658  19.121  0.00  0.00    +0.000 OA
ATOM     14  H   UNL     1       1.955   3.043  18.306  0.00  0.00    +0.000 HD
ENDBRANCH   6  13
BRANCH   5  15
ATOM     15  C   UNL     1       4.273   1.419  19.776  0.00  0.00    +0.000 C 
BRANCH  15  16
ATOM     16  O   UNL     1       5.469   1.138  20.497  0.00  0.00    +0.000 OA
ATOM     17  H   UNL     1       5.591   1.861  21.138  0.00  0.00    +0.000 HD
ENDBRANCH  15  16
ENDBRANCH   5  15
ENDBRANCH   2   3
ENDBRANCH   1   2
BRANCH   1  18
ATOM     18  C   UNL     1       6.971   4.769  17.751  0.00  0.00    +0.000 C 
BRANCH  18  19
ATOM     19  O   UNL     1       8.073   4.574  16.812  0.00  0.00    +0.000 OA
ATOM     20  H   UNL     1       8.890   4.940  17.196  0.00  0.00    +0.000 HD
ENDBRANCH  18  19
BRANCH  18  21
ATOM     21  C   UNL     1       7.374   5.939  18.687  0.00  0.00    +0.000 C 
BRANCH  21  22
ATOM     22  O   UNL     1       8.167   5.522  19.803  0.00  0.00    +0.000 OA
ATOM     23  H   UNL     1       9.091   5.772  19.603  0.00  0.00    +0.000 HD
ENDBRANCH  21  22
BRANCH  21  25
ATOM     24  O   UNL     1       7.697   7.698  16.985  0.00  0.00    +0.000 OA
ATOM     25  C   UNL     1       7.930   7.230  18.081  0.00  0.00    +0.000 C 
BRANCH  25  26
ATOM     26  O   UNL     1       8.719   7.892  18.988  0.00  0.00    +0.000 OA
ATOM     27  H   UNL     1       9.467   8.333  18.525  0.00  0.00    +0.000 HD
ENDBRANCH  25  26
ENDBRANCH  21  25
ENDBRANCH  18  21
ENDBRANCH   1  18
BRANCH   1  28
ATOM     28  C   UNL     1       5.872   5.453  15.487  0.00  0.00    +0.000 C 
BRANCH  28  29
ATOM     29  O   UNL     1       5.178   6.701  15.405  0.00  0.00    +0.000 OA
ATOM     30  H   UNL     1       5.384   7.092  14.538  0.00  0.00    +0.000 HD
ENDBRANCH  28  29
BRANCH  28  31
ATOM     31  C   UNL     1       5.504   4.481  14.346  0.00  0.00    +0.000 C 
BRANCH  31  32
ATOM     32  O   UNL     1       6.407   3.369  14.371  0.00  0.00    +0.000 OA
ATOM     33  H   UNL     1       6.943   3.450  15.178  0.00  0.00    +0.000 HD
ENDBRANCH  31  32
ENDBRANCH  28  31
ENDBRANCH   1  28
TORSDOF 17
ENDMDL
MODEL 7
REMARK VINA RESULT:      -6.3      1.064      1.887
REMARK  Name = 
REMARK  17 active torsions:
REMARK  status: ('A' for Active; 'I' for Inactive)
REMARK    1  A    between atoms: C_2  and  O_3
REMARK    2  A    between atoms: C_2  and  C_4
REMARK    3  A    between atoms: C_4  and  O_5
REMARK    4  A    between atoms: C_4  and  C_6
REMARK    5  A    between atoms: C_6  and  O_7
REMARK    6  A    between atoms: C_6  and  C_8
REMARK    7  A    between atoms: C_8  and  O_9
REMARK    8  A    between atoms: C_8  and  C_21
REMARK    9  A    between atoms: O_9  and  C_10
REMARK   10  A    between atoms: C_12  and  C_13
REMARK   11  A    between atoms: C_13  and  O_14
REMARK   12  A    between atoms: C_15  and  O_16
REMARK   13  A    between atoms: C_17  and  O_18
REMARK   14  A    between atoms: C_19  and  O_20
REMARK   15  A    between atoms: C_21  and  O_22
REMARK   16  A    between atoms: C_21  and  C_23
REMARK   17  A    between atoms: C_23  and  O_24
REMARK                            x       y       z     vdW  Elec       q    Type
REMARK                         _______ _______ _______ _____ _____    ______ ____
ROOT
ATOM      1  C   UNL     1       5.795   4.668  17.488  0.00  0.00    +0.000 C 
ENDROOT
BRANCH   1   2
ATOM      2  O   UNL     1       4.953   3.644  18.079  0.00  0.00    +0.000 OA
BRANCH   2   3
ATOM      3  C   UNL     1       3.597   3.977  18.409  0.00  0.00    +0.000 C 
ATOM      4  O   UNL     1       3.620   5.284  19.017  0.00  0.00    +0.000 OA
ATOM      5  C   UNL     1       2.299   5.809  19.226  0.00  0.00    +0.000 C 
ATOM      6  C   UNL     1       1.603   4.950  20.293  0.00  0.00    +0.000 C 
ATOM      7  C   UNL     1       1.518   3.509  19.784  0.00  0.00    +0.000 C 
ATOM      8  C   UNL     1       2.893   2.959  19.347  0.00  0.00    +0.000 C 
BRANCH   8   9
ATOM      9  O   UNL     1       2.716   1.684  18.693  0.00  0.00    +0.000 OA
ATOM     10  H   UNL     1       3.081   0.989  19.263  0.00  0.00    +0.000 HD
ENDBRANCH   8   9
BRANCH   7  11
ATOM     11  O   UNL     1       0.956   2.669  20.799  0.00  0.00    +0.000 OA
ATOM     12  H   UNL     1       1.708   2.170  21.178  0.00  0.00    +0.000 HD
ENDBRANCH   7  11
BRANCH   6  13
ATOM     13  O   UNL     1       2.347   4.931  21.526  0.00  0.00    +0.000 OA
ATOM     14  H   UNL     1       2.810   4.081  21.572  0.00  0.00    +0.000 HD
ENDBRANCH   6  13
BRANCH   5  15
ATOM     15  C   UNL     1       2.395   7.282  19.633  0.00  0.00    +0.000 C 
BRANCH  15  16
ATOM     16  O   UNL     1       1.735   7.484  20.879  0.00  0.00    +0.000 OA
ATOM     17  H   UNL     1       1.872   8.416  21.125  0.00  0.00    +0.000 HD
ENDBRANCH  15  16
ENDBRANCH   5  15
ENDBRANCH   2   3
ENDBRANCH   1   2
BRANCH   1  18
ATOM     18  C   UNL     1       6.300   4.132  16.104  0.00  0.00    +0.000 C 
BRANCH  18  19
ATOM     19  O   UNL     1       5.766   2.779  15.967  0.00  0.00    +0.000 OA
ATOM     20  H   UNL     1       6.369   2.150  16.403  0.00  0.00    +0.000 HD
ENDBRANCH  18  19
BRANCH  18  21
ATOM     21  C   UNL     1       5.960   4.888  14.792  0.00  0.00    +0.000 C 
BRANCH  21  22
ATOM     22  O   UNL     1       5.711   6.283  14.993  0.00  0.00    +0.000 OA
ATOM     23  H   UNL     1       5.119   6.357  15.768  0.00  0.00    +0.000 HD
ENDBRANCH  21  22
BRANCH  21  25
ATOM     24  O   UNL     1       7.699   5.389  13.114  0.00  0.00    +0.000 OA
ATOM     25  C   UNL     1       6.826   4.667  13.550  0.00  0.00    +0.000 C 
BRANCH  25  26
ATOM     26  O   UNL     1       6.549   3.452  12.976  0.00  0.00    +0.000 OA
ATOM     27  H   UNL     1       7.340   2.867  13.029  0.00  0.00    +0.000 HD
ENDBRANCH  25  26
ENDBRANCH  21  25
ENDBRANCH  18  21
ENDBRANCH   1  18
BRANCH   1  28
ATOM     28  C   UNL     1       6.924   5.090  18.447  0.00  0.00    +0.000 C 
BRANCH  28  29
ATOM     29  O   UNL     1       6.435   5.054  19.791  0.00  0.00    +0.000 OA
ATOM     30  H   UNL     1       6.842   4.285  20.227  0.00  0.00    +0.000 HD
ENDBRANCH  28  29
BRANCH  28  31
ATOM     31  C   UNL     1       7.566   6.444  18.074  0.00  0.00    +0.000 C 
BRANCH  31  32
ATOM     32  O   UNL     1       6.569   7.284  17.480  0.00  0.00    +0.000 OA
ATOM     33  H   UNL     1       7.016   8.093  17.179  0.00  0.00    +0.000 HD
ENDBRANCH  31  32
ENDBRANCH  28  31
ENDBRANCH   1  28
TORSDOF 17
ENDMDL
MODEL 8
REMARK VINA RESULT:      -6.3      1.804      2.943
REMARK  Name = 
REMARK  17 active torsions:
REMARK  status: ('A' for Active; 'I' for Inactive)
REMARK    1  A    between atoms: C_2  and  O_3
REMARK    2  A    between atoms: C_2  and  C_4
REMARK    3  A    between atoms: C_4  and  O_5
REMARK    4  A    between atoms: C_4  and  C_6
REMARK    5  A    between atoms: C_6  and  O_7
REMARK    6  A    between atoms: C_6  and  C_8
REMARK    7  A    between atoms: C_8  and  O_9
REMARK    8  A    between atoms: C_8  and  C_21
REMARK    9  A    between atoms: O_9  and  C_10
REMARK   10  A    between atoms: C_12  and  C_13
REMARK   11  A    between atoms: C_13  and  O_14
REMARK   12  A    between atoms: C_15  and  O_16
REMARK   13  A    between atoms: C_17  and  O_18
REMARK   14  A    between atoms: C_19  and  O_20
REMARK   15  A    between atoms: C_21  and  O_22
REMARK   16  A    between atoms: C_21  and  C_23
REMARK   17  A    between atoms: C_23  and  O_24
REMARK                            x       y       z     vdW  Elec       q    Type
REMARK                         _______ _______ _______ _____ _____    ______ ____
ROOT
ATOM      1  C   UNL     1       6.076   5.843  17.651  0.00  0.00    +0.000 C 
ENDROOT
BRANCH   1   2
ATOM      2  O   UNL     1       5.898   5.466  19.042  0.00  0.00    +0.000 OA
BRANCH   2   3
ATOM      3  C   UNL     1       4.791   4.623  19.389  0.00  0.00    +0.000 C 
ATOM      4  O   UNL     1       5.311   3.288  19.548  0.00  0.00    +0.000 OA
ATOM      5  C   UNL     1       4.329   2.382  20.077  0.00  0.00    +0.000 C 
ATOM      6  C   UNL     1       3.229   2.195  19.020  0.00  0.00    +0.000 C 
ATOM      7  C   UNL     1       2.586   3.555  18.736  0.00  0.00    +0.000 C 
ATOM      8  C   UNL     1       3.629   4.630  18.360  0.00  0.00    +0.000 C 
BRANCH   8   9
ATOM      9  O   UNL     1       2.988   5.923  18.305  0.00  0.00    +0.000 OA
ATOM     10  H   UNL     1       3.286   6.450  19.063  0.00  0.00    +0.000 HD
ENDBRANCH   8   9
BRANCH   7  11
ATOM     11  O   UNL     1       1.619   3.423  17.687  0.00  0.00    +0.000 OA
ATOM     12  H   UNL     1       1.360   2.479  17.682  0.00  0.00    +0.000 HD
ENDBRANCH   7  11
BRANCH   6  13
ATOM     13  O   UNL     1       3.766   1.700  17.778  0.00  0.00    +0.000 OA
ATOM     14  H   UNL     1       3.126   1.913  17.082  0.00  0.00    +0.000 HD
ENDBRANCH   6  13
BRANCH   5  15
ATOM     15  C   UNL     1       5.007   1.062  20.455  0.00  0.00    +0.000 C 
BRANCH  15  16
ATOM     16  O   UNL     1       5.669   1.201  21.709  0.00  0.00    +0.000 OA
ATOM     17  H   UNL     1       6.097   2.075  21.708  0.00  0.00    +0.000 HD
ENDBRANCH  15  16
ENDBRANCH   5  15
ENDBRANCH   2   3
ENDBRANCH   1   2
BRANCH   1  18
ATOM     18  C   UNL     1       7.183   4.915  17.043  0.00  0.00    +0.000 C 
BRANCH  18  19
ATOM     19  O   UNL     1       7.719   4.129  18.152  0.00  0.00    +0.000 OA
ATOM     20  H   UNL     1       7.441   3.201  18.051  0.00  0.00    +0.000 HD
ENDBRANCH  18  19
BRANCH  18  21
ATOM     21  C   UNL     1       6.839   3.917  15.905  0.00  0.00    +0.000 C 
BRANCH  21  22
ATOM     22  O   UNL     1       5.757   3.040  16.232  0.00  0.00    +0.000 OA
ATOM     23  H   UNL     1       5.672   3.044  17.206  0.00  0.00    +0.000 HD
ENDBRANCH  21  22
BRANCH  21  25
ATOM     24  O   UNL     1       6.922   5.552  14.057  0.00  0.00    +0.000 OA
ATOM     25  C   UNL     1       6.705   4.431  14.469  0.00  0.00    +0.000 C 
BRANCH  25  26
ATOM     26  O   UNL     1       6.359   3.411  13.619  0.00  0.00    +0.000 OA
ATOM     27  H   UNL     1       5.581   2.924  13.976  0.00  0.00    +0.000 HD
ENDBRANCH  25  26
ENDBRANCH  21  25
ENDBRANCH  18  21
ENDBRANCH   1  18
BRANCH   1  28
ATOM     28  C   UNL     1       6.370   7.348  17.510  0.00  0.00    +0.000 C 
BRANCH  28  29
ATOM     29  O   UNL     1       5.864   7.809  16.254  0.00  0.00    +0.000 OA
ATOM     30  H   UNL     1       6.570   8.327  15.829  0.00  0.00    +0.000 HD
ENDBRANCH  28  29
BRANCH  28  31
ATOM     31  C   UNL     1       7.857   7.701  17.728  0.00  0.00    +0.000 C 
BRANCH  31  32
ATOM     32  O   UNL     1       8.310   7.082  18.938  0.00  0.00    +0.000 OA
ATOM     33  H   UNL     1       8.448   7.789  19.591  0.00  0.00    +0.000 HD
ENDBRANCH  31  32
ENDBRANCH  28  31
ENDBRANCH   1  28
TORSDOF 17
ENDMDL
MODEL 9
REMARK VINA RESULT:      -6.2      1.879      5.976
REMARK  Name = 
REMARK  17 active torsions:
REMARK  status: ('A' for Active; 'I' for Inactive)
REMARK    1  A    between atoms: C_2  and  O_3
REMARK    2  A    between atoms: C_2  and  C_4
REMARK    3  A    between atoms: C_4  and  O_5
REMARK    4  A    between atoms: C_4  and  C_6
REMARK    5  A    between atoms: C_6  and  O_7
REMARK    6  A    between atoms: C_6  and  C_8
REMARK    7  A    between atoms: C_8  and  O_9
REMARK    8  A    between atoms: C_8  and  C_21
REMARK    9  A    between atoms: O_9  and  C_10
REMARK   10  A    between atoms: C_12  and  C_13
REMARK   11  A    between atoms: C_13  and  O_14
REMARK   12  A    between atoms: C_15  and  O_16
REMARK   13  A    between atoms: C_17  and  O_18
REMARK   14  A    between atoms: C_19  and  O_20
REMARK   15  A    between atoms: C_21  and  O_22
REMARK   16  A    between atoms: C_21  and  C_23
REMARK   17  A    between atoms: C_23  and  O_24
REMARK                            x       y       z     vdW  Elec       q    Type
REMARK                         _______ _______ _______ _____ _____    ______ ____
ROOT
ATOM      1  C   UNL     1       2.982   4.852  19.004  0.00  0.00    +0.000 C 
ENDROOT
BRANCH   1   2
ATOM      2  O   UNL     1       4.328   4.920  19.544  0.00  0.00    +0.000 OA
BRANCH   2   3
ATOM      3  C   UNL     1       5.437   4.798  18.643  0.00  0.00    +0.000 C 
ATOM      4  O   UNL     1       5.944   6.128  18.416  0.00  0.00    +0.000 OA
ATOM      5  C   UNL     1       7.174   6.121  17.671  0.00  0.00    +0.000 C 
ATOM      6  C   UNL     1       6.872   5.624  16.249  0.00  0.00    +0.000 C 
ATOM      7  C   UNL     1       6.305   4.205  16.335  0.00  0.00    +0.000 C 
ATOM      8  C   UNL     1       5.097   4.113  17.292  0.00  0.00    +0.000 C 
BRANCH   8   9
ATOM      9  O   UNL     1       4.739   2.727  17.484  0.00  0.00    +0.000 OA
ATOM     10  H   UNL     1       5.249   2.185  16.861  0.00  0.00    +0.000 HD
ENDBRANCH   8   9
BRANCH   7  11
ATOM     11  O   UNL     1       5.930   3.753  15.028  0.00  0.00    +0.000 OA
ATOM     12  H   UNL     1       5.900   2.776  15.083  0.00  0.00    +0.000 HD
ENDBRANCH   7  11
BRANCH   6  13
ATOM     13  O   UNL     1       5.885   6.448  15.598  0.00  0.00    +0.000 OA
ATOM     14  H   UNL     1       5.063   5.936  15.558  0.00  0.00    +0.000 HD
ENDBRANCH   6  13
BRANCH   5  15
ATOM     15  C   UNL     1       7.784   7.525  17.684  0.00  0.00    +0.000 C 
BRANCH  15  16
ATOM     16  O   UNL     1       8.575   7.698  18.856  0.00  0.00    +0.000 OA
ATOM     17  H   UNL     1       8.047   8.227  19.479  0.00  0.00    +0.000 HD
ENDBRANCH  15  16
ENDBRANCH   5  15
ENDBRANCH   2   3
ENDBRANCH   1   2
BRANCH   1  18
ATOM     18  C   UNL     1       2.296   6.239  19.253  0.00  0.00    +0.000 C 
BRANCH  18  19
ATOM     19  O   UNL     1       2.312   6.454  20.697  0.00  0.00    +0.000 OA
ATOM     20  H   UNL     1       1.408   6.650  21.003  0.00  0.00    +0.000 HD
ENDBRANCH  18  19
BRANCH  18  21
ATOM     21  C   UNL     1       2.860   7.527  18.596  0.00  0.00    +0.000 C 
BRANCH  21  22
ATOM     22  O   UNL     1       3.594   7.274  17.394  0.00  0.00    +0.000 OA
ATOM     23  H   UNL     1       4.530   7.162  17.653  0.00  0.00    +0.000 HD
ENDBRANCH  21  22
BRANCH  21  25
ATOM     24  O   UNL     1       1.760   9.399  17.421  0.00  0.00    +0.000 OA
ATOM     25  C   UNL     1       1.948   8.745  18.427  0.00  0.00    +0.000 C 
BRANCH  25  26
ATOM     26  O   UNL     1       1.261   9.003  19.586  0.00  0.00    +0.000 OA
ATOM     27  H   UNL     1       1.687   9.746  20.072  0.00  0.00    +0.000 HD
ENDBRANCH  25  26
ENDBRANCH  21  25
ENDBRANCH  18  21
ENDBRANCH   1  18
BRANCH   1  28
ATOM     28  C   UNL     1       2.205   3.654  19.582  0.00  0.00    +0.000 C 
BRANCH  28  29
ATOM     29  O   UNL     1       3.122   2.771  20.235  0.00  0.00    +0.000 OA
ATOM     30  H   UNL     1       3.710   3.318  20.785  0.00  0.00    +0.000 HD
ENDBRANCH  28  29
BRANCH  28  31
ATOM     31  C   UNL     1       1.320   2.941  18.538  0.00  0.00    +0.000 C 
BRANCH  31  32
ATOM     32  O   UNL     1       1.714   3.364  17.227  0.00  0.00    +0.000 OA
ATOM     33  H   UNL     1       2.434   2.777  16.938  0.00  0.00    +0.000 HD
ENDBRANCH  31  32
ENDBRANCH  28  31
ENDBRANCH   1  28
TORSDOF 17
ENDMDL
