MODEL 1
REMARK VINA RESULT:      -7.3      0.000      0.000
REMARK  Name = 
REMARK  8 active torsions:
REMARK  status: ('A' for Active; 'I' for Inactive)
REMARK    1  A    between atoms: C_2  and  O_3
REMARK    2  A    between atoms: C_2  and  C_4
REMARK    3  A    between atoms: C_4  and  C_5
REMARK    4  A    between atoms: C_4  and  N_12
REMARK    5  A    between atoms: C_5  and  C_6
REMARK    6  A    between atoms: N_12  and  P_13
REMARK    7  A    between atoms: P_13  and  O_14
REMARK    8  A    between atoms: P_13  and  C_16
REMARK                            x       y       z     vdW  Elec       q    Type
REMARK                         _______ _______ _______ _____ _____    ______ ____
ROOT
ATOM      1  C   UNL     1       7.047   5.080  17.114  0.00  0.00    +0.000 C 
ENDROOT
BRANCH   1   3
ATOM      2  O   UNL     1       8.065   6.694  18.595  0.00  0.00    +0.000 OA
ATOM      3  C   UNL     1       7.478   6.498  17.531  0.00  0.00    +0.000 C 
BRANCH   3   4
ATOM      4  O   UNL     1       7.172   7.528  16.726  0.00  0.00    +0.000 OA
ATOM      5  H   UNL     1       6.779   7.318  15.856  0.00  0.00    +0.000 HD
ENDBRANCH   3   4
ENDBRANCH   1   3
BRANCH   1   6
ATOM      6  N   UNL     1       6.682   4.299  18.311  0.00  0.00    +0.000 NA
ATOM      7  H   UNL     1       6.880   4.819  19.165  0.00  0.00    +0.000 HD
BRANCH   6   8
ATOM      8  P   UNL     1       4.960   3.858  18.414  0.00  0.00    +0.000 P 
ATOM      9  S   UNL     1       4.743   5.613  19.403  0.00  0.00    +0.000 S 
BRANCH   8  10
ATOM     10  C   UNL     1       3.191   3.403  18.518  0.00  0.00    +0.000 A 
ATOM     11  C   UNL     1       2.192   4.062  17.776  0.00  0.00    +0.000 A 
ATOM     12  C   UNL     1       0.853   3.688  17.890  0.00  0.00    +0.000 A 
ATOM     13  C   UNL     1       0.494   2.655  18.754  0.00  0.00    +0.000 A 
ATOM     14  C   UNL     1       1.469   1.999  19.504  0.00  0.00    +0.000 A 
ATOM     15  C   UNL     1       2.811   2.371  19.391  0.00  0.00    +0.000 A 
ENDBRANCH   8  10
BRANCH   8  16
ATOM     16  O   UNL     1       5.398   2.653  19.446  0.00  0.00    +0.000 OA
ATOM     17  H   UNL     1       6.272   2.809  19.848  0.00  0.00    +0.000 HD
ENDBRANCH   8  16
ENDBRANCH   6   8
ENDBRANCH   1   6
BRANCH   1  18
ATOM     18  C   UNL     1       6.022   4.981  15.965  0.00  0.00    +0.000 C 
BRANCH  18  19
ATOM     19  C   UNL     1       6.428   4.714  14.529  0.00  0.00    +0.000 A 
ATOM     20  C   UNL     1       7.485   5.349  13.863  0.00  0.00    +0.000 A 
ATOM     21  C   UNL     1       7.798   5.015  12.540  0.00  0.00    +0.000 A 
ATOM     22  C   UNL     1       7.053   4.056  11.856  0.00  0.00    +0.000 A 
ATOM     23  C   UNL     1       5.991   3.427  12.494  0.00  0.00    +0.000 A 
ATOM     24  C   UNL     1       5.686   3.753  13.817  0.00  0.00    +0.000 A 
ENDBRANCH  18  19
ENDBRANCH   1  18
TORSDOF 8
ENDMDL
MODEL 2
REMARK VINA RESULT:      -7.3      1.546      1.749
REMARK  Name = 
REMARK  8 active torsions:
REMARK  status: ('A' for Active; 'I' for Inactive)
REMARK    1  A    between atoms: C_2  and  O_3
REMARK    2  A    between atoms: C_2  and  C_4
REMARK    3  A    between atoms: C_4  and  C_5
REMARK    4  A    between atoms: C_4  and  N_12
REMARK    5  A    between atoms: C_5  and  C_6
REMARK    6  A    between atoms: N_12  and  P_13
REMARK    7  A    between atoms: P_13  and  O_14
REMARK    8  A    between atoms: P_13  and  C_16
REMARK                            x       y       z     vdW  Elec       q    Type
REMARK                         _______ _______ _______ _____ _____    ______ ____
ROOT
ATOM      1  C   UNL     1       6.569   5.287  16.916  0.00  0.00    +0.000 C 
ENDROOT
BRANCH   1   3
ATOM      2  O   UNL     1       7.841   5.815  18.899  0.00  0.00    +0.000 OA
ATOM      3  C   UNL     1       7.667   5.033  17.965  0.00  0.00    +0.000 C 
BRANCH   3   4
ATOM      4  O   UNL     1       8.457   3.957  17.824  0.00  0.00    +0.000 OA
ATOM      5  H   UNL     1       8.730   3.490  18.639  0.00  0.00    +0.000 HD
ENDBRANCH   3   4
ENDBRANCH   1   3
BRANCH   1   6
ATOM      6  N   UNL     1       5.511   6.136  17.497  0.00  0.00    +0.000 NA
ATOM      7  H   UNL     1       5.110   6.757  16.795  0.00  0.00    +0.000 HD
BRANCH   6   8
ATOM      8  P   UNL     1       4.133   5.242  18.182  0.00  0.00    +0.000 P 
ATOM      9  S   UNL     1       3.116   6.982  17.970  0.00  0.00    +0.000 S 
BRANCH   8  10
ATOM     10  C   UNL     1       2.717   4.322  18.886  0.00  0.00    +0.000 A 
ATOM     11  C   UNL     1       2.001   3.354  18.156  0.00  0.00    +0.000 A 
ATOM     12  C   UNL     1       0.923   2.679  18.729  0.00  0.00    +0.000 A 
ATOM     13  C   UNL     1       0.540   2.971  20.036  0.00  0.00    +0.000 A 
ATOM     14  C   UNL     1       1.231   3.935  20.770  0.00  0.00    +0.000 A 
ATOM     15  C   UNL     1       2.311   4.611  20.199  0.00  0.00    +0.000 A 
ENDBRANCH   8  10
BRANCH   8  16
ATOM     16  O   UNL     1       4.948   5.210  19.611  0.00  0.00    +0.000 OA
ATOM     17  H   UNL     1       5.816   5.650  19.553  0.00  0.00    +0.000 HD
ENDBRANCH   8  16
ENDBRANCH   6   8
ENDBRANCH   1   6
BRANCH   1  18
ATOM     18  C   UNL     1       7.042   5.744  15.520  0.00  0.00    +0.000 C 
BRANCH  18  19
ATOM     19  C   UNL     1       6.753   4.953  14.259  0.00  0.00    +0.000 A 
ATOM     20  C   UNL     1       7.572   4.928  13.123  0.00  0.00    +0.000 A 
ATOM     21  C   UNL     1       7.230   4.144  12.014  0.00  0.00    +0.000 A 
ATOM     22  C   UNL     1       6.060   3.387  12.015  0.00  0.00    +0.000 A 
ATOM     23  C   UNL     1       5.226   3.412  13.126  0.00  0.00    +0.000 A 
ATOM     24  C   UNL     1       5.573   4.185  14.236  0.00  0.00    +0.000 A 
ENDBRANCH  18  19
ENDBRANCH   1  18
TORSDOF 8
ENDMDL
MODEL 3
REMARK VINA RESULT:      -7.2      0.124      1.491
REMARK  Name = 
REMARK  8 active torsions:
REMARK  status: ('A' for Active; 'I' for Inactive)
REMARK    1  A    between atoms: C_2  and  O_3
REMARK    2  A    between atoms: C_2  and  C_4
REMARK    3  A    between atoms: C_4  and  C_5
REMARK    4  A    between atoms: C_4  and  N_12
REMARK    5  A    between atoms: C_5  and  C_6
REMARK    6  A    between atoms: N_12  and  P_13
REMARK    7  A    between atoms: P_13  and  O_14
REMARK    8  A    between atoms: P_13  and  C_16
REMARK                            x       y       z     vdW  Elec       q    Type
REMARK                         _______ _______ _______ _____ _____    ______ ____
ROOT
ATOM      1  C   UNL     1       7.046   5.101  17.145  0.00  0.00    +0.000 C 
ENDROOT
BRANCH   1   3
ATOM      2  O   UNL     1       8.065   6.660  18.682  0.00  0.00    +0.000 OA
ATOM      3  C   UNL     1       7.549   6.490  17.578  0.00  0.00    +0.000 C 
BRANCH   3   4
ATOM      4  O   UNL     1       7.383   7.526  16.740  0.00  0.00    +0.000 OA
ATOM      5  H   UNL     1       7.308   8.417  17.136  0.00  0.00    +0.000 HD
ENDBRANCH   3   4
ENDBRANCH   1   3
BRANCH   1   6
ATOM      6  N   UNL     1       6.692   4.306  18.336  0.00  0.00    +0.000 NA
ATOM      7  H   UNL     1       6.884   4.823  19.195  0.00  0.00    +0.000 HD
BRANCH   6   8
ATOM      8  P   UNL     1       4.976   3.843  18.437  0.00  0.00    +0.000 P 
ATOM      9  S   UNL     1       4.721   5.630  19.357  0.00  0.00    +0.000 S 
BRANCH   8  10
ATOM     10  C   UNL     1       3.213   3.365  18.541  0.00  0.00    +0.000 A 
ATOM     11  C   UNL     1       2.770   2.245  19.270  0.00  0.00    +0.000 A 
ATOM     12  C   UNL     1       1.416   1.913  19.318  0.00  0.00    +0.000 A 
ATOM     13  C   UNL     1       0.488   2.691  18.629  0.00  0.00    +0.000 A 
ATOM     14  C   UNL     1       0.910   3.798  17.894  0.00  0.00    +0.000 A 
ATOM     15  C   UNL     1       2.265   4.133  17.845  0.00  0.00    +0.000 A 
ENDBRANCH   8  10
BRANCH   8  16
ATOM     16  O   UNL     1       5.420   2.685  19.520  0.00  0.00    +0.000 OA
ATOM     17  H   UNL     1       4.756   2.561  20.223  0.00  0.00    +0.000 HD
ENDBRANCH   8  16
ENDBRANCH   6   8
ENDBRANCH   1   6
BRANCH   1  18
ATOM     18  C   UNL     1       5.978   5.071  16.032  0.00  0.00    +0.000 C 
BRANCH  18  19
ATOM     19  C   UNL     1       6.294   4.661  14.607  0.00  0.00    +0.000 A 
ATOM     20  C   UNL     1       5.578   3.708  13.869  0.00  0.00    +0.000 A 
ATOM     21  C   UNL     1       5.934   3.416  12.547  0.00  0.00    +0.000 A 
ATOM     22  C   UNL     1       7.016   4.055  11.946  0.00  0.00    +0.000 A 
ATOM     23  C   UNL     1       7.748   4.991  12.666  0.00  0.00    +0.000 A 
ATOM     24  C   UNL     1       7.386   5.291  13.982  0.00  0.00    +0.000 A 
ENDBRANCH  18  19
ENDBRANCH   1  18
TORSDOF 8
ENDMDL
MODEL 4
REMARK VINA RESULT:      -7.2      1.529      1.980
REMARK  Name = 
REMARK  8 active torsions:
REMARK  status: ('A' for Active; 'I' for Inactive)
REMARK    1  A    between atoms: C_2  and  O_3
REMARK    2  A    between atoms: C_2  and  C_4
REMARK    3  A    between atoms: C_4  and  C_5
REMARK    4  A    between atoms: C_4  and  N_12
REMARK    5  A    between atoms: C_5  and  C_6
REMARK    6  A    between atoms: N_12  and  P_13
REMARK    7  A    between atoms: P_13  and  O_14
REMARK    8  A    between atoms: P_13  and  C_16
REMARK                            x       y       z     vdW  Elec       q    Type
REMARK                         _______ _______ _______ _____ _____    ______ ____
ROOT
ATOM      1  C   UNL     1       6.602   5.226  16.965  0.00  0.00    +0.000 C 
ENDROOT
BRANCH   1   3
ATOM      2  O   UNL     1       8.507   4.060  17.881  0.00  0.00    +0.000 OA
ATOM      3  C   UNL     1       7.710   4.989  18.006  0.00  0.00    +0.000 C 
BRANCH   3   4
ATOM      4  O   UNL     1       7.772   5.796  19.077  0.00  0.00    +0.000 OA
ATOM      5  H   UNL     1       6.939   6.215  19.374  0.00  0.00    +0.000 HD
ENDBRANCH   3   4
ENDBRANCH   1   3
BRANCH   1   6
ATOM      6  N   UNL     1       5.551   6.086  17.542  0.00  0.00    +0.000 NA
ATOM      7  H   UNL     1       5.165   6.718  16.841  0.00  0.00    +0.000 HD
BRANCH   6   8
ATOM      8  P   UNL     1       4.154   5.208  18.209  0.00  0.00    +0.000 P 
ATOM      9  S   UNL     1       3.155   6.955  17.969  0.00  0.00    +0.000 S 
BRANCH   8  10
ATOM     10  C   UNL     1       2.718   4.303  18.893  0.00  0.00    +0.000 A 
ATOM     11  C   UNL     1       2.034   3.306  18.172  0.00  0.00    +0.000 A 
ATOM     12  C   UNL     1       0.940   2.645  18.730  0.00  0.00    +0.000 A 
ATOM     13  C   UNL     1       0.509   2.978  20.012  0.00  0.00    +0.000 A 
ATOM     14  C   UNL     1       1.169   3.970  20.737  0.00  0.00    +0.000 A 
ATOM     15  C   UNL     1       2.266   4.633  20.181  0.00  0.00    +0.000 A 
ENDBRANCH   8  10
BRANCH   8  16
ATOM     16  O   UNL     1       4.944   5.178  19.652  0.00  0.00    +0.000 OA
ATOM     17  H   UNL     1       4.751   5.963  20.196  0.00  0.00    +0.000 HD
ENDBRANCH   8  16
ENDBRANCH   6   8
ENDBRANCH   1   6
BRANCH   1  18
ATOM     18  C   UNL     1       7.061   5.660  15.556  0.00  0.00    +0.000 C 
BRANCH  18  19
ATOM     19  C   UNL     1       6.722   4.870  14.308  0.00  0.00    +0.000 A 
ATOM     20  C   UNL     1       5.603   4.038  14.163  0.00  0.00    +0.000 A 
ATOM     21  C   UNL     1       5.363   3.368  12.958  0.00  0.00    +0.000 A 
ATOM     22  C   UNL     1       6.241   3.504  11.884  0.00  0.00    +0.000 A 
ATOM     23  C   UNL     1       7.364   4.312  12.013  0.00  0.00    +0.000 A 
ATOM     24  C   UNL     1       7.598   4.988  13.212  0.00  0.00    +0.000 A 
ENDBRANCH  18  19
ENDBRANCH   1  18
TORSDOF 8
ENDMDL
MODEL 5
REMARK VINA RESULT:      -7.2      1.497      2.060
REMARK  Name = 
REMARK  8 active torsions:
REMARK  status: ('A' for Active; 'I' for Inactive)
REMARK    1  A    between atoms: C_2  and  O_3
REMARK    2  A    between atoms: C_2  and  C_4
REMARK    3  A    between atoms: C_4  and  C_5
REMARK    4  A    between atoms: C_4  and  N_12
REMARK    5  A    between atoms: C_5  and  C_6
REMARK    6  A    between atoms: N_12  and  P_13
REMARK    7  A    between atoms: P_13  and  O_14
REMARK    8  A    between atoms: P_13  and  C_16
REMARK                            x       y       z     vdW  Elec       q    Type
REMARK                         _______ _______ _______ _____ _____    ______ ____
ROOT
ATOM      1  C   UNL     1       6.764   5.966  17.644  0.00  0.00    +0.000 C 
ENDROOT
BRANCH   1   3
ATOM      2  O   UNL     1       7.636   8.128  17.016  0.00  0.00    +0.000 OA
ATOM      3  C   UNL     1       7.655   7.208  17.832  0.00  0.00    +0.000 C 
BRANCH   3   4
ATOM      4  O   UNL     1       8.481   7.255  18.889  0.00  0.00    +0.000 OA
ATOM      5  H   UNL     1       8.371   6.569  19.577  0.00  0.00    +0.000 HD
ENDBRANCH   3   4
ENDBRANCH   1   3
BRANCH   1   6
ATOM      6  N   UNL     1       5.419   6.380  17.201  0.00  0.00    +0.000 NA
ATOM      7  H   UNL     1       5.306   6.249  16.196  0.00  0.00    +0.000 HD
BRANCH   6   8
ATOM      8  P   UNL     1       4.079   5.479  17.949  0.00  0.00    +0.000 P 
ATOM      9  S   UNL     1       3.124   7.266  17.989  0.00  0.00    +0.000 S 
BRANCH   8  10
ATOM     10  C   UNL     1       2.702   4.552  18.718  0.00  0.00    +0.000 A 
ATOM     11  C   UNL     1       2.168   4.890  19.977  0.00  0.00    +0.000 A 
ATOM     12  C   UNL     1       1.121   4.153  20.530  0.00  0.00    +0.000 A 
ATOM     13  C   UNL     1       0.600   3.062  19.837  0.00  0.00    +0.000 A 
ATOM     14  C   UNL     1       1.123   2.708  18.594  0.00  0.00    +0.000 A 
ATOM     15  C   UNL     1       2.171   3.445  18.037  0.00  0.00    +0.000 A 
ENDBRANCH   8  10
BRANCH   8  16
ATOM     16  O   UNL     1       5.032   5.295  19.278  0.00  0.00    +0.000 OA
ATOM     17  H   UNL     1       5.933   5.001  19.050  0.00  0.00    +0.000 HD
ENDBRANCH   8  16
ENDBRANCH   6   8
ENDBRANCH   1   6
BRANCH   1  18
ATOM     18  C   UNL     1       7.364   4.805  16.824  0.00  0.00    +0.000 C 
BRANCH  18  19
ATOM     19  C   UNL     1       7.011   4.564  15.370  0.00  0.00    +0.000 A 
ATOM     20  C   UNL     1       5.947   3.769  14.923  0.00  0.00    +0.000 A 
ATOM     21  C   UNL     1       5.686   3.628  13.555  0.00  0.00    +0.000 A 
ATOM     22  C   UNL     1       6.490   4.264  12.611  0.00  0.00    +0.000 A 
ATOM     23  C   UNL     1       7.559   5.044  13.033  0.00  0.00    +0.000 A 
ATOM     24  C   UNL     1       7.813   5.193  14.398  0.00  0.00    +0.000 A 
ENDBRANCH  18  19
ENDBRANCH   1  18
TORSDOF 8
ENDMDL
MODEL 6
REMARK VINA RESULT:      -7.1      0.611      1.210
REMARK  Name = 
REMARK  8 active torsions:
REMARK  status: ('A' for Active; 'I' for Inactive)
REMARK    1  A    between atoms: C_2  and  O_3
REMARK    2  A    between atoms: C_2  and  C_4
REMARK    3  A    between atoms: C_4  and  C_5
REMARK    4  A    between atoms: C_4  and  N_12
REMARK    5  A    between atoms: C_5  and  C_6
REMARK    6  A    between atoms: N_12  and  P_13
REMARK    7  A    between atoms: P_13  and  O_14
REMARK    8  A    between atoms: P_13  and  C_16
REMARK                            x       y       z     vdW  Elec       q    Type
REMARK                         _______ _______ _______ _____ _____    ______ ____
ROOT
ATOM      1  C   UNL     1       6.816   4.854  17.006  0.00  0.00    +0.000 C 
ENDROOT
BRANCH   1   3
ATOM      2  O   UNL     1       7.897   6.737  18.062  0.00  0.00    +0.000 OA
ATOM      3  C   UNL     1       7.079   6.354  17.226  0.00  0.00    +0.000 C 
BRANCH   3   4
ATOM      4  O   UNL     1       6.374   7.245  16.510  0.00  0.00    +0.000 OA
ATOM      5  H   UNL     1       6.875   7.858  15.936  0.00  0.00    +0.000 HD
ENDBRANCH   3   4
ENDBRANCH   1   3
BRANCH   1   6
ATOM      6  N   UNL     1       6.565   4.197  18.303  0.00  0.00    +0.000 NA
ATOM      7  H   UNL     1       6.851   4.793  19.080  0.00  0.00    +0.000 HD
BRANCH   6   8
ATOM      8  P   UNL     1       4.859   3.797  18.617  0.00  0.00    +0.000 P 
ATOM      9  S   UNL     1       4.744   5.656  19.413  0.00  0.00    +0.000 S 
BRANCH   8  10
ATOM     10  C   UNL     1       3.106   3.384  18.938  0.00  0.00    +0.000 A 
ATOM     11  C   UNL     1       2.147   3.288  17.911  0.00  0.00    +0.000 A 
ATOM     12  C   UNL     1       0.819   2.976  18.201  0.00  0.00    +0.000 A 
ATOM     13  C   UNL     1       0.429   2.767  19.522  0.00  0.00    +0.000 A 
ATOM     14  C   UNL     1       1.363   2.868  20.552  0.00  0.00    +0.000 A 
ATOM     15  C   UNL     1       2.694   3.179  20.265  0.00  0.00    +0.000 A 
ENDBRANCH   8  10
BRANCH   8  16
ATOM     16  O   UNL     1       5.387   2.712  19.736  0.00  0.00    +0.000 OA
ATOM     17  H   UNL     1       6.187   3.019  20.201  0.00  0.00    +0.000 HD
ENDBRANCH   8  16
ENDBRANCH   6   8
ENDBRANCH   1   6
BRANCH   1  18
ATOM     18  C   UNL     1       5.792   4.487  15.911  0.00  0.00    +0.000 C 
BRANCH  18  19
ATOM     19  C   UNL     1       6.181   4.308  14.457  0.00  0.00    +0.000 A 
ATOM     20  C   UNL     1       5.505   3.490  13.541  0.00  0.00    +0.000 A 
ATOM     21  C   UNL     1       5.927   3.410  12.209  0.00  0.00    +0.000 A 
ATOM     22  C   UNL     1       7.038   4.131  11.773  0.00  0.00    +0.000 A 
ATOM     23  C   UNL     1       7.730   4.935  12.669  0.00  0.00    +0.000 A 
ATOM     24  C   UNL     1       7.302   5.022  13.996  0.00  0.00    +0.000 A 
ENDBRANCH  18  19
ENDBRANCH   1  18
TORSDOF 8
ENDMDL
MODEL 7
REMARK VINA RESULT:      -7.1      0.946      1.482
REMARK  Name = 
REMARK  8 active torsions:
REMARK  status: ('A' for Active; 'I' for Inactive)
REMARK    1  A    between atoms: C_2  and  O_3
REMARK    2  A    between atoms: C_2  and  C_4
REMARK    3  A    between atoms: C_4  and  C_5
REMARK    4  A    between atoms: C_4  and  N_12
REMARK    5  A    between atoms: C_5  and  C_6
REMARK    6  A    between atoms: N_12  and  P_13
REMARK    7  A    between atoms: P_13  and  O_14
REMARK    8  A    between atoms: P_13  and  C_16
REMARK                            x       y       z     vdW  Elec       q    Type
REMARK                         _______ _______ _______ _____ _____    ______ ____
ROOT
ATOM      1  C   UNL     1       6.714   4.714  16.762  0.00  0.00    +0.000 C 
ENDROOT
BRANCH   1   3
ATOM      2  O   UNL     1       7.788   6.843  17.139  0.00  0.00    +0.000 OA
ATOM      3  C   UNL     1       6.796   6.251  16.717  0.00  0.00    +0.000 C 
BRANCH   3   4
ATOM      4  O   UNL     1       5.748   6.939  16.237  0.00  0.00    +0.000 OA
ATOM      5  H   UNL     1       5.773   7.197  15.294  0.00  0.00    +0.000 HD
ENDBRANCH   3   4
ENDBRANCH   1   3
BRANCH   1   6
ATOM      6  N   UNL     1       6.481   4.269  18.150  0.00  0.00    +0.000 NA
ATOM      7  H   UNL     1       6.768   4.983  18.819  0.00  0.00    +0.000 HD
BRANCH   6   8
ATOM      8  P   UNL     1       4.782   3.909  18.540  0.00  0.00    +0.000 P 
ATOM      9  S   UNL     1       4.770   5.739  19.410  0.00  0.00    +0.000 S 
BRANCH   8  10
ATOM     10  C   UNL     1       3.036   3.538  18.941  0.00  0.00    +0.000 A 
ATOM     11  C   UNL     1       2.315   4.244  19.923  0.00  0.00    +0.000 A 
ATOM     12  C   UNL     1       0.986   3.925  20.201  0.00  0.00    +0.000 A 
ATOM     13  C   UNL     1       0.363   2.890  19.508  0.00  0.00    +0.000 A 
ATOM     14  C   UNL     1       1.065   2.173  18.540  0.00  0.00    +0.000 A 
ATOM     15  C   UNL     1       2.395   2.491  18.258  0.00  0.00    +0.000 A 
ENDBRANCH   8  10
BRANCH   8  16
ATOM     16  O   UNL     1       5.333   2.766  19.588  0.00  0.00    +0.000 OA
ATOM     17  H   UNL     1       6.234   2.464  19.368  0.00  0.00    +0.000 HD
ENDBRANCH   8  16
ENDBRANCH   6   8
ENDBRANCH   1   6
BRANCH   1  18
ATOM     18  C   UNL     1       5.788   4.042  15.726  0.00  0.00    +0.000 C 
BRANCH  18  19
ATOM     19  C   UNL     1       6.120   3.988  14.248  0.00  0.00    +0.000 A 
ATOM     20  C   UNL     1       5.399   3.261  13.290  0.00  0.00    +0.000 A 
ATOM     21  C   UNL     1       5.771   3.295  11.941  0.00  0.00    +0.000 A 
ATOM     22  C   UNL     1       6.875   4.039  11.528  0.00  0.00    +0.000 A 
ATOM     23  C   UNL     1       7.611   4.753  12.465  0.00  0.00    +0.000 A 
ATOM     24  C   UNL     1       7.234   4.728  13.809  0.00  0.00    +0.000 A 
ENDBRANCH  18  19
ENDBRANCH   1  18
TORSDOF 8
ENDMDL
MODEL 8
REMARK VINA RESULT:      -7.1      0.923      1.196
REMARK  Name = 
REMARK  8 active torsions:
REMARK  status: ('A' for Active; 'I' for Inactive)
REMARK    1  A    between atoms: C_2  and  O_3
REMARK    2  A    between atoms: C_2  and  C_4
REMARK    3  A    between atoms: C_4  and  C_5
REMARK    4  A    between atoms: C_4  and  N_12
REMARK    5  A    between atoms: C_5  and  C_6
REMARK    6  A    between atoms: N_12  and  P_13
REMARK    7  A    between atoms: P_13  and  O_14
REMARK    8  A    between atoms: P_13  and  C_16
REMARK                            x       y       z     vdW  Elec       q    Type
REMARK                         _______ _______ _______ _____ _____    ______ ____
ROOT
ATOM      1  C   UNL     1       6.748   4.780  16.795  0.00  0.00    +0.000 C 
ENDROOT
BRANCH   1   3
ATOM      2  O   UNL     1       5.721   6.917  16.338  0.00  0.00    +0.000 OA
ATOM      3  C   UNL     1       6.717   6.318  16.742  0.00  0.00    +0.000 C 
BRANCH   3   4
ATOM      4  O   UNL     1       7.813   6.999  17.115  0.00  0.00    +0.000 OA
ATOM      5  H   UNL     1       7.972   7.864  16.688  0.00  0.00    +0.000 HD
ENDBRANCH   3   4
ENDBRANCH   1   3
BRANCH   1   6
ATOM      6  N   UNL     1       6.488   4.324  18.174  0.00  0.00    +0.000 NA
ATOM      7  H   UNL     1       6.729   5.046  18.853  0.00  0.00    +0.000 HD
BRANCH   6   8
ATOM      8  P   UNL     1       4.790   3.906  18.511  0.00  0.00    +0.000 P 
ATOM      9  S   UNL     1       4.700   5.718  19.413  0.00  0.00    +0.000 S 
BRANCH   8  10
ATOM     10  C   UNL     1       3.046   3.475  18.856  0.00  0.00    +0.000 A 
ATOM     11  C   UNL     1       2.359   2.468  18.153  0.00  0.00    +0.000 A 
ATOM     12  C   UNL     1       1.026   2.175  18.444  0.00  0.00    +0.000 A 
ATOM     13  C   UNL     1       0.361   2.892  19.436  0.00  0.00    +0.000 A 
ATOM     14  C   UNL     1       1.023   3.900  20.136  0.00  0.00    +0.000 A 
ATOM     15  C   UNL     1       2.358   4.194  19.847  0.00  0.00    +0.000 A 
ENDBRANCH   8  10
BRANCH   8  16
ATOM     16  O   UNL     1       5.348   2.760  19.552  0.00  0.00    +0.000 OA
ATOM     17  H   UNL     1       6.049   2.210  19.157  0.00  0.00    +0.000 HD
ENDBRANCH   8  16
ENDBRANCH   6   8
ENDBRANCH   1   6
BRANCH   1  18
ATOM     18  C   UNL     1       5.923   4.037  15.724  0.00  0.00    +0.000 C 
BRANCH  18  19
ATOM     19  C   UNL     1       6.281   4.065  14.251  0.00  0.00    +0.000 A 
ATOM     20  C   UNL     1       7.313   4.830  13.691  0.00  0.00    +0.000 A 
ATOM     21  C   UNL     1       7.582   4.769  12.319  0.00  0.00    +0.000 A 
ATOM     22  C   UNL     1       6.818   3.959  11.482  0.00  0.00    +0.000 A 
ATOM     23  C   UNL     1       5.780   3.205  12.015  0.00  0.00    +0.000 A 
ATOM     24  C   UNL     1       5.519   3.258  13.386  0.00  0.00    +0.000 A 
ENDBRANCH  18  19
ENDBRANCH   1  18
TORSDOF 8
ENDMDL
MODEL 9
REMARK VINA RESULT:      -7.1      3.480      5.374
REMARK  Name = 
REMARK  8 active torsions:
REMARK  status: ('A' for Active; 'I' for Inactive)
REMARK    1  A    between atoms: C_2  and  O_3
REMARK    2  A    between atoms: C_2  and  C_4
REMARK    3  A    between atoms: C_4  and  C_5
REMARK    4  A    between atoms: C_4  and  N_12
REMARK    5  A    between atoms: C_5  and  C_6
REMARK    6  A    between atoms: N_12  and  P_13
REMARK    7  A    between atoms: P_13  and  O_14
REMARK    8  A    between atoms: P_13  and  C_16
REMARK                            x       y       z     vdW  Elec       q    Type
REMARK                         _______ _______ _______ _____ _____    ______ ____
ROOT
ATOM      1  C   UNL     1       3.841   3.783  17.796  0.00  0.00    +0.000 C 
ENDROOT
BRANCH   1   3
ATOM      2  O   UNL     1       2.069   2.159  17.561  0.00  0.00    +0.000 OA
ATOM      3  C   UNL     1       3.262   2.356  17.790  0.00  0.00    +0.000 C 
BRANCH   3   4
ATOM      4  O   UNL     1       4.078   1.329  18.072  0.00  0.00    +0.000 OA
ATOM      5  H   UNL     1       3.675   0.440  18.143  0.00  0.00    +0.000 HD
ENDBRANCH   3   4
ENDBRANCH   1   3
BRANCH   1   6
ATOM      6  N   UNL     1       3.727   4.361  19.148  0.00  0.00    +0.000 NA
ATOM      7  H   UNL     1       4.645   4.495  19.570  0.00  0.00    +0.000 HD
BRANCH   6   8
ATOM      8  P   UNL     1       2.939   5.956  19.212  0.00  0.00    +0.000 P 
ATOM      9  S   UNL     1       1.833   5.162  20.713  0.00  0.00    +0.000 S 
BRANCH   8  10
ATOM     10  C   UNL     1       2.129   7.595  19.276  0.00  0.00    +0.000 A 
ATOM     11  C   UNL     1       2.073   8.459  18.166  0.00  0.00    +0.000 A 
ATOM     12  C   UNL     1       1.451   9.704  18.259  0.00  0.00    +0.000 A 
ATOM     13  C   UNL     1       0.885  10.106  19.467  0.00  0.00    +0.000 A 
ATOM     14  C   UNL     1       0.940   9.267  20.580  0.00  0.00    +0.000 A 
ATOM     15  C   UNL     1       1.561   8.019  20.488  0.00  0.00    +0.000 A 
ENDBRANCH   8  10
BRANCH   8  16
ATOM     16  O   UNL     1       2.271   5.611  17.747  0.00  0.00    +0.000 OA
ATOM     17  H   UNL     1       2.098   4.659  17.634  0.00  0.00    +0.000 HD
ENDBRANCH   8  16
ENDBRANCH   6   8
ENDBRANCH   1   6
BRANCH   1  18
ATOM     18  C   UNL     1       5.231   3.966  17.152  0.00  0.00    +0.000 C 
BRANCH  18  19
ATOM     19  C   UNL     1       6.136   5.137  17.480  0.00  0.00    +0.000 A 
ATOM     20  C   UNL     1       6.084   6.390  16.854  0.00  0.00    +0.000 A 
ATOM     21  C   UNL     1       6.949   7.419  17.245  0.00  0.00    +0.000 A 
ATOM     22  C   UNL     1       7.887   7.212  18.254  0.00  0.00    +0.000 A 
ATOM     23  C   UNL     1       7.964   5.972  18.876  0.00  0.00    +0.000 A 
ATOM     24  C   UNL     1       7.095   4.949  18.493  0.00  0.00    +0.000 A 
ENDBRANCH  18  19
ENDBRANCH   1  18
TORSDOF 8
ENDMDL
