MODEL 1
REMARK VINA RESULT:      -7.6      0.000      0.000
REMARK  Name = 
REMARK  6 active torsions:
REMARK  status: ('A' for Active; 'I' for Inactive)
REMARK    1  A    between atoms: C_1  and  O_2
REMARK    2  A    between atoms: O_2  and  C_3
REMARK    3  A    between atoms: C_5  and  N_6
REMARK    4  A    between atoms: C_7  and  C_9
REMARK    5  A    between atoms: C_18  and  N_19
REMARK    6  A    between atoms: C_20  and  C_22
REMARK                            x       y       z     vdW  Elec       q    Type
REMARK                         _______ _______ _______ _____ _____    ______ ____
ROOT
ATOM      1  C   UNL     1      -0.075  10.275  20.026  0.00  0.00    +0.000 A 
ATOM      2  C   UNL     1       0.732   9.323  19.390  0.00  0.00    +0.000 A 
ATOM      3  C   UNL     1       1.487   8.398  20.107  0.00  0.00    +0.000 A 
ATOM      4  C   UNL     1       1.376   8.380  21.491  0.00  0.00    +0.000 A 
ATOM      5  C   UNL     1       0.535   9.291  22.142  0.00  0.00    +0.000 A 
ATOM      6  C   UNL     1      -0.201  10.247  21.426  0.00  0.00    +0.000 A 
ENDROOT
BRANCH   3   7
ATOM      7  N   UNL     1       2.348   7.469  19.481  0.00  0.00    +0.000 N 
ATOM      8  C   UNL     1       2.747   7.514  18.152  0.00  0.00    +0.000 C 
ATOM      9  O   UNL     1       2.495   8.427  17.370  0.00  0.00    +0.000 OA
ATOM     10  H   UNL     1       2.735   6.739  20.066  0.00  0.00    +0.000 HD
BRANCH   8  11
ATOM     11  C   UNL     1       3.605   6.423  17.641  0.00  0.00    +0.000 A 
ATOM     12  C   UNL     1       4.821   6.835  17.054  0.00  0.00    +0.000 A 
ATOM     13  C   UNL     1       5.672   5.918  16.441  0.00  0.00    +0.000 A 
ATOM     14  C   UNL     1       5.321   4.574  16.405  0.00  0.00    +0.000 A 
ATOM     15  C   UNL     1       4.127   4.148  16.991  0.00  0.00    +0.000 A 
ATOM     16  C   UNL     1       3.265   5.066  17.610  0.00  0.00    +0.000 A 
ATOM     17 CL   UNL     1       1.792   4.436  18.254  0.00  0.00    +0.000 Cl
ENDBRANCH   8  11
ENDBRANCH   3   7
BRANCH   6  18
ATOM     18  N   UNL     1      -1.091  11.149  22.062  0.00  0.00    +0.000 N 
ATOM     19  C   UNL     1      -0.811  12.445  22.475  0.00  0.00    +0.000 C 
ATOM     20  O   UNL     1       0.221  13.045  22.177  0.00  0.00    +0.000 OA
ATOM     21  H   UNL     1      -2.033  10.800  22.211  0.00  0.00    +0.000 HD
BRANCH  19  22
ATOM     22  C   UNL     1      -1.829  13.107  23.289  0.00  0.00    +0.000 A 
ATOM     23  C   UNL     1      -3.093  12.609  23.565  0.00  0.00    +0.000 A 
ATOM     24  C   UNL     1      -3.876  13.491  24.359  0.00  0.00    +0.000 A 
ATOM     25  C   UNL     1      -3.188  14.642  24.667  0.00  0.00    +0.000 A 
ATOM     26  S   UNL     1      -1.609  14.647  24.002  0.00  0.00    +0.000 S 
ENDBRANCH  19  22
ENDBRANCH   6  18
BRANCH   1  28
ATOM     27  C   UNL     1      -1.698  10.745  18.368  0.00  0.00    +0.000 C 
ATOM     28  O   UNL     1      -0.752  11.251  19.323  0.00  0.00    +0.000 OA
ENDBRANCH   1  28
TORSDOF 5
ENDMDL
MODEL 2
REMARK VINA RESULT:      -7.5      2.050      2.875
REMARK  Name = 
REMARK  6 active torsions:
REMARK  status: ('A' for Active; 'I' for Inactive)
REMARK    1  A    between atoms: C_1  and  O_2
REMARK    2  A    between atoms: O_2  and  C_3
REMARK    3  A    between atoms: C_5  and  N_6
REMARK    4  A    between atoms: C_7  and  C_9
REMARK    5  A    between atoms: C_18  and  N_19
REMARK    6  A    between atoms: C_20  and  C_22
REMARK                            x       y       z     vdW  Elec       q    Type
REMARK                         _______ _______ _______ _____ _____    ______ ____
ROOT
ATOM      1  C   UNL     1       1.107   8.646  20.226  0.00  0.00    +0.000 A 
ATOM      2  C   UNL     1       2.214   8.000  19.658  0.00  0.00    +0.000 A 
ATOM      3  C   UNL     1       2.587   8.204  18.332  0.00  0.00    +0.000 A 
ATOM      4  C   UNL     1       1.878   9.129  17.578  0.00  0.00    +0.000 A 
ATOM      5  C   UNL     1       0.799   9.821  18.142  0.00  0.00    +0.000 A 
ATOM      6  C   UNL     1       0.398   9.594  19.468  0.00  0.00    +0.000 A 
ENDROOT
BRANCH   3   7
ATOM      7  N   UNL     1       3.665   7.519  17.731  0.00  0.00    +0.000 N 
ATOM      8  C   UNL     1       3.784   6.139  17.633  0.00  0.00    +0.000 C 
ATOM      9  O   UNL     1       2.917   5.331  17.955  0.00  0.00    +0.000 OA
ATOM     10  H   UNL     1       4.385   8.087  17.302  0.00  0.00    +0.000 HD
BRANCH   8  11
ATOM     11  C   UNL     1       5.014   5.583  17.025  0.00  0.00    +0.000 A 
ATOM     12  C   UNL     1       4.951   5.355  15.634  0.00  0.00    +0.000 A 
ATOM     13  C   UNL     1       6.001   4.739  14.957  0.00  0.00    +0.000 A 
ATOM     14  C   UNL     1       7.130   4.341  15.660  0.00  0.00    +0.000 A 
ATOM     15  C   UNL     1       7.213   4.569  17.036  0.00  0.00    +0.000 A 
ATOM     16  C   UNL     1       6.160   5.188  17.724  0.00  0.00    +0.000 A 
ATOM     17 CL   UNL     1       6.349   5.371  19.430  0.00  0.00    +0.000 Cl
ENDBRANCH   8  11
ENDBRANCH   3   7
BRANCH   6  18
ATOM     18  N   UNL     1      -0.662  10.316  20.072  0.00  0.00    +0.000 N 
ATOM     19  C   UNL     1      -0.599  11.596  20.608  0.00  0.00    +0.000 C 
ATOM     20  O   UNL     1       0.365  12.346  20.466  0.00  0.00    +0.000 OA
ATOM     21  H   UNL     1      -1.558   9.839  20.095  0.00  0.00    +0.000 HD
BRANCH  19  22
ATOM     22  C   UNL     1      -1.770  12.049  21.358  0.00  0.00    +0.000 A 
ATOM     23  C   UNL     1      -2.875  12.689  20.822  0.00  0.00    +0.000 A 
ATOM     24  C   UNL     1      -3.843  13.040  21.801  0.00  0.00    +0.000 A 
ATOM     25  C   UNL     1      -3.449  12.659  23.064  0.00  0.00    +0.000 A 
ATOM     26  S   UNL     1      -1.922  11.881  23.054  0.00  0.00    +0.000 S 
ENDBRANCH  19  22
ENDBRANCH   6  18
BRANCH   1  28
ATOM     27  C   UNL     1       1.347   9.138  22.528  0.00  0.00    +0.000 C 
ATOM     28  O   UNL     1       0.679   8.377  21.510  0.00  0.00    +0.000 OA
ENDBRANCH   1  28
TORSDOF 5
ENDMDL
MODEL 3
REMARK VINA RESULT:      -7.3      1.701      2.445
REMARK  Name = 
REMARK  6 active torsions:
REMARK  status: ('A' for Active; 'I' for Inactive)
REMARK    1  A    between atoms: C_1  and  O_2
REMARK    2  A    between atoms: O_2  and  C_3
REMARK    3  A    between atoms: C_5  and  N_6
REMARK    4  A    between atoms: C_7  and  C_9
REMARK    5  A    between atoms: C_18  and  N_19
REMARK    6  A    between atoms: C_20  and  C_22
REMARK                            x       y       z     vdW  Elec       q    Type
REMARK                         _______ _______ _______ _____ _____    ______ ____
ROOT
ATOM      1  C   UNL     1       0.876   8.857  20.482  0.00  0.00    +0.000 A 
ATOM      2  C   UNL     1       1.925   8.144  19.887  0.00  0.00    +0.000 A 
ATOM      3  C   UNL     1       2.259   8.308  18.545  0.00  0.00    +0.000 A 
ATOM      4  C   UNL     1       1.572   9.257  17.800  0.00  0.00    +0.000 A 
ATOM      5  C   UNL     1       0.553  10.014  18.391  0.00  0.00    +0.000 A 
ATOM      6  C   UNL     1       0.190   9.830  19.734  0.00  0.00    +0.000 A 
ENDROOT
BRANCH   3   7
ATOM      7  N   UNL     1       3.277   7.556  17.917  0.00  0.00    +0.000 N 
ATOM      8  C   UNL     1       3.241   6.186  17.692  0.00  0.00    +0.000 C 
ATOM      9  O   UNL     1       2.274   5.461  17.907  0.00  0.00    +0.000 OA
ATOM     10  H   UNL     1       4.076   8.072  17.567  0.00  0.00    +0.000 HD
BRANCH   8  11
ATOM     11  C   UNL     1       4.424   5.546  17.075  0.00  0.00    +0.000 A 
ATOM     12  C   UNL     1       4.948   6.208  15.944  0.00  0.00    +0.000 A 
ATOM     13  C   UNL     1       5.995   5.657  15.208  0.00  0.00    +0.000 A 
ATOM     14  C   UNL     1       6.534   4.435  15.592  0.00  0.00    +0.000 A 
ATOM     15  C   UNL     1       6.034   3.773  16.715  0.00  0.00    +0.000 A 
ATOM     16  C   UNL     1       4.980   4.322  17.461  0.00  0.00    +0.000 A 
ATOM     17 CL   UNL     1       4.408   3.391  18.798  0.00  0.00    +0.000 Cl
ENDBRANCH   8  11
ENDBRANCH   3   7
BRANCH   6  18
ATOM     18  N   UNL     1      -0.807  10.616  20.363  0.00  0.00    +0.000 N 
ATOM     19  C   UNL     1      -0.603  11.694  21.215  0.00  0.00    +0.000 C 
ATOM     20  O   UNL     1       0.494  12.219  21.398  0.00  0.00    +0.000 OA
ATOM     21  H   UNL     1      -1.765  10.361  20.147  0.00  0.00    +0.000 HD
BRANCH  19  22
ATOM     22  C   UNL     1      -1.784  12.218  21.901  0.00  0.00    +0.000 A 
ATOM     23  C   UNL     1      -2.216  11.847  23.164  0.00  0.00    +0.000 A 
ATOM     24  C   UNL     1      -3.415  12.503  23.556  0.00  0.00    +0.000 A 
ATOM     25  C   UNL     1      -3.868  13.358  22.577  0.00  0.00    +0.000 A 
ATOM     26  S   UNL     1      -2.846  13.364  21.202  0.00  0.00    +0.000 S 
ENDBRANCH  19  22
ENDBRANCH   6  18
BRANCH   1  28
ATOM     27  C   UNL     1       1.395   9.133  22.775  0.00  0.00    +0.000 C 
ATOM     28  O   UNL     1       0.483   8.631  21.786  0.00  0.00    +0.000 OA
ENDBRANCH   1  28
TORSDOF 5
ENDMDL
MODEL 4
REMARK VINA RESULT:      -7.2      1.165      1.317
REMARK  Name = 
REMARK  6 active torsions:
REMARK  status: ('A' for Active; 'I' for Inactive)
REMARK    1  A    between atoms: C_1  and  O_2
REMARK    2  A    between atoms: O_2  and  C_3
REMARK    3  A    between atoms: C_5  and  N_6
REMARK    4  A    between atoms: C_7  and  C_9
REMARK    5  A    between atoms: C_18  and  N_19
REMARK    6  A    between atoms: C_20  and  C_22
REMARK                            x       y       z     vdW  Elec       q    Type
REMARK                         _______ _______ _______ _____ _____    ______ ____
ROOT
ATOM      1  C   UNL     1       0.129  10.650  19.163  0.00  0.00    +0.000 A 
ATOM      2  C   UNL     1       0.883   9.752  18.396  0.00  0.00    +0.000 A 
ATOM      3  C   UNL     1       1.601   8.709  18.976  0.00  0.00    +0.000 A 
ATOM      4  C   UNL     1       1.507   8.520  20.348  0.00  0.00    +0.000 A 
ATOM      5  C   UNL     1       0.719   9.378  21.126  0.00  0.00    +0.000 A 
ATOM      6  C   UNL     1       0.020  10.450  20.550  0.00  0.00    +0.000 A 
ENDROOT
BRANCH   3   7
ATOM      7  N   UNL     1       2.409   7.830  18.222  0.00  0.00    +0.000 N 
ATOM      8  C   UNL     1       2.947   6.637  18.686  0.00  0.00    +0.000 C 
ATOM      9  O   UNL     1       2.704   6.130  19.778  0.00  0.00    +0.000 OA
ATOM     10  H   UNL     1       2.569   8.074  17.252  0.00  0.00    +0.000 HD
BRANCH   8  11
ATOM     11  C   UNL     1       3.826   5.865  17.779  0.00  0.00    +0.000 A 
ATOM     12  C   UNL     1       4.913   6.584  17.235  0.00  0.00    +0.000 A 
ATOM     13  C   UNL     1       5.755   6.007  16.287  0.00  0.00    +0.000 A 
ATOM     14  C   UNL     1       5.524   4.703  15.868  0.00  0.00    +0.000 A 
ATOM     15  C   UNL     1       4.460   3.974  16.404  0.00  0.00    +0.000 A 
ATOM     16  C   UNL     1       3.608   4.549  17.359  0.00  0.00    +0.000 A 
ATOM     17 CL   UNL     1       2.294   3.575  17.914  0.00  0.00    +0.000 Cl
ENDBRANCH   8  11
ENDBRANCH   3   7
BRANCH   6  18
ATOM     18  N   UNL     1      -0.818  11.303  21.312  0.00  0.00    +0.000 N 
ATOM     19  C   UNL     1      -0.445  12.467  21.970  0.00  0.00    +0.000 C 
ATOM     20  O   UNL     1       0.651  13.007  21.828  0.00  0.00    +0.000 OA
ATOM     21  H   UNL     1      -1.794  11.027  21.359  0.00  0.00    +0.000 HD
BRANCH  19  22
ATOM     22  C   UNL     1      -1.442  13.065  22.858  0.00  0.00    +0.000 A 
ATOM     23  C   UNL     1      -1.274  14.226  23.596  0.00  0.00    +0.000 A 
ATOM     24  C   UNL     1      -2.406  14.545  24.394  0.00  0.00    +0.000 A 
ATOM     25  C   UNL     1      -3.410  13.616  24.244  0.00  0.00    +0.000 A 
ATOM     26  S   UNL     1      -2.981  12.374  23.145  0.00  0.00    +0.000 S 
ENDBRANCH  19  22
ENDBRANCH   6  18
BRANCH   1  28
ATOM     27  C   UNL     1      -1.715  11.416  17.893  0.00  0.00    +0.000 C 
ATOM     28  O   UNL     1      -0.509  11.738  18.602  0.00  0.00    +0.000 OA
ENDBRANCH   1  28
TORSDOF 5
ENDMDL
MODEL 5
REMARK VINA RESULT:      -7.2      1.232      1.249
REMARK  Name = 
REMARK  6 active torsions:
REMARK  status: ('A' for Active; 'I' for Inactive)
REMARK    1  A    between atoms: C_1  and  O_2
REMARK    2  A    between atoms: O_2  and  C_3
REMARK    3  A    between atoms: C_5  and  N_6
REMARK    4  A    between atoms: C_7  and  C_9
REMARK    5  A    between atoms: C_18  and  N_19
REMARK    6  A    between atoms: C_20  and  C_22
REMARK                            x       y       z     vdW  Elec       q    Type
REMARK                         _______ _______ _______ _____ _____    ______ ____
ROOT
ATOM      1  C   UNL     1      -0.150  10.603  19.982  0.00  0.00    +0.000 A 
ATOM      2  C   UNL     1       0.636   9.637  19.339  0.00  0.00    +0.000 A 
ATOM      3  C   UNL     1       1.357   8.681  20.050  0.00  0.00    +0.000 A 
ATOM      4  C   UNL     1       1.232   8.647  21.432  0.00  0.00    +0.000 A 
ATOM      5  C   UNL     1       0.411   9.572  22.089  0.00  0.00    +0.000 A 
ATOM      6  C   UNL     1      -0.290  10.559  21.380  0.00  0.00    +0.000 A 
ENDROOT
BRANCH   3   7
ATOM      7  N   UNL     1       2.197   7.737  19.419  0.00  0.00    +0.000 N 
ATOM      8  C   UNL     1       2.290   6.393  19.756  0.00  0.00    +0.000 C 
ATOM      9  O   UNL     1       1.575   5.819  20.573  0.00  0.00    +0.000 OA
ATOM     10  H   UNL     1       2.740   8.065  18.630  0.00  0.00    +0.000 HD
BRANCH   8  11
ATOM     11  C   UNL     1       3.271   5.556  19.030  0.00  0.00    +0.000 A 
ATOM     12  C   UNL     1       4.627   5.861  19.278  0.00  0.00    +0.000 A 
ATOM     13  C   UNL     1       5.648   5.220  18.582  0.00  0.00    +0.000 A 
ATOM     14  C   UNL     1       5.330   4.263  17.626  0.00  0.00    +0.000 A 
ATOM     15  C   UNL     1       3.995   3.941  17.376  0.00  0.00    +0.000 A 
ATOM     16  C   UNL     1       2.961   4.583  18.074  0.00  0.00    +0.000 A 
ATOM     17 CL   UNL     1       1.346   4.145  17.646  0.00  0.00    +0.000 Cl
ENDBRANCH   8  11
ENDBRANCH   3   7
BRANCH   6  18
ATOM     18  N   UNL     1      -1.161  11.476  22.021  0.00  0.00    +0.000 N 
ATOM     19  C   UNL     1      -0.833  12.736  22.506  0.00  0.00    +0.000 C 
ATOM     20  O   UNL     1       0.239  13.294  22.279  0.00  0.00    +0.000 OA
ATOM     21  H   UNL     1      -2.125  11.172  22.114  0.00  0.00    +0.000 HD
BRANCH  19  22
ATOM     22  C   UNL     1      -1.851  13.413  23.308  0.00  0.00    +0.000 A 
ATOM     23  C   UNL     1      -3.088  12.891  23.653  0.00  0.00    +0.000 A 
ATOM     24  C   UNL     1      -3.879  13.794  24.414  0.00  0.00    +0.000 A 
ATOM     25  C   UNL     1      -3.225  14.985  24.628  0.00  0.00    +0.000 A 
ATOM     26  S   UNL     1      -1.667  15.002  23.915  0.00  0.00    +0.000 S 
ENDBRANCH  19  22
ENDBRANCH   6  18
BRANCH   1  28
ATOM     27  C   UNL     1      -1.743  11.143  18.317  0.00  0.00    +0.000 C 
ATOM     28  O   UNL     1      -0.792  11.608  19.287  0.00  0.00    +0.000 OA
ENDBRANCH   1  28
TORSDOF 5
ENDMDL
MODEL 6
REMARK VINA RESULT:      -7.2      1.459      1.552
REMARK  Name = 
REMARK  6 active torsions:
REMARK  status: ('A' for Active; 'I' for Inactive)
REMARK    1  A    between atoms: C_1  and  O_2
REMARK    2  A    between atoms: O_2  and  C_3
REMARK    3  A    between atoms: C_5  and  N_6
REMARK    4  A    between atoms: C_7  and  C_9
REMARK    5  A    between atoms: C_18  and  N_19
REMARK    6  A    between atoms: C_20  and  C_22
REMARK                            x       y       z     vdW  Elec       q    Type
REMARK                         _______ _______ _______ _____ _____    ______ ____
ROOT
ATOM      1  C   UNL     1       0.787  10.959  19.122  0.00  0.00    +0.000 A 
ATOM      2  C   UNL     1       1.454  10.023  18.321  0.00  0.00    +0.000 A 
ATOM      3  C   UNL     1       1.773   8.749  18.785  0.00  0.00    +0.000 A 
ATOM      4  C   UNL     1       1.353   8.381  20.056  0.00  0.00    +0.000 A 
ATOM      5  C   UNL     1       0.641   9.286  20.853  0.00  0.00    +0.000 A 
ATOM      6  C   UNL     1       0.346  10.582  20.402  0.00  0.00    +0.000 A 
ENDROOT
BRANCH   3   7
ATOM      7  N   UNL     1       2.494   7.815  18.009  0.00  0.00    +0.000 N 
ATOM      8  C   UNL     1       3.160   6.702  18.507  0.00  0.00    +0.000 C 
ATOM      9  O   UNL     1       3.120   6.318  19.672  0.00  0.00    +0.000 OA
ATOM     10  H   UNL     1       2.485   7.950  17.006  0.00  0.00    +0.000 HD
BRANCH   8  11
ATOM     11  C   UNL     1       3.921   5.860  17.557  0.00  0.00    +0.000 A 
ATOM     12  C   UNL     1       4.809   6.556  16.709  0.00  0.00    +0.000 A 
ATOM     13  C   UNL     1       5.507   5.897  15.700  0.00  0.00    +0.000 A 
ATOM     14  C   UNL     1       5.329   4.530  15.524  0.00  0.00    +0.000 A 
ATOM     15  C   UNL     1       4.463   3.824  16.362  0.00  0.00    +0.000 A 
ATOM     16  C   UNL     1       3.756   4.482  17.379  0.00  0.00    +0.000 A 
ATOM     17 CL   UNL     1       2.674   3.520  18.320  0.00  0.00    +0.000 Cl
ENDBRANCH   8  11
ENDBRANCH   3   7
BRANCH   6  18
ATOM     18  N   UNL     1      -0.411  11.497  21.175  0.00  0.00    +0.000 N 
ATOM     19  C   UNL     1      -0.700  11.405  22.530  0.00  0.00    +0.000 C 
ATOM     20  O   UNL     1      -0.176  10.585  23.283  0.00  0.00    +0.000 OA
ATOM     21  H   UNL     1      -0.761  12.308  20.673  0.00  0.00    +0.000 HD
BRANCH  19  22
ATOM     22  C   UNL     1      -1.669  12.364  23.060  0.00  0.00    +0.000 A 
ATOM     23  C   UNL     1      -2.997  12.094  23.348  0.00  0.00    +0.000 A 
ATOM     24  C   UNL     1      -3.705  13.233  23.821  0.00  0.00    +0.000 A 
ATOM     25  C   UNL     1      -2.896  14.345  23.878  0.00  0.00    +0.000 A 
ATOM     26  S   UNL     1      -1.297  14.005  23.367  0.00  0.00    +0.000 S 
ENDBRANCH  19  22
ENDBRANCH   6  18
BRANCH   1  28
ATOM     27  C   UNL     1       1.737  13.035  18.498  0.00  0.00    +0.000 C 
ATOM     28  O   UNL     1       0.550  12.251  18.698  0.00  0.00    +0.000 OA
ENDBRANCH   1  28
TORSDOF 5
ENDMDL
MODEL 7
REMARK VINA RESULT:      -7.1      0.956      1.038
REMARK  Name = 
REMARK  6 active torsions:
REMARK  status: ('A' for Active; 'I' for Inactive)
REMARK    1  A    between atoms: C_1  and  O_2
REMARK    2  A    between atoms: O_2  and  C_3
REMARK    3  A    between atoms: C_5  and  N_6
REMARK    4  A    between atoms: C_7  and  C_9
REMARK    5  A    between atoms: C_18  and  N_19
REMARK    6  A    between atoms: C_20  and  C_22
REMARK                            x       y       z     vdW  Elec       q    Type
REMARK                         _______ _______ _______ _____ _____    ______ ____
ROOT
ATOM      1  C   UNL     1      -0.303  10.826  20.578  0.00  0.00    +0.000 A 
ATOM      2  C   UNL     1       0.449   9.785  20.016  0.00  0.00    +0.000 A 
ATOM      3  C   UNL     1       1.107   8.843  20.802  0.00  0.00    +0.000 A 
ATOM      4  C   UNL     1       0.952   8.903  22.180  0.00  0.00    +0.000 A 
ATOM      5  C   UNL     1       0.165   9.907  22.758  0.00  0.00    +0.000 A 
ATOM      6  C   UNL     1      -0.473  10.879  21.972  0.00  0.00    +0.000 A 
ENDROOT
BRANCH   3   7
ATOM      7  N   UNL     1       1.912   7.822  20.251  0.00  0.00    +0.000 N 
ATOM      8  C   UNL     1       2.212   7.676  18.903  0.00  0.00    +0.000 C 
ATOM      9  O   UNL     1       1.911   8.476  18.022  0.00  0.00    +0.000 OA
ATOM     10  H   UNL     1       2.336   7.173  20.903  0.00  0.00    +0.000 HD
BRANCH   8  11
ATOM     11  C   UNL     1       3.023   6.509  18.489  0.00  0.00    +0.000 A 
ATOM     12  C   UNL     1       4.028   6.779  17.536  0.00  0.00    +0.000 A 
ATOM     13  C   UNL     1       4.792   5.753  16.984  0.00  0.00    +0.000 A 
ATOM     14  C   UNL     1       4.562   4.440  17.376  0.00  0.00    +0.000 A 
ATOM     15  C   UNL     1       3.579   4.157  18.326  0.00  0.00    +0.000 A 
ATOM     16  C   UNL     1       2.806   5.185  18.886  0.00  0.00    +0.000 A 
ATOM     17 CL   UNL     1       1.584   4.713  20.011  0.00  0.00    +0.000 Cl
ENDBRANCH   8  11
ENDBRANCH   3   7
BRANCH   6  18
ATOM     18  N   UNL     1      -1.310  11.876  22.533  0.00  0.00    +0.000 N 
ATOM     19  C   UNL     1      -0.942  13.164  22.898  0.00  0.00    +0.000 C 
ATOM     20  O   UNL     1       0.144  13.668  22.613  0.00  0.00    +0.000 OA
ATOM     21  H   UNL     1      -2.281  11.609  22.662  0.00  0.00    +0.000 HD
BRANCH  19  22
ATOM     22  C   UNL     1      -1.931  13.941  23.643  0.00  0.00    +0.000 A 
ATOM     23  C   UNL     1      -3.307  13.795  23.556  0.00  0.00    +0.000 A 
ATOM     24  C   UNL     1      -4.016  14.713  24.377  0.00  0.00    +0.000 A 
ATOM     25  C   UNL     1      -3.161  15.540  25.069  0.00  0.00    +0.000 A 
ATOM     26  S   UNL     1      -1.517  15.200  24.727  0.00  0.00    +0.000 S 
ENDBRANCH  19  22
ENDBRANCH   6  18
BRANCH   1  28
ATOM     27  C   UNL     1      -1.926  11.352  18.938  0.00  0.00    +0.000 C 
ATOM     28  O   UNL     1      -0.880  11.814  19.806  0.00  0.00    +0.000 OA
ENDBRANCH   1  28
TORSDOF 5
ENDMDL
MODEL 8
REMARK VINA RESULT:      -7.1      3.519      4.398
REMARK  Name = 
REMARK  6 active torsions:
REMARK  status: ('A' for Active; 'I' for Inactive)
REMARK    1  A    between atoms: C_1  and  O_2
REMARK    2  A    between atoms: O_2  and  C_3
REMARK    3  A    between atoms: C_5  and  N_6
REMARK    4  A    between atoms: C_7  and  C_9
REMARK    5  A    between atoms: C_18  and  N_19
REMARK    6  A    between atoms: C_20  and  C_22
REMARK                            x       y       z     vdW  Elec       q    Type
REMARK                         _______ _______ _______ _____ _____    ______ ____
ROOT
ATOM      1  C   UNL     1       0.818  10.830  20.851  0.00  0.00    +0.000 A 
ATOM      2  C   UNL     1       1.143   9.502  21.158  0.00  0.00    +0.000 A 
ATOM      3  C   UNL     1       1.474   8.577  20.171  0.00  0.00    +0.000 A 
ATOM      4  C   UNL     1       1.548   9.009  18.853  0.00  0.00    +0.000 A 
ATOM      5  C   UNL     1       1.274  10.345  18.533  0.00  0.00    +0.000 A 
ATOM      6  C   UNL     1       0.908  11.273  19.520  0.00  0.00    +0.000 A 
ENDROOT
BRANCH   3   7
ATOM      7  N   UNL     1       1.750   7.222  20.459  0.00  0.00    +0.000 N 
ATOM      8  C   UNL     1       2.227   6.289  19.548  0.00  0.00    +0.000 C 
ATOM      9  O   UNL     1       2.579   6.540  18.399  0.00  0.00    +0.000 OA
ATOM     10  H   UNL     1       1.628   6.926  21.420  0.00  0.00    +0.000 HD
BRANCH   8  11
ATOM     11  C   UNL     1       2.403   4.892  20.005  0.00  0.00    +0.000 A 
ATOM     12  C   UNL     1       1.291   4.328  20.667  0.00  0.00    +0.000 A 
ATOM     13  C   UNL     1       1.360   3.060  21.238  0.00  0.00    +0.000 A 
ATOM     14  C   UNL     1       2.542   2.335  21.156  0.00  0.00    +0.000 A 
ATOM     15  C   UNL     1       3.648   2.873  20.495  0.00  0.00    +0.000 A 
ATOM     16  C   UNL     1       3.586   4.150  19.918  0.00  0.00    +0.000 A 
ATOM     17 CL   UNL     1       5.028   4.737  19.173  0.00  0.00    +0.000 Cl
ENDBRANCH   8  11
ENDBRANCH   3   7
BRANCH   6  18
ATOM     18  N   UNL     1       0.671  12.638  19.224  0.00  0.00    +0.000 N 
ATOM     19  C   UNL     1       1.625  13.634  19.063  0.00  0.00    +0.000 C 
ATOM     20  O   UNL     1       2.833  13.413  18.987  0.00  0.00    +0.000 OA
ATOM     21  H   UNL     1      -0.304  12.897  19.105  0.00  0.00    +0.000 HD
BRANCH  19  22
ATOM     22  C   UNL     1       1.129  15.006  18.963  0.00  0.00    +0.000 A 
ATOM     23  C   UNL     1      -0.204  15.381  18.897  0.00  0.00    +0.000 A 
ATOM     24  C   UNL     1      -0.380  16.786  18.773  0.00  0.00    +0.000 A 
ATOM     25  C   UNL     1       0.826  17.448  18.745  0.00  0.00    +0.000 A 
ATOM     26  S   UNL     1       2.155  16.373  18.872  0.00  0.00    +0.000 S 
ENDBRANCH  19  22
ENDBRANCH   6  18
BRANCH   1  28
ATOM     27  C   UNL     1      -0.741  11.291  22.571  0.00  0.00    +0.000 C 
ATOM     28  O   UNL     1       0.401  11.725  21.816  0.00  0.00    +0.000 OA
ENDBRANCH   1  28
TORSDOF 5
ENDMDL
MODEL 9
REMARK VINA RESULT:      -7.0      1.650      2.026
REMARK  Name = 
REMARK  6 active torsions:
REMARK  status: ('A' for Active; 'I' for Inactive)
REMARK    1  A    between atoms: C_1  and  O_2
REMARK    2  A    between atoms: O_2  and  C_3
REMARK    3  A    between atoms: C_5  and  N_6
REMARK    4  A    between atoms: C_7  and  C_9
REMARK    5  A    between atoms: C_18  and  N_19
REMARK    6  A    between atoms: C_20  and  C_22
REMARK                            x       y       z     vdW  Elec       q    Type
REMARK                         _______ _______ _______ _____ _____    ______ ____
ROOT
ATOM      1  C   UNL     1       0.387  10.071  18.837  0.00  0.00    +0.000 A 
ATOM      2  C   UNL     1       1.184   9.219  18.060  0.00  0.00    +0.000 A 
ATOM      3  C   UNL     1       1.996   8.243  18.633  0.00  0.00    +0.000 A 
ATOM      4  C   UNL     1       1.957   8.071  20.010  0.00  0.00    +0.000 A 
ATOM      5  C   UNL     1       1.129   8.879  20.798  0.00  0.00    +0.000 A 
ATOM      6  C   UNL     1       0.334   9.886  20.229  0.00  0.00    +0.000 A 
ENDROOT
BRANCH   3   7
ATOM      7  N   UNL     1       2.846   7.415  17.867  0.00  0.00    +0.000 N 
ATOM      8  C   UNL     1       3.627   6.382  18.370  0.00  0.00    +0.000 C 
ATOM      9  O   UNL     1       3.600   5.977  19.529  0.00  0.00    +0.000 OA
ATOM     10  H   UNL     1       2.848   7.565  16.866  0.00  0.00    +0.000 HD
BRANCH   8  11
ATOM     11  C   UNL     1       4.510   5.653  17.433  0.00  0.00    +0.000 A 
ATOM     12  C   UNL     1       4.062   4.368  17.057  0.00  0.00    +0.000 A 
ATOM     13  C   UNL     1       4.849   3.535  16.265  0.00  0.00    +0.000 A 
ATOM     14  C   UNL     1       6.096   3.973  15.836  0.00  0.00    +0.000 A 
ATOM     15  C   UNL     1       6.549   5.245  16.191  0.00  0.00    +0.000 A 
ATOM     16  C   UNL     1       5.762   6.090  16.988  0.00  0.00    +0.000 A 
ATOM     17 CL   UNL     1       6.445   7.619  17.408  0.00  0.00    +0.000 Cl
ENDBRANCH   8  11
ENDBRANCH   3   7
BRANCH   6  18
ATOM     18  N   UNL     1      -0.544  10.685  21.004  0.00  0.00    +0.000 N 
ATOM     19  C   UNL     1      -0.222  11.845  21.697  0.00  0.00    +0.000 C 
ATOM     20  O   UNL     1       0.853  12.430  21.580  0.00  0.00    +0.000 OA
ATOM     21  H   UNL     1      -1.509  10.371  21.033  0.00  0.00    +0.000 HD
BRANCH  19  22
ATOM     22  C   UNL     1      -1.250  12.381  22.589  0.00  0.00    +0.000 A 
ATOM     23  C   UNL     1      -2.361  11.691  23.048  0.00  0.00    +0.000 A 
ATOM     24  C   UNL     1      -3.202  12.482  23.877  0.00  0.00    +0.000 A 
ATOM     25  C   UNL     1      -2.710  13.759  24.027  0.00  0.00    +0.000 A 
ATOM     26  S   UNL     1      -1.243  13.989  23.172  0.00  0.00    +0.000 S 
ENDBRANCH  19  22
ENDBRANCH   6  18
BRANCH   1  28
ATOM     27  C   UNL     1      -1.553  10.675  17.624  0.00  0.00    +0.000 C 
ATOM     28  O   UNL     1      -0.348  11.097  18.280  0.00  0.00    +0.000 OA
ENDBRANCH   1  28
TORSDOF 5
ENDMDL
