MODEL 1
REMARK VINA RESULT:      -7.7      0.000      0.000
REMARK  Name = 
REMARK  9 active torsions:
REMARK  status: ('A' for Active; 'I' for Inactive)
REMARK    1  A    between atoms: C_1  and  O_2
REMARK    2  A    between atoms: O_2  and  C_3
REMARK    3  A    between atoms: C_7  and  C_8
REMARK    4  A    between atoms: N_10  and  C_11
REMARK    5  A    between atoms: C_11  and  C_12
REMARK    6  A    between atoms: C_17  and  S_18
REMARK    7  A    between atoms: S_18  and  N_21
REMARK    8  A    between atoms: N_21  and  C_22
REMARK    9  A    between atoms: N_21  and  C_23
REMARK                            x       y       z     vdW  Elec       q    Type
REMARK                         _______ _______ _______ _____ _____    ______ ____
ROOT
ATOM      1  C   UNL     1       5.816   4.532  17.875  0.00  0.00    +0.000 C 
ENDROOT
BRANCH   1   2
ATOM      2  C   UNL     1       4.534   5.281  18.181  0.00  0.00    +0.000 A 
ATOM      3  C   UNL     1       4.475   6.657  17.847  0.00  0.00    +0.000 A 
ATOM      4  C   UNL     1       3.361   7.449  18.133  0.00  0.00    +0.000 A 
ATOM      5  C   UNL     1       2.272   6.894  18.782  0.00  0.00    +0.000 A 
ATOM      6  C   UNL     1       2.301   5.549  19.145  0.00  0.00    +0.000 A 
ATOM      7  C   UNL     1       3.425   4.738  18.871  0.00  0.00    +0.000 A 
BRANCH   7   8
ATOM      8  S   UNL     1       3.239   3.004  19.327  0.00  0.00    +0.000 S 
ATOM      9  O   UNL     1       3.304   2.242  18.095  0.00  0.00    +0.000 OA
ATOM     10  O   UNL     1       4.157   2.699  20.401  0.00  0.00    +0.000 OA
BRANCH   8  11
ATOM     11  N   UNL     1       1.652   2.875  19.913  0.00  0.00    +0.000 NA
ATOM     12  C   UNL     1       0.638   2.228  19.074  0.00  0.00    +0.000 C 
ATOM     13  C   UNL     1       1.474   2.598  21.348  0.00  0.00    +0.000 C 
ENDBRANCH   8  11
ENDBRANCH   7   8
ENDBRANCH   1   2
BRANCH   1  16
ATOM     14  C   UNL     1       6.760   5.003  15.637  0.00  0.00    +0.000 C 
ATOM     15  O   UNL     1       7.382   5.985  16.033  0.00  0.00    +0.000 OA
ATOM     16  N   UNL     1       5.974   4.226  16.460  0.00  0.00    +0.000 N 
ATOM     17  H   UNL     1       5.626   3.333  16.134  0.00  0.00    +0.000 HD
BRANCH  14  22
ATOM     18  C   UNL     1       6.034   3.385  12.281  0.00  0.00    +0.000 A 
ATOM     19  C   UNL     1       6.979   4.037  11.483  0.00  0.00    +0.000 A 
ATOM     20  C   UNL     1       7.853   4.975  12.036  0.00  0.00    +0.000 A 
ATOM     21  C   UNL     1       7.783   5.267  13.396  0.00  0.00    +0.000 A 
ATOM     22  C   UNL     1       6.844   4.616  14.206  0.00  0.00    +0.000 A 
ATOM     23  C   UNL     1       5.964   3.682  13.647  0.00  0.00    +0.000 A 
BRANCH  18  25
ATOM     24  C   UNL     1       3.999   2.988  11.119  0.00  0.00    +0.000 C 
ATOM     25  O   UNL     1       5.238   2.492  11.619  0.00  0.00    +0.000 OA
ENDBRANCH  18  25
ENDBRANCH  14  22
ENDBRANCH   1  16
TORSDOF 6
ENDMDL
MODEL 2
REMARK VINA RESULT:      -7.7      1.292      1.367
REMARK  Name = 
REMARK  9 active torsions:
REMARK  status: ('A' for Active; 'I' for Inactive)
REMARK    1  A    between atoms: C_1  and  O_2
REMARK    2  A    between atoms: O_2  and  C_3
REMARK    3  A    between atoms: C_7  and  C_8
REMARK    4  A    between atoms: N_10  and  C_11
REMARK    5  A    between atoms: C_11  and  C_12
REMARK    6  A    between atoms: C_17  and  S_18
REMARK    7  A    between atoms: S_18  and  N_21
REMARK    8  A    between atoms: N_21  and  C_22
REMARK    9  A    between atoms: N_21  and  C_23
REMARK                            x       y       z     vdW  Elec       q    Type
REMARK                         _______ _______ _______ _____ _____    ______ ____
ROOT
ATOM      1  C   UNL     1       5.743   6.733  17.159  0.00  0.00    +0.000 C 
ENDROOT
BRANCH   1   2
ATOM      2  C   UNL     1       4.329   6.676  17.703  0.00  0.00    +0.000 A 
ATOM      3  C   UNL     1       3.561   7.866  17.677  0.00  0.00    +0.000 A 
ATOM      4  C   UNL     1       2.268   7.933  18.201  0.00  0.00    +0.000 A 
ATOM      5  C   UNL     1       1.705   6.812  18.786  0.00  0.00    +0.000 A 
ATOM      6  C   UNL     1       2.438   5.629  18.850  0.00  0.00    +0.000 A 
ATOM      7  C   UNL     1       3.751   5.549  18.333  0.00  0.00    +0.000 A 
BRANCH   7   8
ATOM      8  S   UNL     1       4.501   3.912  18.417  0.00  0.00    +0.000 S 
ATOM      9  O   UNL     1       4.596   3.428  17.053  0.00  0.00    +0.000 OA
ATOM     10  O   UNL     1       5.694   3.983  19.231  0.00  0.00    +0.000 OA
BRANCH   8  11
ATOM     11  N   UNL     1       3.355   2.948  19.212  0.00  0.00    +0.000 NA
ATOM     12  C   UNL     1       2.613   1.947  18.439  0.00  0.00    +0.000 C 
ATOM     13  C   UNL     1       3.669   2.500  20.580  0.00  0.00    +0.000 C 
ENDBRANCH   8  11
ENDBRANCH   7   8
ENDBRANCH   1   2
BRANCH   1  16
ATOM     14  C   UNL     1       6.799   5.217  15.515  0.00  0.00    +0.000 C 
ATOM     15  O   UNL     1       7.582   4.756  16.342  0.00  0.00    +0.000 OA
ATOM     16  N   UNL     1       5.861   6.179  15.817  0.00  0.00    +0.000 N 
ATOM     17  H   UNL     1       5.127   6.398  15.157  0.00  0.00    +0.000 HD
BRANCH  14  22
ATOM     18  C   UNL     1       5.974   3.388  12.293  0.00  0.00    +0.000 A 
ATOM     19  C   UNL     1       6.924   3.954  11.437  0.00  0.00    +0.000 A 
ATOM     20  C   UNL     1       7.834   4.901  11.910  0.00  0.00    +0.000 A 
ATOM     21  C   UNL     1       7.794   5.290  13.246  0.00  0.00    +0.000 A 
ATOM     22  C   UNL     1       6.849   4.727  14.114  0.00  0.00    +0.000 A 
ATOM     23  C   UNL     1       5.935   3.783  13.634  0.00  0.00    +0.000 A 
BRANCH  18  25
ATOM     24  C   UNL     1       3.970   2.987  11.079  0.00  0.00    +0.000 C 
ATOM     25  O   UNL     1       5.142   2.474  11.707  0.00  0.00    +0.000 OA
ENDBRANCH  18  25
ENDBRANCH  14  22
ENDBRANCH   1  16
TORSDOF 6
ENDMDL
MODEL 3
REMARK VINA RESULT:      -7.5      1.027      1.264
REMARK  Name = 
REMARK  9 active torsions:
REMARK  status: ('A' for Active; 'I' for Inactive)
REMARK    1  A    between atoms: C_1  and  O_2
REMARK    2  A    between atoms: O_2  and  C_3
REMARK    3  A    between atoms: C_7  and  C_8
REMARK    4  A    between atoms: N_10  and  C_11
REMARK    5  A    between atoms: C_11  and  C_12
REMARK    6  A    between atoms: C_17  and  S_18
REMARK    7  A    between atoms: S_18  and  N_21
REMARK    8  A    between atoms: N_21  and  C_22
REMARK    9  A    between atoms: N_21  and  C_23
REMARK                            x       y       z     vdW  Elec       q    Type
REMARK                         _______ _______ _______ _____ _____    ______ ____
ROOT
ATOM      1  C   UNL     1       5.790   4.807  17.845  0.00  0.00    +0.000 C 
ENDROOT
BRANCH   1   2
ATOM      2  C   UNL     1       4.528   5.598  18.126  0.00  0.00    +0.000 A 
ATOM      3  C   UNL     1       4.399   6.875  17.525  0.00  0.00    +0.000 A 
ATOM      4  C   UNL     1       3.300   7.704  17.761  0.00  0.00    +0.000 A 
ATOM      5  C   UNL     1       2.299   7.290  18.622  0.00  0.00    +0.000 A 
ATOM      6  C   UNL     1       2.401   6.050  19.249  0.00  0.00    +0.000 A 
ATOM      7  C   UNL     1       3.512   5.205  19.028  0.00  0.00    +0.000 A 
BRANCH   7   8
ATOM      8  S   UNL     1       3.419   3.602  19.847  0.00  0.00    +0.000 S 
ATOM      9  O   UNL     1       4.784   3.144  20.020  0.00  0.00    +0.000 OA
ATOM     10  O   UNL     1       2.556   3.713  21.001  0.00  0.00    +0.000 OA
BRANCH   8  11
ATOM     11  N   UNL     1       2.686   2.575  18.714  0.00  0.00    +0.000 NA
ATOM     12  C   UNL     1       3.497   1.534  18.073  0.00  0.00    +0.000 C 
ATOM     13  C   UNL     1       1.302   2.146  18.975  0.00  0.00    +0.000 C 
ENDBRANCH   8  11
ENDBRANCH   7   8
ENDBRANCH   1   2
BRANCH   1  16
ATOM     14  C   UNL     1       6.818   5.112  15.616  0.00  0.00    +0.000 C 
ATOM     15  O   UNL     1       7.538   6.030  15.999  0.00  0.00    +0.000 OA
ATOM     16  N   UNL     1       5.938   4.448  16.441  0.00  0.00    +0.000 N 
ATOM     17  H   UNL     1       5.500   3.590  16.131  0.00  0.00    +0.000 HD
BRANCH  14  22
ATOM     18  C   UNL     1       6.112   3.314  12.348  0.00  0.00    +0.000 A 
ATOM     19  C   UNL     1       6.969   4.012  11.492  0.00  0.00    +0.000 A 
ATOM     20  C   UNL     1       7.781   5.039  11.978  0.00  0.00    +0.000 A 
ATOM     21  C   UNL     1       7.734   5.375  13.329  0.00  0.00    +0.000 A 
ATOM     22  C   UNL     1       6.883   4.680  14.196  0.00  0.00    +0.000 A 
ATOM     23  C   UNL     1       6.067   3.655  13.704  0.00  0.00    +0.000 A 
BRANCH  18  25
ATOM     24  C   UNL     1       6.095   1.249  11.172  0.00  0.00    +0.000 C 
ATOM     25  O   UNL     1       5.372   2.333  11.749  0.00  0.00    +0.000 OA
ENDBRANCH  18  25
ENDBRANCH  14  22
ENDBRANCH   1  16
TORSDOF 6
ENDMDL
MODEL 4
REMARK VINA RESULT:      -7.4      4.026      8.452
REMARK  Name = 
REMARK  9 active torsions:
REMARK  status: ('A' for Active; 'I' for Inactive)
REMARK    1  A    between atoms: C_1  and  O_2
REMARK    2  A    between atoms: O_2  and  C_3
REMARK    3  A    between atoms: C_7  and  C_8
REMARK    4  A    between atoms: N_10  and  C_11
REMARK    5  A    between atoms: C_11  and  C_12
REMARK    6  A    between atoms: C_17  and  S_18
REMARK    7  A    between atoms: S_18  and  N_21
REMARK    8  A    between atoms: N_21  and  C_22
REMARK    9  A    between atoms: N_21  and  C_23
REMARK                            x       y       z     vdW  Elec       q    Type
REMARK                         _______ _______ _______ _____ _____    ______ ____
ROOT
ATOM      1  C   UNL     1       3.511   7.157  18.010  0.00  0.00    +0.000 C 
ENDROOT
BRANCH   1   2
ATOM      2  C   UNL     1       3.213   5.692  17.759  0.00  0.00    +0.000 A 
ATOM      3  C   UNL     1       2.039   5.147  18.336  0.00  0.00    +0.000 A 
ATOM      4  C   UNL     1       1.701   3.798  18.209  0.00  0.00    +0.000 A 
ATOM      5  C   UNL     1       2.537   2.942  17.512  0.00  0.00    +0.000 A 
ATOM      6  C   UNL     1       3.711   3.437  16.949  0.00  0.00    +0.000 A 
ATOM      7  C   UNL     1       4.071   4.797  17.078  0.00  0.00    +0.000 A 
BRANCH   7   8
ATOM      8  S   UNL     1       5.572   5.271  16.199  0.00  0.00    +0.000 S 
ATOM      9  O   UNL     1       6.064   4.075  15.543  0.00  0.00    +0.000 OA
ATOM     10  O   UNL     1       5.302   6.454  15.412  0.00  0.00    +0.000 OA
BRANCH   8  11
ATOM     11  N   UNL     1       6.684   5.667  17.417  0.00  0.00    +0.000 NA
ATOM     12  C   UNL     1       7.647   4.652  17.855  0.00  0.00    +0.000 C 
ATOM     13  C   UNL     1       7.246   7.028  17.412  0.00  0.00    +0.000 C 
ENDBRANCH   8  11
ENDBRANCH   7   8
ENDBRANCH   1   2
BRANCH   1  16
ATOM     14  C   UNL     1       1.892   9.010  18.267  0.00  0.00    +0.000 C 
ATOM     15  O   UNL     1       2.238   9.546  17.217  0.00  0.00    +0.000 OA
ATOM     16  N   UNL     1       2.448   7.839  18.735  0.00  0.00    +0.000 N 
ATOM     17  H   UNL     1       2.015   7.344  19.503  0.00  0.00    +0.000 HD
BRANCH  14  22
ATOM     18  C   UNL     1      -0.184  10.162  21.228  0.00  0.00    +0.000 A 
ATOM     19  C   UNL     1      -1.136  10.948  20.571  0.00  0.00    +0.000 A 
ATOM     20  C   UNL     1      -1.114  11.081  19.181  0.00  0.00    +0.000 A 
ATOM     21  C   UNL     1      -0.131  10.429  18.441  0.00  0.00    +0.000 A 
ATOM     22  C   UNL     1       0.825   9.636  19.088  0.00  0.00    +0.000 A 
ATOM     23  C   UNL     1       0.803   9.510  20.481  0.00  0.00    +0.000 A 
BRANCH  18  25
ATOM     24  C   UNL     1      -1.288  10.979  23.168  0.00  0.00    +0.000 C 
ATOM     25  O   UNL     1      -0.315  10.114  22.588  0.00  0.00    +0.000 OA
ENDBRANCH  18  25
ENDBRANCH  14  22
ENDBRANCH   1  16
TORSDOF 6
ENDMDL
MODEL 5
REMARK VINA RESULT:      -7.4      0.972      1.171
REMARK  Name = 
REMARK  9 active torsions:
REMARK  status: ('A' for Active; 'I' for Inactive)
REMARK    1  A    between atoms: C_1  and  O_2
REMARK    2  A    between atoms: O_2  and  C_3
REMARK    3  A    between atoms: C_7  and  C_8
REMARK    4  A    between atoms: N_10  and  C_11
REMARK    5  A    between atoms: C_11  and  C_12
REMARK    6  A    between atoms: C_17  and  S_18
REMARK    7  A    between atoms: S_18  and  N_21
REMARK    8  A    between atoms: N_21  and  C_22
REMARK    9  A    between atoms: N_21  and  C_23
REMARK                            x       y       z     vdW  Elec       q    Type
REMARK                         _______ _______ _______ _____ _____    ______ ____
ROOT
ATOM      1  C   UNL     1       5.457   4.399  18.040  0.00  0.00    +0.000 C 
ENDROOT
BRANCH   1   2
ATOM      2  C   UNL     1       4.262   5.250  18.422  0.00  0.00    +0.000 A 
ATOM      3  C   UNL     1       4.136   6.524  17.815  0.00  0.00    +0.000 A 
ATOM      4  C   UNL     1       3.101   7.406  18.137  0.00  0.00    +0.000 A 
ATOM      5  C   UNL     1       2.165   7.048  19.092  0.00  0.00    +0.000 A 
ATOM      6  C   UNL     1       2.269   5.812  19.726  0.00  0.00    +0.000 A 
ATOM      7  C   UNL     1       3.316   4.914  19.418  0.00  0.00    +0.000 A 
BRANCH   7   8
ATOM      8  S   UNL     1       3.227   3.326  20.267  0.00  0.00    +0.000 S 
ATOM      9  O   UNL     1       4.591   2.852  20.404  0.00  0.00    +0.000 OA
ATOM     10  O   UNL     1       2.402   3.469  21.446  0.00  0.00    +0.000 OA
BRANCH   8  11
ATOM     11  N   UNL     1       2.444   2.291  19.175  0.00  0.00    +0.000 NA
ATOM     12  C   UNL     1       1.227   2.759  18.504  0.00  0.00    +0.000 C 
ATOM     13  C   UNL     1       3.286   1.443  18.314  0.00  0.00    +0.000 C 
ENDBRANCH   8  11
ENDBRANCH   7   8
ENDBRANCH   1   2
BRANCH   1  16
ATOM     14  C   UNL     1       6.756   4.628  15.947  0.00  0.00    +0.000 C 
ATOM     15  O   UNL     1       7.724   5.117  16.523  0.00  0.00    +0.000 OA
ATOM     16  N   UNL     1       5.606   4.239  16.600  0.00  0.00    +0.000 N 
ATOM     17  H   UNL     1       4.912   3.683  16.118  0.00  0.00    +0.000 HD
BRANCH  14  22
ATOM     18  C   UNL     1       5.991   3.418  12.432  0.00  0.00    +0.000 A 
ATOM     19  C   UNL     1       6.861   4.229  11.696  0.00  0.00    +0.000 A 
ATOM     20  C   UNL     1       7.699   5.141  12.340  0.00  0.00    +0.000 A 
ATOM     21  C   UNL     1       7.667   5.248  13.728  0.00  0.00    +0.000 A 
ATOM     22  C   UNL     1       6.804   4.437  14.475  0.00  0.00    +0.000 A 
ATOM     23  C   UNL     1       5.960   3.529  13.826  0.00  0.00    +0.000 A 
BRANCH  18  25
ATOM     24  C   UNL     1       4.067   3.126  11.067  0.00  0.00    +0.000 C 
ATOM     25  O   UNL     1       5.224   2.568  11.684  0.00  0.00    +0.000 OA
ENDBRANCH  18  25
ENDBRANCH  14  22
ENDBRANCH   1  16
TORSDOF 6
ENDMDL
MODEL 6
REMARK VINA RESULT:      -7.4      4.449      9.032
REMARK  Name = 
REMARK  9 active torsions:
REMARK  status: ('A' for Active; 'I' for Inactive)
REMARK    1  A    between atoms: C_1  and  O_2
REMARK    2  A    between atoms: O_2  and  C_3
REMARK    3  A    between atoms: C_7  and  C_8
REMARK    4  A    between atoms: N_10  and  C_11
REMARK    5  A    between atoms: C_11  and  C_12
REMARK    6  A    between atoms: C_17  and  S_18
REMARK    7  A    between atoms: S_18  and  N_21
REMARK    8  A    between atoms: N_21  and  C_22
REMARK    9  A    between atoms: N_21  and  C_23
REMARK                            x       y       z     vdW  Elec       q    Type
REMARK                         _______ _______ _______ _____ _____    ______ ____
ROOT
ATOM      1  C   UNL     1       2.866   7.655  17.877  0.00  0.00    +0.000 C 
ENDROOT
BRANCH   1   2
ATOM      2  C   UNL     1       2.944   6.145  17.768  0.00  0.00    +0.000 A 
ATOM      3  C   UNL     1       1.847   5.388  18.250  0.00  0.00    +0.000 A 
ATOM      4  C   UNL     1       1.842   3.992  18.244  0.00  0.00    +0.000 A 
ATOM      5  C   UNL     1       2.944   3.302  17.769  0.00  0.00    +0.000 A 
ATOM      6  C   UNL     1       4.051   4.011  17.306  0.00  0.00    +0.000 A 
ATOM      7  C   UNL     1       4.074   5.424  17.316  0.00  0.00    +0.000 A 
BRANCH   7   8
ATOM      8  S   UNL     1       5.549   6.163  16.588  0.00  0.00    +0.000 S 
ATOM      9  O   UNL     1       5.147   6.718  15.310  0.00  0.00    +0.000 OA
ATOM     10  O   UNL     1       6.179   7.019  17.568  0.00  0.00    +0.000 OA
BRANCH   8  11
ATOM     11  N   UNL     1       6.578   4.854  16.264  0.00  0.00    +0.000 NA
ATOM     12  C   UNL     1       7.012   4.619  14.883  0.00  0.00    +0.000 C 
ATOM     13  C   UNL     1       7.621   4.544  17.256  0.00  0.00    +0.000 C 
ENDBRANCH   8  11
ENDBRANCH   7   8
ENDBRANCH   1   2
BRANCH   1  16
ATOM     14  C   UNL     1       1.329   9.176  19.077  0.00  0.00    +0.000 C 
ATOM     15  O   UNL     1       1.055   9.810  18.061  0.00  0.00    +0.000 OA
ATOM     16  N   UNL     1       2.195   8.105  19.089  0.00  0.00    +0.000 N 
ATOM     17  H   UNL     1       2.253   7.508  19.903  0.00  0.00    +0.000 HD
BRANCH  14  22
ATOM     18  C   UNL     1      -0.110  11.241  21.918  0.00  0.00    +0.000 A 
ATOM     19  C   UNL     1      -0.585  10.221  22.749  0.00  0.00    +0.000 A 
ATOM     20  C   UNL     1      -0.419   8.880  22.397  0.00  0.00    +0.000 A 
ATOM     21  C   UNL     1       0.223   8.554  21.205  0.00  0.00    +0.000 A 
ATOM     22  C   UNL     1       0.707   9.567  20.368  0.00  0.00    +0.000 A 
ATOM     23  C   UNL     1       0.533  10.910  20.721  0.00  0.00    +0.000 A 
BRANCH  18  25
ATOM     24  C   UNL     1      -1.465  12.691  23.226  0.00  0.00    +0.000 C 
ATOM     25  O   UNL     1      -0.335  12.510  22.376  0.00  0.00    +0.000 OA
ENDBRANCH  18  25
ENDBRANCH  14  22
ENDBRANCH   1  16
TORSDOF 6
ENDMDL
MODEL 7
REMARK VINA RESULT:      -7.4      1.397      1.945
REMARK  Name = 
REMARK  9 active torsions:
REMARK  status: ('A' for Active; 'I' for Inactive)
REMARK    1  A    between atoms: C_1  and  O_2
REMARK    2  A    between atoms: O_2  and  C_3
REMARK    3  A    between atoms: C_7  and  C_8
REMARK    4  A    between atoms: N_10  and  C_11
REMARK    5  A    between atoms: C_11  and  C_12
REMARK    6  A    between atoms: C_17  and  S_18
REMARK    7  A    between atoms: S_18  and  N_21
REMARK    8  A    between atoms: N_21  and  C_22
REMARK    9  A    between atoms: N_21  and  C_23
REMARK                            x       y       z     vdW  Elec       q    Type
REMARK                         _______ _______ _______ _____ _____    ______ ____
ROOT
ATOM      1  C   UNL     1       5.955   4.627  16.671  0.00  0.00    +0.000 C 
ENDROOT
BRANCH   1   2
ATOM      2  C   UNL     1       4.801   5.382  17.301  0.00  0.00    +0.000 A 
ATOM      3  C   UNL     1       4.636   6.746  16.956  0.00  0.00    +0.000 A 
ATOM      4  C   UNL     1       3.637   7.544  17.518  0.00  0.00    +0.000 A 
ATOM      5  C   UNL     1       2.778   7.006  18.462  0.00  0.00    +0.000 A 
ATOM      6  C   UNL     1       2.923   5.674  18.843  0.00  0.00    +0.000 A 
ATOM      7  C   UNL     1       3.936   4.858  18.289  0.00  0.00    +0.000 A 
BRANCH   7   8
ATOM      8  S   UNL     1       3.904   3.139  18.831  0.00  0.00    +0.000 S 
ATOM      9  O   UNL     1       3.767   2.329  17.635  0.00  0.00    +0.000 OA
ATOM     10  O   UNL     1       5.019   2.906  19.722  0.00  0.00    +0.000 OA
BRANCH   8  11
ATOM     11  N   UNL     1       2.462   2.984  19.709  0.00  0.00    +0.000 NA
ATOM     12  C   UNL     1       1.337   2.264  19.103  0.00  0.00    +0.000 C 
ATOM     13  C   UNL     1       2.566   2.770  21.162  0.00  0.00    +0.000 C 
ENDBRANCH   8  11
ENDBRANCH   7   8
ENDBRANCH   1   2
BRANCH   1  16
ATOM     14  C   UNL     1       6.161   4.332  14.224  0.00  0.00    +0.000 C 
ATOM     15  O   UNL     1       7.007   5.217  14.121  0.00  0.00    +0.000 OA
ATOM     16  N   UNL     1       5.593   3.967  15.425  0.00  0.00    +0.000 N 
ATOM     17  H   UNL     1       5.039   3.123  15.488  0.00  0.00    +0.000 HD
BRANCH  14  22
ATOM     18  C   UNL     1       5.929   1.806  11.401  0.00  0.00    +0.000 A 
ATOM     19  C   UNL     1       4.739   2.221  10.795  0.00  0.00    +0.000 A 
ATOM     20  C   UNL     1       4.035   3.322  11.288  0.00  0.00    +0.000 A 
ATOM     21  C   UNL     1       4.520   4.012  12.396  0.00  0.00    +0.000 A 
ATOM     22  C   UNL     1       5.713   3.608  13.007  0.00  0.00    +0.000 A 
ATOM     23  C   UNL     1       6.413   2.501  12.514  0.00  0.00    +0.000 A 
BRANCH  18  25
ATOM     24  C   UNL     1       6.137  -0.560  11.325  0.00  0.00    +0.000 C 
ATOM     25  O   UNL     1       6.521   0.717  10.823  0.00  0.00    +0.000 OA
ENDBRANCH  18  25
ENDBRANCH  14  22
ENDBRANCH   1  16
TORSDOF 6
ENDMDL
MODEL 8
REMARK VINA RESULT:      -7.3      4.014      7.631
REMARK  Name = 
REMARK  9 active torsions:
REMARK  status: ('A' for Active; 'I' for Inactive)
REMARK    1  A    between atoms: C_1  and  O_2
REMARK    2  A    between atoms: O_2  and  C_3
REMARK    3  A    between atoms: C_7  and  C_8
REMARK    4  A    between atoms: N_10  and  C_11
REMARK    5  A    between atoms: C_11  and  C_12
REMARK    6  A    between atoms: C_17  and  S_18
REMARK    7  A    between atoms: S_18  and  N_21
REMARK    8  A    between atoms: N_21  and  C_22
REMARK    9  A    between atoms: N_21  and  C_23
REMARK                            x       y       z     vdW  Elec       q    Type
REMARK                         _______ _______ _______ _____ _____    ______ ____
ROOT
ATOM      1  C   UNL     1       3.452   6.623  17.374  0.00  0.00    +0.000 C 
ENDROOT
BRANCH   1   2
ATOM      2  C   UNL     1       4.870   6.275  17.781  0.00  0.00    +0.000 A 
ATOM      3  C   UNL     1       5.923   7.065  17.255  0.00  0.00    +0.000 A 
ATOM      4  C   UNL     1       7.266   6.797  17.527  0.00  0.00    +0.000 A 
ATOM      5  C   UNL     1       7.604   5.714  18.321  0.00  0.00    +0.000 A 
ATOM      6  C   UNL     1       6.598   4.902  18.838  0.00  0.00    +0.000 A 
ATOM      7  C   UNL     1       5.235   5.155  18.564  0.00  0.00    +0.000 A 
BRANCH   7   8
ATOM      8  S   UNL     1       4.076   4.056  19.400  0.00  0.00    +0.000 S 
ATOM      9  O   UNL     1       4.866   3.001  20.004  0.00  0.00    +0.000 OA
ATOM     10  O   UNL     1       3.194   4.847  20.229  0.00  0.00    +0.000 OA
BRANCH   8  11
ATOM     11  N   UNL     1       3.168   3.351  18.154  0.00  0.00    +0.000 NA
ATOM     12  C   UNL     1       3.475   1.977  17.743  0.00  0.00    +0.000 C 
ATOM     13  C   UNL     1       1.729   3.659  18.098  0.00  0.00    +0.000 C 
ENDBRANCH   8  11
ENDBRANCH   7   8
ENDBRANCH   1   2
BRANCH   1  16
ATOM     14  C   UNL     1       2.087   8.444  18.343  0.00  0.00    +0.000 C 
ATOM     15  O   UNL     1       2.168   9.135  17.330  0.00  0.00    +0.000 OA
ATOM     16  N   UNL     1       2.673   7.202  18.459  0.00  0.00    +0.000 N 
ATOM     17  H   UNL     1       2.434   6.599  19.235  0.00  0.00    +0.000 HD
BRANCH  14  22
ATOM     18  C   UNL     1      -0.331  10.420  20.500  0.00  0.00    +0.000 A 
ATOM     19  C   UNL     1      -0.162   9.766  21.724  0.00  0.00    +0.000 A 
ATOM     20  C   UNL     1       0.743   8.711  21.848  0.00  0.00    +0.000 A 
ATOM     21  C   UNL     1       1.483   8.302  20.742  0.00  0.00    +0.000 A 
ATOM     22  C   UNL     1       1.326   8.953  19.512  0.00  0.00    +0.000 A 
ATOM     23  C   UNL     1       0.413  10.006  19.390  0.00  0.00    +0.000 A 
BRANCH  18  25
ATOM     24  C   UNL     1      -1.740  11.865  19.244  0.00  0.00    +0.000 C 
ATOM     25  O   UNL     1      -1.247  11.436  20.510  0.00  0.00    +0.000 OA
ENDBRANCH  18  25
ENDBRANCH  14  22
ENDBRANCH   1  16
TORSDOF 6
ENDMDL
MODEL 9
REMARK VINA RESULT:      -7.2      4.337      8.786
REMARK  Name = 
REMARK  9 active torsions:
REMARK  status: ('A' for Active; 'I' for Inactive)
REMARK    1  A    between atoms: C_1  and  O_2
REMARK    2  A    between atoms: O_2  and  C_3
REMARK    3  A    between atoms: C_7  and  C_8
REMARK    4  A    between atoms: N_10  and  C_11
REMARK    5  A    between atoms: C_11  and  C_12
REMARK    6  A    between atoms: C_17  and  S_18
REMARK    7  A    between atoms: S_18  and  N_21
REMARK    8  A    between atoms: N_21  and  C_22
REMARK    9  A    between atoms: N_21  and  C_23
REMARK                            x       y       z     vdW  Elec       q    Type
REMARK                         _______ _______ _______ _____ _____    ______ ____
ROOT
ATOM      1  C   UNL     1       3.176   7.373  17.890  0.00  0.00    +0.000 C 
ENDROOT
BRANCH   1   2
ATOM      2  C   UNL     1       3.084   5.873  17.691  0.00  0.00    +0.000 A 
ATOM      3  C   UNL     1       1.901   5.219  18.117  0.00  0.00    +0.000 A 
ATOM      4  C   UNL     1       1.738   3.835  18.026  0.00  0.00    +0.000 A 
ATOM      5  C   UNL     1       2.763   3.053  17.522  0.00  0.00    +0.000 A 
ATOM      6  C   UNL     1       3.950   3.658  17.113  0.00  0.00    +0.000 A 
ATOM      7  C   UNL     1       4.133   5.056  17.208  0.00  0.00    +0.000 A 
BRANCH   7   8
ATOM      8  S   UNL     1       5.693   5.663  16.540  0.00  0.00    +0.000 S 
ATOM      9  O   UNL     1       6.465   4.496  16.159  0.00  0.00    +0.000 OA
ATOM     10  O   UNL     1       5.417   6.685  15.555  0.00  0.00    +0.000 OA
BRANCH   8  11
ATOM     11  N   UNL     1       6.485   6.377  17.859  0.00  0.00    +0.000 NA
ATOM     12  C   UNL     1       6.801   5.549  19.028  0.00  0.00    +0.000 C 
ATOM     13  C   UNL     1       7.519   7.385  17.572  0.00  0.00    +0.000 C 
ENDBRANCH   8  11
ENDBRANCH   7   8
ENDBRANCH   1   2
BRANCH   1  16
ATOM     14  C   UNL     1       1.661   8.987  18.994  0.00  0.00    +0.000 C 
ATOM     15  O   UNL     1       1.550   9.676  17.983  0.00  0.00    +0.000 OA
ATOM     16  N   UNL     1       2.425   7.842  19.046  0.00  0.00    +0.000 N 
ATOM     17  H   UNL     1       2.347   7.215  19.836  0.00  0.00    +0.000 HD
BRANCH  14  22
ATOM     18  C   UNL     1      -0.176  11.045  21.601  0.00  0.00    +0.000 A 
ATOM     19  C   UNL     1      -0.507  10.043  22.518  0.00  0.00    +0.000 A 
ATOM     20  C   UNL     1      -0.118   8.720  22.300  0.00  0.00    +0.000 A 
ATOM     21  C   UNL     1       0.605   8.393  21.155  0.00  0.00    +0.000 A 
ATOM     22  C   UNL     1       0.946   9.389  20.232  0.00  0.00    +0.000 A 
ATOM     23  C   UNL     1       0.548  10.713  20.451  0.00  0.00    +0.000 A 
BRANCH  18  25
ATOM     24  C   UNL     1      -2.016  12.534  21.814  0.00  0.00    +0.000 C 
ATOM     25  O   UNL     1      -0.615  12.297  21.931  0.00  0.00    +0.000 OA
ENDBRANCH  18  25
ENDBRANCH  14  22
ENDBRANCH   1  16
TORSDOF 6
ENDMDL
