MODEL 1
REMARK VINA RESULT:      -6.6      0.000      0.000
REMARK  Name = 
REMARK  4 active torsions:
REMARK  status: ('A' for Active; 'I' for Inactive)
REMARK    1  A    between atoms: C_1  and  C_2
REMARK    2  A    between atoms: C_4  and  C_5
REMARK    3  A    between atoms: C_7  and  S_8
REMARK    4  A    between atoms: S_8  and  C_9
REMARK                            x       y       z     vdW  Elec       q    Type
REMARK                         _______ _______ _______ _____ _____    ______ ____
ROOT
ATOM      1  C   UNL     1       7.672   5.631  19.212  0.00  0.00    +0.000 C 
ATOM      2  C   UNL     1       6.847   5.017  18.122  0.00  0.00    +0.000 A 
ATOM      3  C   UNL     1       7.217   5.131  16.797  0.00  0.00    +0.000 A 
ATOM      4  C   UNL     1       6.399   4.516  15.870  0.00  0.00    +0.000 A 
ATOM      5  C   UNL     1       6.713   4.564  14.405  0.00  0.00    +0.000 C 
ATOM      6  N   UNL     1       5.292   3.837  16.224  0.00  0.00    +0.000 NA
ATOM      7  C   UNL     1       5.005   3.783  17.536  0.00  0.00    +0.000 A 
ATOM      8  N   UNL     1       5.743   4.345  18.504  0.00  0.00    +0.000 NA
ENDROOT
BRANCH   7   9
ATOM      9  S   UNL     1       3.579   2.869  18.046  0.00  0.00    +0.000 S 
BRANCH   9  10
ATOM     10  C   UNL     1       3.402   3.501  19.743  0.00  0.00    +0.000 C 
ATOM     11  C   UNL     1       1.957   3.719  20.141  0.00  0.00    +0.000 C 
ATOM     12  C   UNL     1       1.960   3.405  21.613  0.00  0.00    +0.000 C 
ATOM     13  O   UNL     1       2.987   2.436  21.805  0.00  0.00    +0.000 OA
ATOM     14  C   UNL     1       3.861   2.480  20.752  0.00  0.00    +0.000 C 
ATOM     15  O   UNL     1       4.885   1.816  20.714  0.00  0.00    +0.000 OA
ENDBRANCH   9  10
ENDBRANCH   7   9
TORSDOF 2
ENDMDL
MODEL 2
REMARK VINA RESULT:      -6.4      1.643      1.769
REMARK  Name = 
REMARK  4 active torsions:
REMARK  status: ('A' for Active; 'I' for Inactive)
REMARK    1  A    between atoms: C_1  and  C_2
REMARK    2  A    between atoms: C_4  and  C_5
REMARK    3  A    between atoms: C_7  and  S_8
REMARK    4  A    between atoms: S_8  and  C_9
REMARK                            x       y       z     vdW  Elec       q    Type
REMARK                         _______ _______ _______ _____ _____    ______ ____
ROOT
ATOM      1  C   UNL     1       3.959   7.528  17.521  0.00  0.00    +0.000 C 
ATOM      2  C   UNL     1       4.246   6.135  17.048  0.00  0.00    +0.000 A 
ATOM      3  C   UNL     1       5.214   5.890  16.095  0.00  0.00    +0.000 A 
ATOM      4  C   UNL     1       5.415   4.571  15.739  0.00  0.00    +0.000 A 
ATOM      5  C   UNL     1       6.449   4.189  14.724  0.00  0.00    +0.000 C 
ATOM      6  N   UNL     1       4.709   3.563  16.285  0.00  0.00    +0.000 NA
ATOM      7  C   UNL     1       3.783   3.894  17.201  0.00  0.00    +0.000 A 
ATOM      8  N   UNL     1       3.524   5.145  17.609  0.00  0.00    +0.000 NA
ENDROOT
BRANCH   7   9
ATOM      9  S   UNL     1       2.860   2.595  17.969  0.00  0.00    +0.000 S 
BRANCH   9  10
ATOM     10  C   UNL     1       2.726   3.270  19.652  0.00  0.00    +0.000 C 
ATOM     11  C   UNL     1       1.369   3.022  20.278  0.00  0.00    +0.000 C 
ATOM     12  C   UNL     1       1.695   2.851  21.738  0.00  0.00    +0.000 C 
ATOM     13  O   UNL     1       3.008   2.302  21.783  0.00  0.00    +0.000 OA
ATOM     14  C   UNL     1       3.650   2.549  20.599  0.00  0.00    +0.000 C 
ATOM     15  O   UNL     1       4.823   2.266  20.411  0.00  0.00    +0.000 OA
ENDBRANCH   9  10
ENDBRANCH   7   9
TORSDOF 2
ENDMDL
MODEL 3
REMARK VINA RESULT:      -6.4      1.240      1.240
REMARK  Name = 
REMARK  4 active torsions:
REMARK  status: ('A' for Active; 'I' for Inactive)
REMARK    1  A    between atoms: C_1  and  C_2
REMARK    2  A    between atoms: C_4  and  C_5
REMARK    3  A    between atoms: C_7  and  S_8
REMARK    4  A    between atoms: S_8  and  C_9
REMARK                            x       y       z     vdW  Elec       q    Type
REMARK                         _______ _______ _______ _____ _____    ______ ____
ROOT
ATOM      1  C   UNL     1       7.760   5.622  18.960  0.00  0.00    +0.000 C 
ATOM      2  C   UNL     1       6.722   5.206  17.962  0.00  0.00    +0.000 A 
ATOM      3  C   UNL     1       7.077   4.805  16.689  0.00  0.00    +0.000 A 
ATOM      4  C   UNL     1       6.049   4.424  15.850  0.00  0.00    +0.000 A 
ATOM      5  C   UNL     1       6.320   3.958  14.452  0.00  0.00    +0.000 C 
ATOM      6  N   UNL     1       4.760   4.438  16.238  0.00  0.00    +0.000 NA
ATOM      7  C   UNL     1       4.507   4.848  17.492  0.00  0.00    +0.000 A 
ATOM      8  N   UNL     1       5.441   5.231  18.375  0.00  0.00    +0.000 NA
ENDROOT
BRANCH   7   9
ATOM      9  S   UNL     1       2.828   4.846  18.053  0.00  0.00    +0.000 S 
BRANCH   9  10
ATOM     10  C   UNL     1       3.044   4.017  19.658  0.00  0.00    +0.000 C 
ATOM     11  C   UNL     1       2.120   4.558  20.728  0.00  0.00    +0.000 C 
ATOM     12  C   UNL     1       1.831   3.346  21.572  0.00  0.00    +0.000 C 
ATOM     13  O   UNL     1       1.907   2.229  20.692  0.00  0.00    +0.000 OA
ATOM     14  C   UNL     1       2.628   2.570  19.579  0.00  0.00    +0.000 C 
ATOM     15  O   UNL     1       2.922   1.765  18.709  0.00  0.00    +0.000 OA
ENDBRANCH   9  10
ENDBRANCH   7   9
TORSDOF 2
ENDMDL
MODEL 4
REMARK VINA RESULT:      -6.4      1.605      2.430
REMARK  Name = 
REMARK  4 active torsions:
REMARK  status: ('A' for Active; 'I' for Inactive)
REMARK    1  A    between atoms: C_1  and  C_2
REMARK    2  A    between atoms: C_4  and  C_5
REMARK    3  A    between atoms: C_7  and  S_8
REMARK    4  A    between atoms: S_8  and  C_9
REMARK                            x       y       z     vdW  Elec       q    Type
REMARK                         _______ _______ _______ _____ _____    ______ ____
ROOT
ATOM      1  C   UNL     1       6.353   4.218  14.424  0.00  0.00    +0.000 C 
ATOM      2  C   UNL     1       5.446   4.551  15.570  0.00  0.00    +0.000 A 
ATOM      3  C   UNL     1       5.200   5.862  15.927  0.00  0.00    +0.000 A 
ATOM      4  C   UNL     1       4.337   6.064  16.985  0.00  0.00    +0.000 A 
ATOM      5  C   UNL     1       3.988   7.446  17.449  0.00  0.00    +0.000 C 
ATOM      6  N   UNL     1       3.756   5.045  17.646  0.00  0.00    +0.000 NA
ATOM      7  C   UNL     1       4.058   3.802  17.234  0.00  0.00    +0.000 A 
ATOM      8  N   UNL     1       4.881   3.513  16.215  0.00  0.00    +0.000 NA
ENDROOT
BRANCH   7   9
ATOM      9  S   UNL     1       3.287   2.436  18.053  0.00  0.00    +0.000 S 
BRANCH   9  10
ATOM     10  C   UNL     1       3.019   3.176  19.693  0.00  0.00    +0.000 C 
ATOM     11  C   UNL     1       1.581   3.073  20.157  0.00  0.00    +0.000 C 
ATOM     12  C   UNL     1       1.716   2.921  21.648  0.00  0.00    +0.000 C 
ATOM     13  O   UNL     1       2.957   2.258  21.864  0.00  0.00    +0.000 OA
ATOM     14  C   UNL     1       3.755   2.406  20.760  0.00  0.00    +0.000 C 
ATOM     15  O   UNL     1       4.910   2.013  20.720  0.00  0.00    +0.000 OA
ENDBRANCH   9  10
ENDBRANCH   7   9
TORSDOF 2
ENDMDL
MODEL 5
REMARK VINA RESULT:      -6.4      3.009      5.555
REMARK  Name = 
REMARK  4 active torsions:
REMARK  status: ('A' for Active; 'I' for Inactive)
REMARK    1  A    between atoms: C_1  and  C_2
REMARK    2  A    between atoms: C_4  and  C_5
REMARK    3  A    between atoms: C_7  and  S_8
REMARK    4  A    between atoms: S_8  and  C_9
REMARK                            x       y       z     vdW  Elec       q    Type
REMARK                         _______ _______ _______ _____ _____    ______ ____
ROOT
ATOM      1  C   UNL     1       1.364   6.698  20.755  0.00  0.00    +0.000 C 
ATOM      2  C   UNL     1       2.112   5.543  20.161  0.00  0.00    +0.000 A 
ATOM      3  C   UNL     1       1.478   4.348  19.884  0.00  0.00    +0.000 A 
ATOM      4  C   UNL     1       2.250   3.352  19.322  0.00  0.00    +0.000 A 
ATOM      5  C   UNL     1       1.662   2.020  18.968  0.00  0.00    +0.000 C 
ATOM      6  N   UNL     1       3.558   3.520  19.052  0.00  0.00    +0.000 NA
ATOM      7  C   UNL     1       4.094   4.714  19.360  0.00  0.00    +0.000 A 
ATOM      8  N   UNL     1       3.420   5.738  19.903  0.00  0.00    +0.000 NA
ENDROOT
BRANCH   7   9
ATOM      9  S   UNL     1       5.802   4.988  18.987  0.00  0.00    +0.000 S 
BRANCH   9  10
ATOM     10  C   UNL     1       5.803   4.550  17.221  0.00  0.00    +0.000 C 
ATOM     11  C   UNL     1       5.039   5.542  16.369  0.00  0.00    +0.000 C 
ATOM     12  C   UNL     1       5.801   5.531  15.071  0.00  0.00    +0.000 C 
ATOM     13  O   UNL     1       7.151   5.232  15.412  0.00  0.00    +0.000 OA
ATOM     14  C   UNL     1       7.192   4.636  16.644  0.00  0.00    +0.000 C 
ATOM     15  O   UNL     1       8.221   4.194  17.131  0.00  0.00    +0.000 OA
ENDBRANCH   9  10
ENDBRANCH   7   9
TORSDOF 2
ENDMDL
MODEL 6
REMARK VINA RESULT:      -6.3      1.986      3.038
REMARK  Name = 
REMARK  4 active torsions:
REMARK  status: ('A' for Active; 'I' for Inactive)
REMARK    1  A    between atoms: C_1  and  C_2
REMARK    2  A    between atoms: C_4  and  C_5
REMARK    3  A    between atoms: C_7  and  S_8
REMARK    4  A    between atoms: S_8  and  C_9
REMARK                            x       y       z     vdW  Elec       q    Type
REMARK                         _______ _______ _______ _____ _____    ______ ____
ROOT
ATOM      1  C   UNL     1       5.705   4.246  14.892  0.00  0.00    +0.000 C 
ATOM      2  C   UNL     1       5.719   4.759  16.300  0.00  0.00    +0.000 A 
ATOM      3  C   UNL     1       6.908   5.003  16.958  0.00  0.00    +0.000 A 
ATOM      4  C   UNL     1       6.815   5.491  18.246  0.00  0.00    +0.000 A 
ATOM      5  C   UNL     1       8.042   5.804  19.049  0.00  0.00    +0.000 C 
ATOM      6  N   UNL     1       5.632   5.722  18.846  0.00  0.00    +0.000 NA
ATOM      7  C   UNL     1       4.526   5.450  18.132  0.00  0.00    +0.000 A 
ATOM      8  N   UNL     1       4.522   4.979  16.876  0.00  0.00    +0.000 NA
ENDROOT
BRANCH   7   9
ATOM      9  S   UNL     1       2.951   5.774  18.870  0.00  0.00    +0.000 S 
BRANCH   9  10
ATOM     10  C   UNL     1       2.585   4.125  19.546  0.00  0.00    +0.000 C 
ATOM     11  C   UNL     1       2.090   4.172  20.976  0.00  0.00    +0.000 C 
ATOM     12  C   UNL     1       1.125   3.019  21.039  0.00  0.00    +0.000 C 
ATOM     13  O   UNL     1       0.589   2.885  19.726  0.00  0.00    +0.000 OA
ATOM     14  C   UNL     1       1.423   3.492  18.825  0.00  0.00    +0.000 C 
ATOM     15  O   UNL     1       1.243   3.441  17.619  0.00  0.00    +0.000 OA
ENDBRANCH   9  10
ENDBRANCH   7   9
TORSDOF 2
ENDMDL
MODEL 7
REMARK VINA RESULT:      -6.3      1.265      2.530
REMARK  Name = 
REMARK  4 active torsions:
REMARK  status: ('A' for Active; 'I' for Inactive)
REMARK    1  A    between atoms: C_1  and  C_2
REMARK    2  A    between atoms: C_4  and  C_5
REMARK    3  A    between atoms: C_7  and  S_8
REMARK    4  A    between atoms: S_8  and  C_9
REMARK                            x       y       z     vdW  Elec       q    Type
REMARK                         _______ _______ _______ _____ _____    ______ ____
ROOT
ATOM      1  C   UNL     1       6.462   4.310  14.341  0.00  0.00    +0.000 C 
ATOM      2  C   UNL     1       6.161   4.653  15.768  0.00  0.00    +0.000 A 
ATOM      3  C   UNL     1       7.153   5.094  16.621  0.00  0.00    +0.000 A 
ATOM      4  C   UNL     1       6.770   5.400  17.912  0.00  0.00    +0.000 A 
ATOM      5  C   UNL     1       7.762   5.901  18.918  0.00  0.00    +0.000 C 
ATOM      6  N   UNL     1       5.497   5.278  18.334  0.00  0.00    +0.000 NA
ATOM      7  C   UNL     1       4.599   4.836  17.438  0.00  0.00    +0.000 A 
ATOM      8  N   UNL     1       4.880   4.520  16.165  0.00  0.00    +0.000 NA
ENDROOT
BRANCH   7   9
ATOM      9  S   UNL     1       2.909   4.697  17.942  0.00  0.00    +0.000 S 
BRANCH   9  10
ATOM     10  C   UNL     1       3.138   3.897  19.560  0.00  0.00    +0.000 C 
ATOM     11  C   UNL     1       2.430   4.626  20.682  0.00  0.00    +0.000 C 
ATOM     12  C   UNL     1       2.025   3.511  21.608  0.00  0.00    +0.000 C 
ATOM     13  O   UNL     1       1.823   2.369  20.782  0.00  0.00    +0.000 OA
ATOM     14  C   UNL     1       2.478   2.542  19.592  0.00  0.00    +0.000 C 
ATOM     15  O   UNL     1       2.544   1.670  18.739  0.00  0.00    +0.000 OA
ENDBRANCH   9  10
ENDBRANCH   7   9
TORSDOF 2
ENDMDL
MODEL 8
REMARK VINA RESULT:      -6.2      1.219      1.426
REMARK  Name = 
REMARK  4 active torsions:
REMARK  status: ('A' for Active; 'I' for Inactive)
REMARK    1  A    between atoms: C_1  and  C_2
REMARK    2  A    between atoms: C_4  and  C_5
REMARK    3  A    between atoms: C_7  and  S_8
REMARK    4  A    between atoms: S_8  and  C_9
REMARK                            x       y       z     vdW  Elec       q    Type
REMARK                         _______ _______ _______ _____ _____    ______ ____
ROOT
ATOM      1  C   UNL     1       8.136   5.925  19.363  0.00  0.00    +0.000 C 
ATOM      2  C   UNL     1       6.982   5.407  18.559  0.00  0.00    +0.000 A 
ATOM      3  C   UNL     1       6.737   5.870  17.282  0.00  0.00    +0.000 A 
ATOM      4  C   UNL     1       5.660   5.317  16.618  0.00  0.00    +0.000 A 
ATOM      5  C   UNL     1       5.310   5.735  15.222  0.00  0.00    +0.000 C 
ATOM      6  N   UNL     1       4.878   4.372  17.175  0.00  0.00    +0.000 NA
ATOM      7  C   UNL     1       5.188   3.986  18.424  0.00  0.00    +0.000 A 
ATOM      8  N   UNL     1       6.215   4.464  19.141  0.00  0.00    +0.000 NA
ENDROOT
BRANCH   7   9
ATOM      9  S   UNL     1       4.207   2.721  19.178  0.00  0.00    +0.000 S 
BRANCH   9  10
ATOM     10  C   UNL     1       3.020   3.756  20.087  0.00  0.00    +0.000 C 
ATOM     11  C   UNL     1       1.821   4.151  19.250  0.00  0.00    +0.000 C 
ATOM     12  C   UNL     1       0.705   4.205  20.258  0.00  0.00    +0.000 C 
ATOM     13  O   UNL     1       1.039   3.252  21.262  0.00  0.00    +0.000 OA
ATOM     14  C   UNL     1       2.382   2.985  21.214  0.00  0.00    +0.000 C 
ATOM     15  O   UNL     1       2.944   2.271  22.030  0.00  0.00    +0.000 OA
ENDBRANCH   9  10
ENDBRANCH   7   9
TORSDOF 2
ENDMDL
MODEL 9
REMARK VINA RESULT:      -6.2      3.060      5.750
REMARK  Name = 
REMARK  4 active torsions:
REMARK  status: ('A' for Active; 'I' for Inactive)
REMARK    1  A    between atoms: C_1  and  C_2
REMARK    2  A    between atoms: C_4  and  C_5
REMARK    3  A    between atoms: C_7  and  S_8
REMARK    4  A    between atoms: S_8  and  C_9
REMARK                            x       y       z     vdW  Elec       q    Type
REMARK                         _______ _______ _______ _____ _____    ______ ____
ROOT
ATOM      1  C   UNL     1       1.458   2.344  19.697  0.00  0.00    +0.000 C 
ATOM      2  C   UNL     1       2.166   3.664  19.741  0.00  0.00    +0.000 A 
ATOM      3  C   UNL     1       1.509   4.813  20.132  0.00  0.00    +0.000 A 
ATOM      4  C   UNL     1       2.253   5.976  20.155  0.00  0.00    +0.000 A 
ATOM      5  C   UNL     1       1.645   7.279  20.577  0.00  0.00    +0.000 C 
ATOM      6  N   UNL     1       3.556   6.004  19.816  0.00  0.00    +0.000 NA
ATOM      7  C   UNL     1       4.113   4.840  19.443  0.00  0.00    +0.000 A 
ATOM      8  N   UNL     1       3.468   3.664  19.395  0.00  0.00    +0.000 NA
ENDROOT
BRANCH   7   9
ATOM      9  S   UNL     1       5.832   4.827  19.025  0.00  0.00    +0.000 S 
BRANCH   9  10
ATOM     10  C   UNL     1       5.709   4.515  17.237  0.00  0.00    +0.000 C 
ATOM     11  C   UNL     1       4.854   5.537  16.519  0.00  0.00    +0.000 C 
ATOM     12  C   UNL     1       5.513   5.643  15.170  0.00  0.00    +0.000 C 
ATOM     13  O   UNL     1       6.893   5.368  15.386  0.00  0.00    +0.000 OA
ATOM     14  C   UNL     1       7.047   4.688  16.565  0.00  0.00    +0.000 C 
ATOM     15  O   UNL     1       8.122   4.248  16.940  0.00  0.00    +0.000 OA
ENDBRANCH   9  10
ENDBRANCH   7   9
TORSDOF 2
ENDMDL
