MODEL 1
REMARK VINA RESULT:      -8.4      0.000      0.000
REMARK  Name = 
REMARK  5 active torsions:
REMARK  status: ('A' for Active; 'I' for Inactive)
REMARK    1  A    between atoms: C_1  and  C_2
REMARK    2  A    between atoms: C_6  and  N_7
REMARK    3  A    between atoms: C_8  and  C_10
REMARK    4  A    between atoms: C_12  and  C_13
REMARK    5  A    between atoms: C_26  and  C_27
REMARK                            x       y       z     vdW  Elec       q    Type
REMARK                         _______ _______ _______ _____ _____    ______ ____
ROOT
ATOM      1  C   UNL     1       2.666   6.284  18.902  0.00  0.00    +0.000 A 
ATOM      2  C   UNL     1       3.721   6.373  17.992  0.00  0.00    +0.000 A 
ATOM      3  C   UNL     1       4.197   5.223  17.384  0.00  0.00    +0.000 A 
ATOM      4  N   UNL     1       3.659   4.013  17.656  0.00  0.00    +0.000 NA
ATOM      5  C   UNL     1       2.670   3.910  18.560  0.00  0.00    +0.000 A 
ATOM      6  C   UNL     1       2.170   2.640  18.823  0.00  0.00    +0.000 A 
ATOM      7  C   UNL     1       1.151   2.421  19.751  0.00  0.00    +0.000 A 
ATOM      8  C   UNL     1       0.611   3.496  20.438  0.00  0.00    +0.000 A 
ATOM      9  C   UNL     1       1.085   4.782  20.180  0.00  0.00    +0.000 A 
ATOM     10  C   UNL     1       2.123   5.018  19.240  0.00  0.00    +0.000 A 
ENDROOT
BRANCH   3  11
ATOM     11  C   UNL     1       5.297   5.246  16.408  0.00  0.00    +0.000 A 
ATOM     12  C   UNL     1       5.261   4.483  15.228  0.00  0.00    +0.000 A 
ATOM     13  C   UNL     1       6.330   4.540  14.351  0.00  0.00    +0.000 A 
ATOM     14  N   UNL     1       7.431   5.288  14.556  0.00  0.00    +0.000 NA
ATOM     15  C   UNL     1       7.457   6.022  15.687  0.00  0.00    +0.000 A 
ATOM     16  C   UNL     1       6.436   6.033  16.624  0.00  0.00    +0.000 A 
ENDBRANCH   3  11
BRANCH   1  18
ATOM     17  N   UNL     1       1.915   8.588  18.595  0.00  0.00    +0.000 N 
ATOM     18  C   UNL     1       2.168   7.563  19.495  0.00  0.00    +0.000 C 
ATOM     19  O   UNL     1       2.008   7.686  20.703  0.00  0.00    +0.000 OA
ATOM     20  H   UNL     1       1.882   8.385  17.606  0.00  0.00    +0.000 HD
BRANCH  17  26
ATOM     21  C   UNL     1      -0.646  11.342  20.932  0.00  0.00    +0.000 C 
ATOM     22  C   UNL     1      -0.813  11.175  19.415  0.00  0.00    +0.000 C 
ATOM     23  C   UNL     1      -0.194  12.365  18.664  0.00  0.00    +0.000 C 
ATOM     24  C   UNL     1       1.334  12.369  18.714  0.00  0.00    +0.000 C 
ATOM     25  C   UNL     1       1.946  11.035  18.289  0.00  0.00    +0.000 C 
ATOM     26  C   UNL     1       1.325   9.846  19.035  0.00  0.00    +0.000 C 
ATOM     27  C   UNL     1      -0.219   9.830  18.919  0.00  0.00    +0.000 C 
ATOM     28  C   UNL     1      -0.695   9.516  17.488  0.00  0.00    +0.000 C 
ENDBRANCH  17  26
ENDBRANCH   1  18
TORSDOF 3
ENDMDL
MODEL 2
REMARK VINA RESULT:      -7.9      1.371      2.046
REMARK  Name = 
REMARK  5 active torsions:
REMARK  status: ('A' for Active; 'I' for Inactive)
REMARK    1  A    between atoms: C_1  and  C_2
REMARK    2  A    between atoms: C_6  and  N_7
REMARK    3  A    between atoms: C_8  and  C_10
REMARK    4  A    between atoms: C_12  and  C_13
REMARK    5  A    between atoms: C_26  and  C_27
REMARK                            x       y       z     vdW  Elec       q    Type
REMARK                         _______ _______ _______ _____ _____    ______ ____
ROOT
ATOM      1  C   UNL     1       2.989   6.870  18.163  0.00  0.00    +0.000 A 
ATOM      2  C   UNL     1       3.884   6.638  17.118  0.00  0.00    +0.000 A 
ATOM      3  C   UNL     1       4.492   5.399  17.002  0.00  0.00    +0.000 A 
ATOM      4  N   UNL     1       4.235   4.408  17.885  0.00  0.00    +0.000 NA
ATOM      5  C   UNL     1       3.405   4.633  18.919  0.00  0.00    +0.000 A 
ATOM      6  C   UNL     1       3.196   3.589  19.813  0.00  0.00    +0.000 A 
ATOM      7  C   UNL     1       2.363   3.721  20.925  0.00  0.00    +0.000 A 
ATOM      8  C   UNL     1       1.717   4.924  21.155  0.00  0.00    +0.000 A 
ATOM      9  C   UNL     1       1.900   5.981  20.264  0.00  0.00    +0.000 A 
ATOM     10  C   UNL     1       2.747   5.861  19.130  0.00  0.00    +0.000 A 
ENDROOT
BRANCH   3  11
ATOM     11  C   UNL     1       5.436   5.082  15.920  0.00  0.00    +0.000 A 
ATOM     12  C   UNL     1       6.770   5.524  15.941  0.00  0.00    +0.000 A 
ATOM     13  C   UNL     1       7.609   5.201  14.890  0.00  0.00    +0.000 A 
ATOM     14  N   UNL     1       7.227   4.478  13.819  0.00  0.00    +0.000 NA
ATOM     15  C   UNL     1       5.947   4.052  13.807  0.00  0.00    +0.000 A 
ATOM     16  C   UNL     1       5.033   4.323  14.812  0.00  0.00    +0.000 A 
ENDBRANCH   3  11
BRANCH   1  18
ATOM     17  N   UNL     1       1.568   8.472  19.340  0.00  0.00    +0.000 N 
ATOM     18  C   UNL     1       2.334   8.213  18.212  0.00  0.00    +0.000 C 
ATOM     19  O   UNL     1       2.466   9.021  17.301  0.00  0.00    +0.000 OA
ATOM     20  H   UNL     1       1.640   7.859  20.140  0.00  0.00    +0.000 HD
BRANCH  17  26
ATOM     21  C   UNL     1       1.147  12.608  20.861  0.00  0.00    +0.000 C 
ATOM     22  C   UNL     1       0.164  11.496  21.259  0.00  0.00    +0.000 C 
ATOM     23  C   UNL     1      -1.155  11.632  20.482  0.00  0.00    +0.000 C 
ATOM     24  C   UNL     1      -1.014  11.276  19.003  0.00  0.00    +0.000 C 
ATOM     25  C   UNL     1      -0.347   9.919  18.780  0.00  0.00    +0.000 C 
ATOM     26  C   UNL     1       0.968   9.782  19.558  0.00  0.00    +0.000 C 
ATOM     27  C   UNL     1       0.785  10.089  21.065  0.00  0.00    +0.000 C 
ATOM     28  C   UNL     1      -0.055   9.015  21.783  0.00  0.00    +0.000 C 
ENDBRANCH  17  26
ENDBRANCH   1  18
TORSDOF 3
ENDMDL
MODEL 3
REMARK VINA RESULT:      -7.8      2.574      7.936
REMARK  Name = 
REMARK  5 active torsions:
REMARK  status: ('A' for Active; 'I' for Inactive)
REMARK    1  A    between atoms: C_1  and  C_2
REMARK    2  A    between atoms: C_6  and  N_7
REMARK    3  A    between atoms: C_8  and  C_10
REMARK    4  A    between atoms: C_12  and  C_13
REMARK    5  A    between atoms: C_26  and  C_27
REMARK                            x       y       z     vdW  Elec       q    Type
REMARK                         _______ _______ _______ _____ _____    ______ ____
ROOT
ATOM      1  C   UNL     1       0.922   8.975  18.950  0.00  0.00    +0.000 A 
ATOM      2  C   UNL     1      -0.032   9.338  17.998  0.00  0.00    +0.000 A 
ATOM      3  C   UNL     1      -1.163  10.032  18.394  0.00  0.00    +0.000 A 
ATOM      4  N   UNL     1      -1.362  10.365  19.689  0.00  0.00    +0.000 NA
ATOM      5  C   UNL     1      -0.470   9.986  20.621  0.00  0.00    +0.000 A 
ATOM      6  C   UNL     1      -0.735  10.331  21.942  0.00  0.00    +0.000 A 
ATOM      7  C   UNL     1       0.120   9.977  22.986  0.00  0.00    +0.000 A 
ATOM      8  C   UNL     1       1.273   9.261  22.712  0.00  0.00    +0.000 A 
ATOM      9  C   UNL     1       1.568   8.917  21.393  0.00  0.00    +0.000 A 
ATOM     10  C   UNL     1       0.706   9.268  20.321  0.00  0.00    +0.000 A 
ENDROOT
BRANCH   3  11
ATOM     11  C   UNL     1      -2.202  10.456  17.443  0.00  0.00    +0.000 A 
ATOM     12  C   UNL     1      -3.275  11.277  17.829  0.00  0.00    +0.000 A 
ATOM     13  C   UNL     1      -4.226  11.637  16.891  0.00  0.00    +0.000 A 
ATOM     14  N   UNL     1      -4.197  11.242  15.604  0.00  0.00    +0.000 NA
ATOM     15  C   UNL     1      -3.162  10.459  15.238  0.00  0.00    +0.000 A 
ATOM     16  C   UNL     1      -2.161  10.048  16.103  0.00  0.00    +0.000 A 
ENDBRANCH   3  11
BRANCH   1  18
ATOM     17  N   UNL     1       2.324   6.975  18.937  0.00  0.00    +0.000 N 
ATOM     18  C   UNL     1       2.140   8.263  18.456  0.00  0.00    +0.000 C 
ATOM     19  O   UNL     1       2.923   8.800  17.682  0.00  0.00    +0.000 OA
ATOM     20  H   UNL     1       1.567   6.511  19.418  0.00  0.00    +0.000 HD
BRANCH  17  26
ATOM     21  C   UNL     1       5.014   4.998  16.028  0.00  0.00    +0.000 C 
ATOM     22  C   UNL     1       4.094   4.191  16.957  0.00  0.00    +0.000 C 
ATOM     23  C   UNL     1       4.892   3.590  18.125  0.00  0.00    +0.000 C 
ATOM     24  C   UNL     1       5.350   4.640  19.135  0.00  0.00    +0.000 C 
ATOM     25  C   UNL     1       4.212   5.540  19.614  0.00  0.00    +0.000 C 
ATOM     26  C   UNL     1       3.413   6.138  18.449  0.00  0.00    +0.000 C 
ATOM     27  C   UNL     1       2.908   5.048  17.471  0.00  0.00    +0.000 C 
ATOM     28  C   UNL     1       1.821   4.156  18.101  0.00  0.00    +0.000 C 
ENDBRANCH  17  26
ENDBRANCH   1  18
TORSDOF 3
ENDMDL
MODEL 4
REMARK VINA RESULT:      -7.8      2.528      7.869
REMARK  Name = 
REMARK  5 active torsions:
REMARK  status: ('A' for Active; 'I' for Inactive)
REMARK    1  A    between atoms: C_1  and  C_2
REMARK    2  A    between atoms: C_6  and  N_7
REMARK    3  A    between atoms: C_8  and  C_10
REMARK    4  A    between atoms: C_12  and  C_13
REMARK    5  A    between atoms: C_26  and  C_27
REMARK                            x       y       z     vdW  Elec       q    Type
REMARK                         _______ _______ _______ _____ _____    ______ ____
ROOT
ATOM      1  C   UNL     1       1.365  10.041  19.283  0.00  0.00    +0.000 A 
ATOM      2  C   UNL     1       1.720  11.282  18.752  0.00  0.00    +0.000 A 
ATOM      3  C   UNL     1       1.413  12.437  19.451  0.00  0.00    +0.000 A 
ATOM      4  N   UNL     1       0.772  12.386  20.640  0.00  0.00    +0.000 NA
ATOM      5  C   UNL     1       0.389  11.199  21.142  0.00  0.00    +0.000 A 
ATOM      6  C   UNL     1      -0.290  11.204  22.355  0.00  0.00    +0.000 A 
ATOM      7  C   UNL     1      -0.741  10.029  22.958  0.00  0.00    +0.000 A 
ATOM      8  C   UNL     1      -0.509   8.812  22.338  0.00  0.00    +0.000 A 
ATOM      9  C   UNL     1       0.184   8.780  21.128  0.00  0.00    +0.000 A 
ATOM     10  C   UNL     1       0.645   9.969  20.503  0.00  0.00    +0.000 A 
ENDROOT
BRANCH   3  11
ATOM     11  C   UNL     1       1.768  13.776  18.956  0.00  0.00    +0.000 A 
ATOM     12  C   UNL     1       0.948  14.895  19.181  0.00  0.00    +0.000 A 
ATOM     13  C   UNL     1       1.331  16.128  18.684  0.00  0.00    +0.000 A 
ATOM     14  N   UNL     1       2.460  16.335  17.980  0.00  0.00    +0.000 NA
ATOM     15  C   UNL     1       3.246  15.259  17.772  0.00  0.00    +0.000 A 
ATOM     16  C   UNL     1       2.949  13.986  18.230  0.00  0.00    +0.000 A 
ENDBRANCH   3  11
BRANCH   1  18
ATOM     17  N   UNL     1       2.199   7.745  19.250  0.00  0.00    +0.000 N 
ATOM     18  C   UNL     1       1.760   8.828  18.503  0.00  0.00    +0.000 C 
ATOM     19  O   UNL     1       1.701   8.810  17.279  0.00  0.00    +0.000 OA
ATOM     20  H   UNL     1       2.054   7.739  20.250  0.00  0.00    +0.000 HD
BRANCH  17  26
ATOM     21  C   UNL     1       1.489   3.801  17.367  0.00  0.00    +0.000 C 
ATOM     22  C   UNL     1       2.252   3.938  18.693  0.00  0.00    +0.000 C 
ATOM     23  C   UNL     1       3.765   3.789  18.470  0.00  0.00    +0.000 C 
ATOM     24  C   UNL     1       4.380   4.985  17.743  0.00  0.00    +0.000 C 
ATOM     25  C   UNL     1       4.019   6.322  18.389  0.00  0.00    +0.000 C 
ATOM     26  C   UNL     1       2.509   6.469  18.616  0.00  0.00    +0.000 C 
ATOM     27  C   UNL     1       1.921   5.275  19.407  0.00  0.00    +0.000 C 
ATOM     28  C   UNL     1       2.402   5.249  20.871  0.00  0.00    +0.000 C 
ENDBRANCH  17  26
ENDBRANCH   1  18
TORSDOF 3
ENDMDL
MODEL 5
REMARK VINA RESULT:      -7.5      1.460      2.180
REMARK  Name = 
REMARK  5 active torsions:
REMARK  status: ('A' for Active; 'I' for Inactive)
REMARK    1  A    between atoms: C_1  and  C_2
REMARK    2  A    between atoms: C_6  and  N_7
REMARK    3  A    between atoms: C_8  and  C_10
REMARK    4  A    between atoms: C_12  and  C_13
REMARK    5  A    between atoms: C_26  and  C_27
REMARK                            x       y       z     vdW  Elec       q    Type
REMARK                         _______ _______ _______ _____ _____    ______ ____
ROOT
ATOM      1  C   UNL     1       2.924   7.384  18.000  0.00  0.00    +0.000 A 
ATOM      2  C   UNL     1       3.838   7.017  17.011  0.00  0.00    +0.000 A 
ATOM      3  C   UNL     1       4.409   5.756  17.043  0.00  0.00    +0.000 A 
ATOM      4  N   UNL     1       4.098   4.871  18.017  0.00  0.00    +0.000 NA
ATOM      5  C   UNL     1       3.251   5.228  18.998  0.00  0.00    +0.000 A 
ATOM      6  C   UNL     1       2.986   4.291  19.990  0.00  0.00    +0.000 A 
ATOM      7  C   UNL     1       2.129   4.564  21.058  0.00  0.00    +0.000 A 
ATOM      8  C   UNL     1       1.517   5.803  21.142  0.00  0.00    +0.000 A 
ATOM      9  C   UNL     1       1.755   6.754  20.150  0.00  0.00    +0.000 A 
ATOM     10  C   UNL     1       2.626   6.490  19.060  0.00  0.00    +0.000 A 
ENDROOT
BRANCH   3  11
ATOM     11  C   UNL     1       5.369   5.299  16.027  0.00  0.00    +0.000 A 
ATOM     12  C   UNL     1       6.730   5.644  16.079  0.00  0.00    +0.000 A 
ATOM     13  C   UNL     1       7.585   5.191  15.090  0.00  0.00    +0.000 A 
ATOM     14  N   UNL     1       7.193   4.427  14.052  0.00  0.00    +0.000 NA
ATOM     15  C   UNL     1       5.886   4.094  14.010  0.00  0.00    +0.000 A 
ATOM     16  C   UNL     1       4.956   4.497  14.954  0.00  0.00    +0.000 A 
ENDBRANCH   3  11
BRANCH   1  18
ATOM     17  N   UNL     1       0.950   8.816  18.151  0.00  0.00    +0.000 N 
ATOM     18  C   UNL     1       2.311   8.743  17.889  0.00  0.00    +0.000 C 
ATOM     19  O   UNL     1       2.979   9.721  17.577  0.00  0.00    +0.000 OA
ATOM     20  H   UNL     1       0.485   8.030  18.582  0.00  0.00    +0.000 HD
BRANCH  17  26
ATOM     21  C   UNL     1       0.348  13.158  18.773  0.00  0.00    +0.000 C 
ATOM     22  C   UNL     1      -0.430  12.109  19.583  0.00  0.00    +0.000 C 
ATOM     23  C   UNL     1      -1.867  11.971  19.056  0.00  0.00    +0.000 C 
ATOM     24  C   UNL     1      -1.937  11.285  17.692  0.00  0.00    +0.000 C 
ATOM     25  C   UNL     1      -1.176   9.960  17.654  0.00  0.00    +0.000 C 
ATOM     26  C   UNL     1       0.258  10.098  18.183  0.00  0.00    +0.000 C 
ATOM     27  C   UNL     1       0.298  10.740  19.591  0.00  0.00    +0.000 C 
ATOM     28  C   UNL     1      -0.291   9.814  20.673  0.00  0.00    +0.000 C 
ENDBRANCH  17  26
ENDBRANCH   1  18
TORSDOF 3
ENDMDL
MODEL 6
REMARK VINA RESULT:      -7.5      0.974      1.393
REMARK  Name = 
REMARK  5 active torsions:
REMARK  status: ('A' for Active; 'I' for Inactive)
REMARK    1  A    between atoms: C_1  and  C_2
REMARK    2  A    between atoms: C_6  and  N_7
REMARK    3  A    between atoms: C_8  and  C_10
REMARK    4  A    between atoms: C_12  and  C_13
REMARK    5  A    between atoms: C_26  and  C_27
REMARK                            x       y       z     vdW  Elec       q    Type
REMARK                         _______ _______ _______ _____ _____    ______ ____
ROOT
ATOM      1  C   UNL     1       2.541   6.068  19.534  0.00  0.00    +0.000 A 
ATOM      2  C   UNL     1       3.603   6.333  18.669  0.00  0.00    +0.000 A 
ATOM      3  C   UNL     1       4.315   5.280  18.119  0.00  0.00    +0.000 A 
ATOM      4  N   UNL     1       4.001   3.997  18.406  0.00  0.00    +0.000 NA
ATOM      5  C   UNL     1       3.007   3.730  19.270  0.00  0.00    +0.000 A 
ATOM      6  C   UNL     1       2.742   2.394  19.551  0.00  0.00    +0.000 A 
ATOM      7  C   UNL     1       1.738   2.009  20.441  0.00  0.00    +0.000 A 
ATOM      8  C   UNL     1       0.974   2.978  21.069  0.00  0.00    +0.000 A 
ATOM      9  C   UNL     1       1.210   4.324  20.791  0.00  0.00    +0.000 A 
ATOM     10  C   UNL     1       2.230   4.730  19.890  0.00  0.00    +0.000 A 
ENDROOT
BRANCH   3  11
ATOM     11  C   UNL     1       5.437   5.487  17.191  0.00  0.00    +0.000 A 
ATOM     12  C   UNL     1       5.544   4.779  15.981  0.00  0.00    +0.000 A 
ATOM     13  C   UNL     1       6.626   5.011  15.152  0.00  0.00    +0.000 A 
ATOM     14  N   UNL     1       7.612   5.886  15.431  0.00  0.00    +0.000 NA
ATOM     15  C   UNL     1       7.501   6.567  16.591  0.00  0.00    +0.000 A 
ATOM     16  C   UNL     1       6.455   6.405  17.484  0.00  0.00    +0.000 A 
ENDBRANCH   3  11
BRANCH   1  18
ATOM     17  N   UNL     1       1.643   8.314  19.193  0.00  0.00    +0.000 N 
ATOM     18  C   UNL     1       1.784   7.243  20.064  0.00  0.00    +0.000 C 
ATOM     19  O   UNL     1       1.330   7.249  21.202  0.00  0.00    +0.000 OA
ATOM     20  H   UNL     1       1.867   8.193  18.216  0.00  0.00    +0.000 HD
BRANCH  17  26
ATOM     21  C   UNL     1      -1.574  11.341  18.900  0.00  0.00    +0.000 C 
ATOM     22  C   UNL     1      -0.090  11.728  18.817  0.00  0.00    +0.000 C 
ATOM     23  C   UNL     1       0.387  12.343  20.142  0.00  0.00    +0.000 C 
ATOM     24  C   UNL     1       0.494  11.317  21.269  0.00  0.00    +0.000 C 
ATOM     25  C   UNL     1       1.309  10.085  20.876  0.00  0.00    +0.000 C 
ATOM     26  C   UNL     1       0.836   9.474  19.551  0.00  0.00    +0.000 C 
ATOM     27  C   UNL     1       0.793  10.520  18.410  0.00  0.00    +0.000 C 
ATOM     28  C   UNL     1       2.201  10.987  17.992  0.00  0.00    +0.000 C 
ENDBRANCH  17  26
ENDBRANCH   1  18
TORSDOF 3
ENDMDL
MODEL 7
REMARK VINA RESULT:      -7.2      3.984      7.936
REMARK  Name = 
REMARK  5 active torsions:
REMARK  status: ('A' for Active; 'I' for Inactive)
REMARK    1  A    between atoms: C_1  and  C_2
REMARK    2  A    between atoms: C_6  and  N_7
REMARK    3  A    between atoms: C_8  and  C_10
REMARK    4  A    between atoms: C_12  and  C_13
REMARK    5  A    between atoms: C_26  and  C_27
REMARK                            x       y       z     vdW  Elec       q    Type
REMARK                         _______ _______ _______ _____ _____    ______ ____
ROOT
ATOM      1  C   UNL     1      -1.027  12.230  19.745  0.00  0.00    +0.000 A 
ATOM      2  C   UNL     1      -0.498  10.942  19.643  0.00  0.00    +0.000 A 
ATOM      3  C   UNL     1       0.812  10.773  19.227  0.00  0.00    +0.000 A 
ATOM      4  N   UNL     1       1.590  11.834  18.916  0.00  0.00    +0.000 NA
ATOM      5  C   UNL     1       1.079  13.077  18.972  0.00  0.00    +0.000 A 
ATOM      6  C   UNL     1       1.913  14.130  18.616  0.00  0.00    +0.000 A 
ATOM      7  C   UNL     1       1.479  15.457  18.630  0.00  0.00    +0.000 A 
ATOM      8  C   UNL     1       0.179  15.745  19.009  0.00  0.00    +0.000 A 
ATOM      9  C   UNL     1      -0.672  14.706  19.384  0.00  0.00    +0.000 A 
ATOM     10  C   UNL     1      -0.244  13.352  19.373  0.00  0.00    +0.000 A 
ENDROOT
BRANCH   3  11
ATOM     11  C   UNL     1       1.436   9.447  19.108  0.00  0.00    +0.000 A 
ATOM     12  C   UNL     1       1.438   8.527  20.170  0.00  0.00    +0.000 A 
ATOM     13  C   UNL     1       2.048   7.296  20.002  0.00  0.00    +0.000 A 
ATOM     14  N   UNL     1       2.660   6.912  18.865  0.00  0.00    +0.000 NA
ATOM     15  C   UNL     1       2.650   7.797  17.847  0.00  0.00    +0.000 A 
ATOM     16  C   UNL     1       2.064   9.050  17.919  0.00  0.00    +0.000 A 
ENDBRANCH   3  11
BRANCH   1  18
ATOM     17  N   UNL     1      -3.418  12.362  19.261  0.00  0.00    +0.000 N 
ATOM     18  C   UNL     1      -2.433  12.351  20.238  0.00  0.00    +0.000 C 
ATOM     19  O   UNL     1      -2.684  12.443  21.434  0.00  0.00    +0.000 OA
ATOM     20  H   UNL     1      -3.183  12.098  18.315  0.00  0.00    +0.000 HD
BRANCH  17  26
ATOM     21  C   UNL     1      -7.414  10.752  20.282  0.00  0.00    +0.000 C 
ATOM     22  C   UNL     1      -7.179  11.588  19.015  0.00  0.00    +0.000 C 
ATOM     23  C   UNL     1      -7.693  13.024  19.208  0.00  0.00    +0.000 C 
ATOM     24  C   UNL     1      -6.829  13.840  20.169  0.00  0.00    +0.000 C 
ATOM     25  C   UNL     1      -5.344  13.800  19.814  0.00  0.00    +0.000 C 
ATOM     26  C   UNL     1      -4.831  12.367  19.618  0.00  0.00    +0.000 C 
ATOM     27  C   UNL     1      -5.686  11.580  18.594  0.00  0.00    +0.000 C 
ATOM     28  C   UNL     1      -5.519  12.114  17.158  0.00  0.00    +0.000 C 
ENDBRANCH  17  26
ENDBRANCH   1  18
TORSDOF 3
ENDMDL
MODEL 8
REMARK VINA RESULT:      -7.1      1.853      4.771
REMARK  Name = 
REMARK  5 active torsions:
REMARK  status: ('A' for Active; 'I' for Inactive)
REMARK    1  A    between atoms: C_1  and  C_2
REMARK    2  A    between atoms: C_6  and  N_7
REMARK    3  A    between atoms: C_8  and  C_10
REMARK    4  A    between atoms: C_12  and  C_13
REMARK    5  A    between atoms: C_26  and  C_27
REMARK                            x       y       z     vdW  Elec       q    Type
REMARK                         _______ _______ _______ _____ _____    ______ ____
ROOT
ATOM      1  C   UNL     1       3.059   6.867  18.079  0.00  0.00    +0.000 A 
ATOM      2  C   UNL     1       2.604   6.002  19.075  0.00  0.00    +0.000 A 
ATOM      3  C   UNL     1       3.135   4.727  19.168  0.00  0.00    +0.000 A 
ATOM      4  N   UNL     1       4.088   4.302  18.308  0.00  0.00    +0.000 NA
ATOM      5  C   UNL     1       4.506   5.112  17.319  0.00  0.00    +0.000 A 
ATOM      6  C   UNL     1       5.468   4.616  16.447  0.00  0.00    +0.000 A 
ATOM      7  C   UNL     1       5.961   5.371  15.381  0.00  0.00    +0.000 A 
ATOM      8  C   UNL     1       5.485   6.655  15.177  0.00  0.00    +0.000 A 
ATOM      9  C   UNL     1       4.531   7.180  16.048  0.00  0.00    +0.000 A 
ATOM     10  C   UNL     1       4.019   6.422  17.135  0.00  0.00    +0.000 A 
ENDROOT
BRANCH   3  11
ATOM     11  C   UNL     1       2.711   3.769  20.200  0.00  0.00    +0.000 A 
ATOM     12  C   UNL     1       1.439   3.830  20.795  0.00  0.00    +0.000 A 
ATOM     13  C   UNL     1       1.099   2.906  21.766  0.00  0.00    +0.000 A 
ATOM     14  N   UNL     1       1.923   1.931  22.196  0.00  0.00    +0.000 NA
ATOM     15  C   UNL     1       3.140   1.873  21.617  0.00  0.00    +0.000 A 
ATOM     16  C   UNL     1       3.571   2.752  20.636  0.00  0.00    +0.000 A 
ENDBRANCH   3  11
BRANCH   1  18
ATOM     17  N   UNL     1       1.622   8.559  19.101  0.00  0.00    +0.000 N 
ATOM     18  C   UNL     1       2.477   8.244  18.054  0.00  0.00    +0.000 C 
ATOM     19  O   UNL     1       2.742   9.033  17.155  0.00  0.00    +0.000 OA
ATOM     20  H   UNL     1       1.582   7.953  19.909  0.00  0.00    +0.000 HD
BRANCH  17  26
ATOM     21  C   UNL     1       1.319  12.750  20.495  0.00  0.00    +0.000 C 
ATOM     22  C   UNL     1       0.259  11.699  20.856  0.00  0.00    +0.000 C 
ATOM     23  C   UNL     1      -1.002  11.879  19.995  0.00  0.00    +0.000 C 
ATOM     24  C   UNL     1      -0.787  11.477  18.536  0.00  0.00    +0.000 C 
ATOM     25  C   UNL     1      -0.179  10.084  18.387  0.00  0.00    +0.000 C 
ATOM     26  C   UNL     1       1.077   9.902  19.250  0.00  0.00    +0.000 C 
ATOM     27  C   UNL     1       0.818  10.257  20.735  0.00  0.00    +0.000 C 
ATOM     28  C   UNL     1      -0.119   9.246  21.423  0.00  0.00    +0.000 C 
ENDBRANCH  17  26
ENDBRANCH   1  18
TORSDOF 3
ENDMDL
MODEL 9
REMARK VINA RESULT:      -7.1      3.049      6.127
REMARK  Name = 
REMARK  5 active torsions:
REMARK  status: ('A' for Active; 'I' for Inactive)
REMARK    1  A    between atoms: C_1  and  C_2
REMARK    2  A    between atoms: C_6  and  N_7
REMARK    3  A    between atoms: C_8  and  C_10
REMARK    4  A    between atoms: C_12  and  C_13
REMARK    5  A    between atoms: C_26  and  C_27
REMARK                            x       y       z     vdW  Elec       q    Type
REMARK                         _______ _______ _______ _____ _____    ______ ____
ROOT
ATOM      1  C   UNL     1       0.602  11.161  19.610  0.00  0.00    +0.000 A 
ATOM      2  C   UNL     1       1.366  10.184  18.968  0.00  0.00    +0.000 A 
ATOM      3  C   UNL     1       1.517   8.940  19.556  0.00  0.00    +0.000 A 
ATOM      4  N   UNL     1       0.939   8.652  20.744  0.00  0.00    +0.000 NA
ATOM      5  C   UNL     1       0.236   9.597  21.391  0.00  0.00    +0.000 A 
ATOM      6  C   UNL     1      -0.315   9.258  22.622  0.00  0.00    +0.000 A 
ATOM      7  C   UNL     1      -1.054  10.168  23.380  0.00  0.00    +0.000 A 
ATOM      8  C   UNL     1      -1.253  11.452  22.901  0.00  0.00    +0.000 A 
ATOM      9  C   UNL     1      -0.723  11.811  21.662  0.00  0.00    +0.000 A 
ATOM     10  C   UNL     1       0.033  10.896  20.882  0.00  0.00    +0.000 A 
ENDROOT
BRANCH   3  11
ATOM     11  C   UNL     1       2.297   7.862  18.930  0.00  0.00    +0.000 A 
ATOM     12  C   UNL     1       2.364   6.572  19.485  0.00  0.00    +0.000 A 
ATOM     13  C   UNL     1       3.121   5.600  18.854  0.00  0.00    +0.000 A 
ATOM     14  N   UNL     1       3.817   5.810  17.721  0.00  0.00    +0.000 NA
ATOM     15  C   UNL     1       3.744   7.048  17.189  0.00  0.00    +0.000 A 
ATOM     16  C   UNL     1       3.013   8.084  17.746  0.00  0.00    +0.000 A 
ENDBRANCH   3  11
BRANCH   1  18
ATOM     17  N   UNL     1       1.197  13.522  19.406  0.00  0.00    +0.000 N 
ATOM     18  C   UNL     1       0.441  12.470  18.907  0.00  0.00    +0.000 C 
ATOM     19  O   UNL     1      -0.322  12.594  17.957  0.00  0.00    +0.000 OA
ATOM     20  H   UNL     1       1.942  13.331  20.061  0.00  0.00    +0.000 HD
BRANCH  17  26
ATOM     21  C   UNL     1       2.748  16.905  17.008  0.00  0.00    +0.000 C 
ATOM     22  C   UNL     1       2.381  17.066  18.490  0.00  0.00    +0.000 C 
ATOM     23  C   UNL     1       1.026  17.776  18.642  0.00  0.00    +0.000 C 
ATOM     24  C   UNL     1      -0.154  16.900  18.222  0.00  0.00    +0.000 C 
ATOM     25  C   UNL     1      -0.142  15.526  18.890  0.00  0.00    +0.000 C 
ATOM     26  C   UNL     1       1.211  14.819  18.742  0.00  0.00    +0.000 C 
ATOM     27  C   UNL     1       2.385  15.703  19.231  0.00  0.00    +0.000 C 
ATOM     28  C   UNL     1       2.365  15.910  20.758  0.00  0.00    +0.000 C 
ENDBRANCH  17  26
ENDBRANCH   1  18
TORSDOF 3
ENDMDL
