MODEL 1
REMARK VINA RESULT:      -8.6      0.000      0.000
REMARK  Name = 
REMARK  6 active torsions:
REMARK  status: ('A' for Active; 'I' for Inactive)
REMARK    1  A    between atoms: C_1  and  C_2
REMARK    2  A    between atoms: C_6  and  N_7
REMARK    3  A    between atoms: N_7  and  C_8
REMARK    4  A    between atoms: C_11  and  C_12
REMARK    5  A    between atoms: C_12  and  C_13
REMARK    6  A    between atoms: C_13  and  C_14
REMARK                            x       y       z     vdW  Elec       q    Type
REMARK                         _______ _______ _______ _____ _____    ______ ____
ROOT
ATOM      1  C   UNL     1       6.564   5.271  18.126  0.00  0.00    +0.000 A 
ATOM      2  C   UNL     1       7.651   5.620  18.934  0.00  0.00    +0.000 A 
ATOM      3  C   UNL     1       8.229   6.892  18.851  0.00  0.00    +0.000 A 
ATOM      4  C   UNL     1       7.747   7.836  17.938  0.00  0.00    +0.000 A 
ATOM      5  C   UNL     1       6.661   7.492  17.124  0.00  0.00    +0.000 A 
ATOM      6  C   UNL     1       6.083   6.221  17.216  0.00  0.00    +0.000 A 
ENDROOT
BRANCH   1   7
ATOM      7  N   UNL     1       6.024   3.976  18.248  0.00  0.00    +0.000 N 
ATOM      8  H   UNL     1       6.439   3.326  17.586  0.00  0.00    +0.000 HD
BRANCH   7  14
ATOM      9  C   UNL     1       2.458   3.080  21.312  0.00  0.00    +0.000 C 
ATOM     10  C   UNL     1       2.923   3.202  19.891  0.00  0.00    +0.000 A 
ATOM     11  C   UNL     1       2.048   2.945  18.842  0.00  0.00    +0.000 A 
ATOM     12  C   UNL     1       2.525   3.029  17.542  0.00  0.00    +0.000 A 
ATOM     13  C   UNL     1       3.858   3.362  17.333  0.00  0.00    +0.000 A 
ATOM     14  C   UNL     1       4.683   3.606  18.428  0.00  0.00    +0.000 A 
ATOM     15  N   UNL     1       4.222   3.545  19.696  0.00  0.00    +0.000 NA
ENDBRANCH   7  14
ENDBRANCH   1   7
BRANCH   4  16
ATOM     16  C   UNL     1       8.398   9.190  17.822  0.00  0.00    +0.000 C 
BRANCH  16  17
ATOM     17  C   UNL     1       9.031   9.680  19.131  0.00  0.00    +0.000 C 
BRANCH  17  18
ATOM     18  C   UNL     1       9.407  11.169  19.149  0.00  0.00    +0.000 C 
ATOM     19  C   UNL     1      10.508  11.528  20.134  0.00  0.00    +0.000 C 
ATOM     20  O   UNL     1      11.660  11.748  19.333  0.00  0.00    +0.000 OA
ATOM     21  C   UNL     1      11.201  11.767  18.065  0.00  0.00    +0.000 C 
ATOM     22  N   UNL     1      12.145  12.087  17.162  0.00  0.00    +0.000 N 
ATOM     23  N   UNL     1       9.962  11.518  17.826  0.00  0.00    +0.000 NA
ATOM     24  H   UNL     1      12.924  12.611  17.539  0.00  0.00    +0.000 HD
ATOM     25  H   UNL     1      11.769  12.437  16.290  0.00  0.00    +0.000 HD
ENDBRANCH  17  18
ENDBRANCH  16  17
ENDBRANCH   4  16
TORSDOF 5
ENDMDL
MODEL 2
REMARK VINA RESULT:      -8.4      0.719      1.264
REMARK  Name = 
REMARK  6 active torsions:
REMARK  status: ('A' for Active; 'I' for Inactive)
REMARK    1  A    between atoms: C_1  and  C_2
REMARK    2  A    between atoms: C_6  and  N_7
REMARK    3  A    between atoms: N_7  and  C_8
REMARK    4  A    between atoms: C_11  and  C_12
REMARK    5  A    between atoms: C_12  and  C_13
REMARK    6  A    between atoms: C_13  and  C_14
REMARK                            x       y       z     vdW  Elec       q    Type
REMARK                         _______ _______ _______ _____ _____    ______ ____
ROOT
ATOM      1  C   UNL     1       6.287   5.039  18.056  0.00  0.00    +0.000 A 
ATOM      2  C   UNL     1       5.766   5.980  17.162  0.00  0.00    +0.000 A 
ATOM      3  C   UNL     1       6.345   7.248  17.037  0.00  0.00    +0.000 A 
ATOM      4  C   UNL     1       7.444   7.611  17.822  0.00  0.00    +0.000 A 
ATOM      5  C   UNL     1       7.969   6.675  18.720  0.00  0.00    +0.000 A 
ATOM      6  C   UNL     1       7.390   5.406  18.838  0.00  0.00    +0.000 A 
ENDROOT
BRANCH   1   7
ATOM      7  N   UNL     1       5.663   3.779  18.146  0.00  0.00    +0.000 N 
ATOM      8  H   UNL     1       5.886   3.186  17.352  0.00  0.00    +0.000 HD
BRANCH   7  14
ATOM      9  C   UNL     1       1.879   5.012  20.804  0.00  0.00    +0.000 C 
ATOM     10  C   UNL     1       2.485   4.081  19.796  0.00  0.00    +0.000 A 
ATOM     11  C   UNL     1       1.759   2.997  19.317  0.00  0.00    +0.000 A 
ATOM     12  C   UNL     1       2.367   2.136  18.416  0.00  0.00    +0.000 A 
ATOM     13  C   UNL     1       3.678   2.382  18.027  0.00  0.00    +0.000 A 
ATOM     14  C   UNL     1       4.350   3.485  18.545  0.00  0.00    +0.000 A 
ATOM     15  N   UNL     1       3.760   4.340  19.407  0.00  0.00    +0.000 NA
ENDBRANCH   7  14
ENDBRANCH   1   7
BRANCH   4  16
ATOM     16  C   UNL     1       8.039   8.992  17.714  0.00  0.00    +0.000 C 
BRANCH  16  17
ATOM     17  C   UNL     1       8.893   9.387  18.926  0.00  0.00    +0.000 C 
BRANCH  17  18
ATOM     18  C   UNL     1       9.217  10.885  19.027  0.00  0.00    +0.000 C 
ATOM     19  C   UNL     1      10.126  11.256  20.188  0.00  0.00    +0.000 C 
ATOM     20  O   UNL     1      11.390  11.520  19.595  0.00  0.00    +0.000 OA
ATOM     21  C   UNL     1      11.150  11.550  18.269  0.00  0.00    +0.000 C 
ATOM     22  N   UNL     1      12.222  11.912  17.542  0.00  0.00    +0.000 N 
ATOM     23  N   UNL     1       9.976  11.273  17.821  0.00  0.00    +0.000 NA
ATOM     24  H   UNL     1      12.911  12.449  18.051  0.00  0.00    +0.000 HD
ATOM     25  H   UNL     1      11.988  12.266  16.624  0.00  0.00    +0.000 HD
ENDBRANCH  17  18
ENDBRANCH  16  17
ENDBRANCH   4  16
TORSDOF 5
ENDMDL
MODEL 3
REMARK VINA RESULT:      -8.0      1.447      1.732
REMARK  Name = 
REMARK  6 active torsions:
REMARK  status: ('A' for Active; 'I' for Inactive)
REMARK    1  A    between atoms: C_1  and  C_2
REMARK    2  A    between atoms: C_6  and  N_7
REMARK    3  A    between atoms: N_7  and  C_8
REMARK    4  A    between atoms: C_11  and  C_12
REMARK    5  A    between atoms: C_12  and  C_13
REMARK    6  A    between atoms: C_13  and  C_14
REMARK                            x       y       z     vdW  Elec       q    Type
REMARK                         _______ _______ _______ _____ _____    ______ ____
ROOT
ATOM      1  C   UNL     1       6.164   4.913  18.630  0.00  0.00    +0.000 A 
ATOM      2  C   UNL     1       7.387   5.330  19.166  0.00  0.00    +0.000 A 
ATOM      3  C   UNL     1       8.001   6.508  18.723  0.00  0.00    +0.000 A 
ATOM      4  C   UNL     1       7.415   7.282  17.716  0.00  0.00    +0.000 A 
ATOM      5  C   UNL     1       6.192   6.868  17.174  0.00  0.00    +0.000 A 
ATOM      6  C   UNL     1       5.580   5.693  17.624  0.00  0.00    +0.000 A 
ENDROOT
BRANCH   1   7
ATOM      7  N   UNL     1       5.594   3.717  19.109  0.00  0.00    +0.000 N 
ATOM      8  H   UNL     1       6.209   2.920  18.973  0.00  0.00    +0.000 HD
BRANCH   7  14
ATOM      9  C   UNL     1       1.314   3.064  21.149  0.00  0.00    +0.000 C 
ATOM     10  C   UNL     1       2.173   2.973  19.923  0.00  0.00    +0.000 A 
ATOM     11  C   UNL     1       1.657   2.458  18.740  0.00  0.00    +0.000 A 
ATOM     12  C   UNL     1       2.494   2.353  17.639  0.00  0.00    +0.000 A 
ATOM     13  C   UNL     1       3.817   2.760  17.756  0.00  0.00    +0.000 A 
ATOM     14  C   UNL     1       4.272   3.267  18.970  0.00  0.00    +0.000 A 
ATOM     15  N   UNL     1       3.460   3.391  20.041  0.00  0.00    +0.000 NA
ENDBRANCH   7  14
ENDBRANCH   1   7
BRANCH   4  16
ATOM     16  C   UNL     1       8.098   8.527  17.213  0.00  0.00    +0.000 C 
BRANCH  16  17
ATOM     17  C   UNL     1       7.945   9.732  18.151  0.00  0.00    +0.000 C 
BRANCH  17  18
ATOM     18  C   UNL     1       9.242  10.511  18.418  0.00  0.00    +0.000 C 
ATOM     19  C   UNL     1       9.107  12.020  18.287  0.00  0.00    +0.000 C 
ATOM     20  O   UNL     1       9.114  12.507  19.622  0.00  0.00    +0.000 OA
ATOM     21  C   UNL     1       9.467  11.445  20.375  0.00  0.00    +0.000 C 
ATOM     22  N   UNL     1       9.645  11.750  21.673  0.00  0.00    +0.000 N 
ATOM     23  N   UNL     1       9.625  10.292  19.827  0.00  0.00    +0.000 NA
ATOM     24  H   UNL     1       9.856  12.723  21.849  0.00  0.00    +0.000 HD
ATOM     25  H   UNL     1      10.223  11.084  22.169  0.00  0.00    +0.000 HD
ENDBRANCH  17  18
ENDBRANCH  16  17
ENDBRANCH   4  16
TORSDOF 5
ENDMDL
MODEL 4
REMARK VINA RESULT:      -7.9      1.464      2.010
REMARK  Name = 
REMARK  6 active torsions:
REMARK  status: ('A' for Active; 'I' for Inactive)
REMARK    1  A    between atoms: C_1  and  C_2
REMARK    2  A    between atoms: C_6  and  N_7
REMARK    3  A    between atoms: N_7  and  C_8
REMARK    4  A    between atoms: C_11  and  C_12
REMARK    5  A    between atoms: C_12  and  C_13
REMARK    6  A    between atoms: C_13  and  C_14
REMARK                            x       y       z     vdW  Elec       q    Type
REMARK                         _______ _______ _______ _____ _____    ______ ____
ROOT
ATOM      1  C   UNL     1       6.250   4.885  18.541  0.00  0.00    +0.000 A 
ATOM      2  C   UNL     1       5.751   5.604  17.450  0.00  0.00    +0.000 A 
ATOM      3  C   UNL     1       6.375   6.780  17.019  0.00  0.00    +0.000 A 
ATOM      4  C   UNL     1       7.500   7.276  17.686  0.00  0.00    +0.000 A 
ATOM      5  C   UNL     1       8.003   6.562  18.781  0.00  0.00    +0.000 A 
ATOM      6  C   UNL     1       7.378   5.384  19.204  0.00  0.00    +0.000 A 
ENDROOT
BRANCH   1   7
ATOM      7  N   UNL     1       5.579   3.710  18.935  0.00  0.00    +0.000 N 
ATOM      8  H   UNL     1       6.106   2.874  18.701  0.00  0.00    +0.000 HD
BRANCH   7  14
ATOM      9  C   UNL     1       1.127   4.417  20.543  0.00  0.00    +0.000 C 
ATOM     10  C   UNL     1       2.039   3.758  19.551  0.00  0.00    +0.000 A 
ATOM     11  C   UNL     1       1.525   2.894  18.591  0.00  0.00    +0.000 A 
ATOM     12  C   UNL     1       2.404   2.273  17.716  0.00  0.00    +0.000 A 
ATOM     13  C   UNL     1       3.765   2.530  17.831  0.00  0.00    +0.000 A 
ATOM     14  C   UNL     1       4.215   3.405  18.815  0.00  0.00    +0.000 A 
ATOM     15  N   UNL     1       3.365   4.029  19.659  0.00  0.00    +0.000 NA
ENDBRANCH   7  14
ENDBRANCH   1   7
BRANCH   4  16
ATOM     16  C   UNL     1       8.145   8.565  17.245  0.00  0.00    +0.000 C 
BRANCH  16  17
ATOM     17  C   UNL     1       8.051   9.686  18.289  0.00  0.00    +0.000 C 
BRANCH  17  18
ATOM     18  C   UNL     1       9.324  10.530  18.448  0.00  0.00    +0.000 C 
ATOM     19  C   UNL     1       9.119  12.023  18.247  0.00  0.00    +0.000 C 
ATOM     20  O   UNL     1       9.172  12.580  19.553  0.00  0.00    +0.000 OA
ATOM     21  C   UNL     1       9.608  11.575  20.339  0.00  0.00    +0.000 C 
ATOM     22  N   UNL     1       9.838  11.956  21.609  0.00  0.00    +0.000 N 
ATOM     23  N   UNL     1       9.787  10.402  19.844  0.00  0.00    +0.000 NA
ATOM     24  H   UNL     1      10.016  12.944  21.724  0.00  0.00    +0.000 HD
ATOM     25  H   UNL     1      10.467  11.340  22.108  0.00  0.00    +0.000 HD
ENDBRANCH  17  18
ENDBRANCH  16  17
ENDBRANCH   4  16
TORSDOF 5
ENDMDL
MODEL 5
REMARK VINA RESULT:      -7.9      5.304      8.481
REMARK  Name = 
REMARK  6 active torsions:
REMARK  status: ('A' for Active; 'I' for Inactive)
REMARK    1  A    between atoms: C_1  and  C_2
REMARK    2  A    between atoms: C_6  and  N_7
REMARK    3  A    between atoms: N_7  and  C_8
REMARK    4  A    between atoms: C_11  and  C_12
REMARK    5  A    between atoms: C_12  and  C_13
REMARK    6  A    between atoms: C_13  and  C_14
REMARK                            x       y       z     vdW  Elec       q    Type
REMARK                         _______ _______ _______ _____ _____    ______ ____
ROOT
ATOM      1  C   UNL     1       5.787   5.193  17.388  0.00  0.00    +0.000 A 
ATOM      2  C   UNL     1       4.583   5.666  16.855  0.00  0.00    +0.000 A 
ATOM      3  C   UNL     1       3.464   5.862  17.672  0.00  0.00    +0.000 A 
ATOM      4  C   UNL     1       3.518   5.566  19.038  0.00  0.00    +0.000 A 
ATOM      5  C   UNL     1       4.719   5.089  19.577  0.00  0.00    +0.000 A 
ATOM      6  C   UNL     1       5.836   4.900  18.756  0.00  0.00    +0.000 A 
ENDROOT
BRANCH   1   7
ATOM      7  N   UNL     1       6.880   5.009  16.519  0.00  0.00    +0.000 N 
ATOM      8  H   UNL     1       7.632   5.666  16.708  0.00  0.00    +0.000 HD
BRANCH   7  14
ATOM      9  C   UNL     1       8.603   6.133  12.197  0.00  0.00    +0.000 C 
ATOM     10  C   UNL     1       7.708   5.265  13.031  0.00  0.00    +0.000 A 
ATOM     11  C   UNL     1       6.915   4.294  12.431  0.00  0.00    +0.000 A 
ATOM     12  C   UNL     1       6.071   3.537  13.231  0.00  0.00    +0.000 A 
ATOM     13  C   UNL     1       6.043   3.777  14.599  0.00  0.00    +0.000 A 
ATOM     14  C   UNL     1       6.862   4.765  15.137  0.00  0.00    +0.000 A 
ATOM     15  N   UNL     1       7.701   5.494  14.370  0.00  0.00    +0.000 NA
ENDBRANCH   7  14
ENDBRANCH   1   7
BRANCH   4  16
ATOM     16  C   UNL     1       2.299   5.739  19.907  0.00  0.00    +0.000 C 
BRANCH  16  17
ATOM     17  C   UNL     1       2.213   4.720  21.052  0.00  0.00    +0.000 C 
BRANCH  17  18
ATOM     18  C   UNL     1       1.494   3.409  20.698  0.00  0.00    +0.000 C 
ATOM     19  C   UNL     1       0.672   3.468  19.419  0.00  0.00    +0.000 C 
ATOM     20  O   UNL     1       1.431   2.742  18.462  0.00  0.00    +0.000 OA
ATOM     21  C   UNL     1       2.405   2.143  19.176  0.00  0.00    +0.000 C 
ATOM     22  N   UNL     1       3.160   1.304  18.444  0.00  0.00    +0.000 N 
ATOM     23  N   UNL     1       2.520   2.381  20.435  0.00  0.00    +0.000 NA
ATOM     24  H   UNL     1       2.709   0.953  17.610  0.00  0.00    +0.000 HD
ATOM     25  H   UNL     1       3.647   0.611  18.998  0.00  0.00    +0.000 HD
ENDBRANCH  17  18
ENDBRANCH  16  17
ENDBRANCH   4  16
TORSDOF 5
ENDMDL
MODEL 6
REMARK VINA RESULT:      -7.8      1.089      1.510
REMARK  Name = 
REMARK  6 active torsions:
REMARK  status: ('A' for Active; 'I' for Inactive)
REMARK    1  A    between atoms: C_1  and  C_2
REMARK    2  A    between atoms: C_6  and  N_7
REMARK    3  A    between atoms: N_7  and  C_8
REMARK    4  A    between atoms: C_11  and  C_12
REMARK    5  A    between atoms: C_12  and  C_13
REMARK    6  A    between atoms: C_13  and  C_14
REMARK                            x       y       z     vdW  Elec       q    Type
REMARK                         _______ _______ _______ _____ _____    ______ ____
ROOT
ATOM      1  C   UNL     1       5.772   5.524  18.229  0.00  0.00    +0.000 A 
ATOM      2  C   UNL     1       6.983   5.581  18.927  0.00  0.00    +0.000 A 
ATOM      3  C   UNL     1       7.853   6.664  18.768  0.00  0.00    +0.000 A 
ATOM      4  C   UNL     1       7.543   7.706  17.888  0.00  0.00    +0.000 A 
ATOM      5  C   UNL     1       6.333   7.654  17.184  0.00  0.00    +0.000 A 
ATOM      6  C   UNL     1       5.464   6.571  17.351  0.00  0.00    +0.000 A 
ENDROOT
BRANCH   1   7
ATOM      7  N   UNL     1       4.935   4.407  18.423  0.00  0.00    +0.000 N 
ATOM      8  H   UNL     1       4.923   3.796  17.612  0.00  0.00    +0.000 HD
BRANCH   7  14
ATOM      9  C   UNL     1       0.751   2.120  18.837  0.00  0.00    +0.000 C 
ATOM     10  C   UNL     1       1.635   3.256  19.260  0.00  0.00    +0.000 A 
ATOM     11  C   UNL     1       1.179   4.198  20.175  0.00  0.00    +0.000 A 
ATOM     12  C   UNL     1       2.011   5.256  20.511  0.00  0.00    +0.000 A 
ATOM     13  C   UNL     1       3.266   5.342  19.920  0.00  0.00    +0.000 A 
ATOM     14  C   UNL     1       3.662   4.366  19.010  0.00  0.00    +0.000 A 
ATOM     15  N   UNL     1       2.867   3.322  18.692  0.00  0.00    +0.000 NA
ENDBRANCH   7  14
ENDBRANCH   1   7
BRANCH   4  16
ATOM     16  C   UNL     1       8.501   8.851  17.688  0.00  0.00    +0.000 C 
BRANCH  16  17
ATOM     17  C   UNL     1       9.049   9.428  19.001  0.00  0.00    +0.000 C 
BRANCH  17  18
ATOM     18  C   UNL     1       9.275  10.948  18.994  0.00  0.00    +0.000 C 
ATOM     19  C   UNL     1      10.153  11.458  20.126  0.00  0.00    +0.000 C 
ATOM     20  O   UNL     1      11.399  11.760  19.516  0.00  0.00    +0.000 OA
ATOM     21  C   UNL     1      11.164  11.679  18.191  0.00  0.00    +0.000 C 
ATOM     22  N   UNL     1      12.215  12.056  17.441  0.00  0.00    +0.000 N 
ATOM     23  N   UNL     1      10.013  11.296  17.764  0.00  0.00    +0.000 NA
ATOM     24  H   UNL     1      12.866  12.672  17.910  0.00  0.00    +0.000 HD
ATOM     25  H   UNL     1      11.963  12.329  16.499  0.00  0.00    +0.000 HD
ENDBRANCH  17  18
ENDBRANCH  16  17
ENDBRANCH   4  16
TORSDOF 5
ENDMDL
MODEL 7
REMARK VINA RESULT:      -7.8      7.193      8.836
REMARK  Name = 
REMARK  6 active torsions:
REMARK  status: ('A' for Active; 'I' for Inactive)
REMARK    1  A    between atoms: C_1  and  C_2
REMARK    2  A    between atoms: C_6  and  N_7
REMARK    3  A    between atoms: N_7  and  C_8
REMARK    4  A    between atoms: C_11  and  C_12
REMARK    5  A    between atoms: C_12  and  C_13
REMARK    6  A    between atoms: C_13  and  C_14
REMARK                            x       y       z     vdW  Elec       q    Type
REMARK                         _______ _______ _______ _____ _____    ______ ____
ROOT
ATOM      1  C   UNL     1       1.928   7.896  19.681  0.00  0.00    +0.000 A 
ATOM      2  C   UNL     1       1.159   8.294  20.780  0.00  0.00    +0.000 A 
ATOM      3  C   UNL     1       0.380   9.455  20.728  0.00  0.00    +0.000 A 
ATOM      4  C   UNL     1       0.370  10.257  19.583  0.00  0.00    +0.000 A 
ATOM      5  C   UNL     1       1.139   9.866  18.480  0.00  0.00    +0.000 A 
ATOM      6  C   UNL     1       1.913   8.701  18.535  0.00  0.00    +0.000 A 
ENDROOT
BRANCH   1   7
ATOM      7  N   UNL     1       2.698   6.721  19.789  0.00  0.00    +0.000 N 
ATOM      8  H   UNL     1       3.621   6.832  19.379  0.00  0.00    +0.000 HD
BRANCH   7  14
ATOM      9  C   UNL     1       1.520   2.511  21.737  0.00  0.00    +0.000 C 
ATOM     10  C   UNL     1       1.681   3.349  20.503  0.00  0.00    +0.000 A 
ATOM     11  C   UNL     1       1.443   2.803  19.248  0.00  0.00    +0.000 A 
ATOM     12  C   UNL     1       1.641   3.598  18.128  0.00  0.00    +0.000 A 
ATOM     13  C   UNL     1       2.072   4.908  18.298  0.00  0.00    +0.000 A 
ATOM     14  C   UNL     1       2.293   5.394  19.583  0.00  0.00    +0.000 A 
ATOM     15  N   UNL     1       2.085   4.634  20.680  0.00  0.00    +0.000 NA
ENDBRANCH   7  14
ENDBRANCH   1   7
BRANCH   4  16
ATOM     16  C   UNL     1      -0.438  11.528  19.545  0.00  0.00    +0.000 C 
BRANCH  16  17
ATOM     17  C   UNL     1      -1.170  11.750  18.214  0.00  0.00    +0.000 C 
BRANCH  17  18
ATOM     18  C   UNL     1      -2.333  10.784  17.947  0.00  0.00    +0.000 C 
ATOM     19  C   UNL     1      -3.665  11.464  17.671  0.00  0.00    +0.000 C 
ATOM     20  O   UNL     1      -3.866  11.322  16.272  0.00  0.00    +0.000 OA
ATOM     21  C   UNL     1      -2.912  10.457  15.871  0.00  0.00    +0.000 C 
ATOM     22  N   UNL     1      -3.023  10.105  14.578  0.00  0.00    +0.000 N 
ATOM     23  N   UNL     1      -2.033  10.036  16.711  0.00  0.00    +0.000 NA
ATOM     24  H   UNL     1      -3.952  10.212  14.193  0.00  0.00    +0.000 HD
ATOM     25  H   UNL     1      -2.560   9.233  14.356  0.00  0.00    +0.000 HD
ENDBRANCH  17  18
ENDBRANCH  16  17
ENDBRANCH   4  16
TORSDOF 5
ENDMDL
MODEL 8
REMARK VINA RESULT:      -7.7      6.944      8.827
REMARK  Name = 
REMARK  6 active torsions:
REMARK  status: ('A' for Active; 'I' for Inactive)
REMARK    1  A    between atoms: C_1  and  C_2
REMARK    2  A    between atoms: C_6  and  N_7
REMARK    3  A    between atoms: N_7  and  C_8
REMARK    4  A    between atoms: C_11  and  C_12
REMARK    5  A    between atoms: C_12  and  C_13
REMARK    6  A    between atoms: C_13  and  C_14
REMARK                            x       y       z     vdW  Elec       q    Type
REMARK                         _______ _______ _______ _____ _____    ______ ____
ROOT
ATOM      1  C   UNL     1       2.093   7.553  19.690  0.00  0.00    +0.000 A 
ATOM      2  C   UNL     1       2.151   7.963  18.354  0.00  0.00    +0.000 A 
ATOM      3  C   UNL     1       1.476   9.111  17.925  0.00  0.00    +0.000 A 
ATOM      4  C   UNL     1       0.708   9.863  18.820  0.00  0.00    +0.000 A 
ATOM      5  C   UNL     1       0.644   9.457  20.158  0.00  0.00    +0.000 A 
ATOM      6  C   UNL     1       1.325   8.311  20.583  0.00  0.00    +0.000 A 
ENDROOT
BRANCH   1   7
ATOM      7  N   UNL     1       2.787   6.386  20.067  0.00  0.00    +0.000 N 
ATOM      8  H   UNL     1       3.777   6.443  19.843  0.00  0.00    +0.000 HD
BRANCH   7  14
ATOM      9  C   UNL     1       3.560   2.160  17.957  0.00  0.00    +0.000 C 
ATOM     10  C   UNL     1       2.764   2.976  18.932  0.00  0.00    +0.000 A 
ATOM     11  C   UNL     1       1.695   2.408  19.616  0.00  0.00    +0.000 A 
ATOM     12  C   UNL     1       0.958   3.205  20.479  0.00  0.00    +0.000 A 
ATOM     13  C   UNL     1       1.308   4.542  20.628  0.00  0.00    +0.000 A 
ATOM     14  C   UNL     1       2.389   5.050  19.913  0.00  0.00    +0.000 A 
ATOM     15  N   UNL     1       3.124   4.276  19.085  0.00  0.00    +0.000 NA
ENDBRANCH   7  14
ENDBRANCH   1   7
BRANCH   4  16
ATOM     16  C   UNL     1      -0.050  11.076  18.346  0.00  0.00    +0.000 C 
BRANCH  16  17
ATOM     17  C   UNL     1      -1.523  11.085  18.777  0.00  0.00    +0.000 C 
BRANCH  17  18
ATOM     18  C   UNL     1      -2.402  10.024  18.099  0.00  0.00    +0.000 C 
ATOM     19  C   UNL     1      -3.860  10.426  17.934  0.00  0.00    +0.000 C 
ATOM     20  O   UNL     1      -4.004  10.726  16.553  0.00  0.00    +0.000 OA
ATOM     21  C   UNL     1      -2.858  10.298  15.985  0.00  0.00    +0.000 C 
ATOM     22  N   UNL     1      -2.863  10.391  14.643  0.00  0.00    +0.000 N 
ATOM     23  N   UNL     1      -1.910   9.834  16.720  0.00  0.00    +0.000 NA
ATOM     24  H   UNL     1      -3.784  10.404  14.227  0.00  0.00    +0.000 HD
ATOM     25  H   UNL     1      -2.192   9.782  14.193  0.00  0.00    +0.000 HD
ENDBRANCH  17  18
ENDBRANCH  16  17
ENDBRANCH   4  16
TORSDOF 5
ENDMDL
MODEL 9
REMARK VINA RESULT:      -7.7      7.031      8.732
REMARK  Name = 
REMARK  6 active torsions:
REMARK  status: ('A' for Active; 'I' for Inactive)
REMARK    1  A    between atoms: C_1  and  C_2
REMARK    2  A    between atoms: C_6  and  N_7
REMARK    3  A    between atoms: N_7  and  C_8
REMARK    4  A    between atoms: C_11  and  C_12
REMARK    5  A    between atoms: C_12  and  C_13
REMARK    6  A    between atoms: C_13  and  C_14
REMARK                            x       y       z     vdW  Elec       q    Type
REMARK                         _______ _______ _______ _____ _____    ______ ____
ROOT
ATOM      1  C   UNL     1       2.190   7.583  19.557  0.00  0.00    +0.000 A 
ATOM      2  C   UNL     1       1.494   7.929  20.720  0.00  0.00    +0.000 A 
ATOM      3  C   UNL     1       0.643   9.040  20.744  0.00  0.00    +0.000 A 
ATOM      4  C   UNL     1       0.487   9.844  19.610  0.00  0.00    +0.000 A 
ATOM      5  C   UNL     1       1.183   9.504  18.443  0.00  0.00    +0.000 A 
ATOM      6  C   UNL     1       2.028   8.389  18.423  0.00  0.00    +0.000 A 
ENDROOT
BRANCH   1   7
ATOM      7  N   UNL     1       3.037   6.458  19.590  0.00  0.00    +0.000 N 
ATOM      8  H   UNL     1       4.018   6.721  19.616  0.00  0.00    +0.000 HD
BRANCH   7  14
ATOM      9  C   UNL     1       0.658   2.373  18.839  0.00  0.00    +0.000 C 
ATOM     10  C   UNL     1       1.774   3.295  18.444  0.00  0.00    +0.000 A 
ATOM     11  C   UNL     1       2.637   2.950  17.410  0.00  0.00    +0.000 A 
ATOM     12  C   UNL     1       3.680   3.809  17.100  0.00  0.00    +0.000 A 
ATOM     13  C   UNL     1       3.830   4.981  17.832  0.00  0.00    +0.000 A 
ATOM     14  C   UNL     1       2.932   5.268  18.855  0.00  0.00    +0.000 A 
ATOM     15  N   UNL     1       1.902   4.447  19.152  0.00  0.00    +0.000 NA
ENDBRANCH   7  14
ENDBRANCH   1   7
BRANCH   4  16
ATOM     16  C   UNL     1      -0.398  11.062  19.652  0.00  0.00    +0.000 C 
BRANCH  16  17
ATOM     17  C   UNL     1      -1.053  11.390  18.303  0.00  0.00    +0.000 C 
BRANCH  17  18
ATOM     18  C   UNL     1      -2.301  10.559  17.970  0.00  0.00    +0.000 C 
ATOM     19  C   UNL     1      -3.552  11.381  17.703  0.00  0.00    +0.000 C 
ATOM     20  O   UNL     1      -3.735  11.323  16.295  0.00  0.00    +0.000 OA
ATOM     21  C   UNL     1      -2.863  10.385  15.872  0.00  0.00    +0.000 C 
ATOM     22  N   UNL     1      -2.981  10.104  14.562  0.00  0.00    +0.000 N 
ATOM     23  N   UNL     1      -2.049   9.841  16.705  0.00  0.00    +0.000 NA
ATOM     24  H   UNL     1      -3.885  10.322  14.166  0.00  0.00    +0.000 HD
ATOM     25  H   UNL     1      -2.601   9.201  14.306  0.00  0.00    +0.000 HD
ENDBRANCH  17  18
ENDBRANCH  16  17
ENDBRANCH   4  16
TORSDOF 5
ENDMDL
