MODEL 1
REMARK VINA RESULT:      -7.7      0.000      0.000
REMARK  Name = 
REMARK  4 active torsions:
REMARK  status: ('A' for Active; 'I' for Inactive)
REMARK    1  A    between atoms: C_1  and  O_2
REMARK    2  A    between atoms: O_2  and  C_3
REMARK    3  A    between atoms: C_8  and  C_9
REMARK    4  A    between atoms: C_15  and  C_16
REMARK                            x       y       z     vdW  Elec       q    Type
REMARK                         _______ _______ _______ _____ _____    ______ ____
ROOT
ATOM      1  C   UNL     1       2.683   7.284  18.379  0.00  0.00    +0.000 A 
ATOM      2  C   UNL     1       2.355   8.376  17.567  0.00  0.00    +0.000 A 
ATOM      3  C   UNL     1       1.587   9.436  18.043  0.00  0.00    +0.000 A 
ATOM      4  C   UNL     1       1.102   9.424  19.350  0.00  0.00    +0.000 A 
ATOM      5  C   UNL     1       0.206  10.412  19.767  0.00  0.00    +0.000 A 
ATOM      6  C   UNL     1      -0.273  10.404  21.064  0.00  0.00    +0.000 A 
ATOM      7  C   UNL     1       0.215   9.446  21.940  0.00  0.00    +0.000 A 
ATOM      8  C   UNL     1      -0.209   9.510  23.382  0.00  0.00    +0.000 C 
ATOM      9  N   UNL     1       1.051   8.444  21.543  0.00  0.00    +0.000 NA
ATOM     10  C   UNL     1       1.470   8.408  20.250  0.00  0.00    +0.000 A 
ATOM     11  C   UNL     1       2.268   7.364  19.738  0.00  0.00    +0.000 A 
ENDROOT
BRANCH   1  17
ATOM     12  C   UNL     1       2.751   4.755  17.798  0.00  0.00    +0.000 A 
ATOM     13  C   UNL     1       3.463   3.654  17.284  0.00  0.00    +0.000 A 
ATOM     14  C   UNL     1       4.759   3.800  16.807  0.00  0.00    +0.000 A 
ATOM     15  C   UNL     1       5.356   5.048  16.817  0.00  0.00    +0.000 A 
ATOM     16  C   UNL     1       4.647   6.156  17.299  0.00  0.00    +0.000 A 
ATOM     17  C   UNL     1       3.327   6.057  17.798  0.00  0.00    +0.000 A 
BRANCH  12  19
ATOM     18  C   UNL     1       1.278   3.512  19.183  0.00  0.00    +0.000 C 
ATOM     19  O   UNL     1       1.464   4.590  18.264  0.00  0.00    +0.000 OA
ENDBRANCH  12  19
ENDBRANCH   1  17
TORSDOF 2
ENDMDL
MODEL 2
REMARK VINA RESULT:      -7.7      1.215      2.174
REMARK  Name = 
REMARK  4 active torsions:
REMARK  status: ('A' for Active; 'I' for Inactive)
REMARK    1  A    between atoms: C_1  and  O_2
REMARK    2  A    between atoms: O_2  and  C_3
REMARK    3  A    between atoms: C_8  and  C_9
REMARK    4  A    between atoms: C_15  and  C_16
REMARK                            x       y       z     vdW  Elec       q    Type
REMARK                         _______ _______ _______ _____ _____    ______ ____
ROOT
ATOM      1  C   UNL     1       2.613   7.282  18.452  0.00  0.00    +0.000 A 
ATOM      2  C   UNL     1       2.310   8.358  17.608  0.00  0.00    +0.000 A 
ATOM      3  C   UNL     1       1.559   9.444  18.050  0.00  0.00    +0.000 A 
ATOM      4  C   UNL     1       1.065   9.476  19.353  0.00  0.00    +0.000 A 
ATOM      5  C   UNL     1       0.185  10.492  19.737  0.00  0.00    +0.000 A 
ATOM      6  C   UNL     1      -0.302  10.528  21.031  0.00  0.00    +0.000 A 
ATOM      7  C   UNL     1       0.161   9.585  21.935  0.00  0.00    +0.000 A 
ATOM      8  C   UNL     1      -0.271   9.695  23.372  0.00  0.00    +0.000 C 
ATOM      9  N   UNL     1       0.981   8.557  21.571  0.00  0.00    +0.000 NA
ATOM     10  C   UNL     1       1.408   8.479  20.283  0.00  0.00    +0.000 A 
ATOM     11  C   UNL     1       2.190   7.406  19.805  0.00  0.00    +0.000 A 
ENDROOT
BRANCH   1  17
ATOM     12  C   UNL     1       4.521   5.956  17.295  0.00  0.00    +0.000 A 
ATOM     13  C   UNL     1       4.994   4.743  16.758  0.00  0.00    +0.000 A 
ATOM     14  C   UNL     1       4.206   3.600  16.774  0.00  0.00    +0.000 A 
ATOM     15  C   UNL     1       2.945   3.644  17.340  0.00  0.00    +0.000 A 
ATOM     16  C   UNL     1       2.475   4.838  17.903  0.00  0.00    +0.000 A 
ATOM     17  C   UNL     1       3.238   6.029  17.909  0.00  0.00    +0.000 A 
BRANCH  12  19
ATOM     18  C   UNL     1       6.718   6.843  17.441  0.00  0.00    +0.000 C 
ATOM     19  O   UNL     1       5.319   7.080  17.273  0.00  0.00    +0.000 OA
ENDBRANCH  12  19
ENDBRANCH   1  17
TORSDOF 2
ENDMDL
MODEL 3
REMARK VINA RESULT:      -7.6      1.359      2.059
REMARK  Name = 
REMARK  4 active torsions:
REMARK  status: ('A' for Active; 'I' for Inactive)
REMARK    1  A    between atoms: C_1  and  O_2
REMARK    2  A    between atoms: O_2  and  C_3
REMARK    3  A    between atoms: C_8  and  C_9
REMARK    4  A    between atoms: C_15  and  C_16
REMARK                            x       y       z     vdW  Elec       q    Type
REMARK                         _______ _______ _______ _____ _____    ______ ____
ROOT
ATOM      1  C   UNL     1       2.499   6.857  18.853  0.00  0.00    +0.000 A 
ATOM      2  C   UNL     1       2.486   7.885  17.903  0.00  0.00    +0.000 A 
ATOM      3  C   UNL     1       1.876   9.111  18.160  0.00  0.00    +0.000 A 
ATOM      4  C   UNL     1       1.236   9.338  19.378  0.00  0.00    +0.000 A 
ATOM      5  C   UNL     1       0.496  10.508  19.565  0.00  0.00    +0.000 A 
ATOM      6  C   UNL     1      -0.135  10.737  20.774  0.00  0.00    +0.000 A 
ATOM      7  C   UNL     1       0.050   9.821  21.798  0.00  0.00    +0.000 A 
ATOM      8  C   UNL     1      -0.533  10.127  23.150  0.00  0.00    +0.000 C 
ATOM      9  N   UNL     1       0.726   8.649  21.622  0.00  0.00    +0.000 NA
ATOM     10  C   UNL     1       1.291   8.388  20.413  0.00  0.00    +0.000 A 
ATOM     11  C   UNL     1       1.938   7.169  20.124  0.00  0.00    +0.000 A 
ENDROOT
BRANCH   1  17
ATOM     12  C   UNL     1       4.293   4.989  18.689  0.00  0.00    +0.000 A 
ATOM     13  C   UNL     1       4.655   3.699  18.256  0.00  0.00    +0.000 A 
ATOM     14  C   UNL     1       3.748   2.889  17.587  0.00  0.00    +0.000 A 
ATOM     15  C   UNL     1       2.463   3.345  17.356  0.00  0.00    +0.000 A 
ATOM     16  C   UNL     1       2.082   4.615  17.808  0.00  0.00    +0.000 A 
ATOM     17  C   UNL     1       2.971   5.478  18.491  0.00  0.00    +0.000 A 
BRANCH  12  19
ATOM     18  C   UNL     1       6.573   5.379  19.221  0.00  0.00    +0.000 C 
ATOM     19  O   UNL     1       5.207   5.777  19.355  0.00  0.00    +0.000 OA
ENDBRANCH  12  19
ENDBRANCH   1  17
TORSDOF 2
ENDMDL
MODEL 4
REMARK VINA RESULT:      -7.6      4.376      7.116
REMARK  Name = 
REMARK  4 active torsions:
REMARK  status: ('A' for Active; 'I' for Inactive)
REMARK    1  A    between atoms: C_1  and  O_2
REMARK    2  A    between atoms: O_2  and  C_3
REMARK    3  A    between atoms: C_8  and  C_9
REMARK    4  A    between atoms: C_15  and  C_16
REMARK                            x       y       z     vdW  Elec       q    Type
REMARK                         _______ _______ _______ _____ _____    ______ ____
ROOT
ATOM      1  C   UNL     1       4.073   4.536  18.279  0.00  0.00    +0.000 A 
ATOM      2  C   UNL     1       4.974   5.580  18.519  0.00  0.00    +0.000 A 
ATOM      3  C   UNL     1       5.918   5.964  17.569  0.00  0.00    +0.000 A 
ATOM      4  C   UNL     1       6.003   5.295  16.349  0.00  0.00    +0.000 A 
ATOM      5  C   UNL     1       7.051   5.583  15.471  0.00  0.00    +0.000 A 
ATOM      6  C   UNL     1       7.134   4.924  14.259  0.00  0.00    +0.000 A 
ATOM      7  C   UNL     1       6.122   4.039  13.919  0.00  0.00    +0.000 A 
ATOM      8  C   UNL     1       6.143   3.413  12.552  0.00  0.00    +0.000 C 
ATOM      9  N   UNL     1       5.117   3.705  14.780  0.00  0.00    +0.000 NA
ATOM     10  C   UNL     1       5.070   4.302  16.001  0.00  0.00    +0.000 A 
ATOM     11  C   UNL     1       4.115   3.956  16.980  0.00  0.00    +0.000 A 
ENDROOT
BRANCH   1  17
ATOM     12  C   UNL     1       3.547   2.897  20.222  0.00  0.00    +0.000 A 
ATOM     13  C   UNL     1       2.639   2.424  21.188  0.00  0.00    +0.000 A 
ATOM     14  C   UNL     1       1.376   2.985  21.317  0.00  0.00    +0.000 A 
ATOM     15  C   UNL     1       1.006   4.037  20.499  0.00  0.00    +0.000 A 
ATOM     16  C   UNL     1       1.912   4.536  19.553  0.00  0.00    +0.000 A 
ATOM     17  C   UNL     1       3.208   3.996  19.381  0.00  0.00    +0.000 A 
BRANCH  12  19
ATOM     18  C   UNL     1       5.062   1.246  21.005  0.00  0.00    +0.000 C 
ATOM     19  O   UNL     1       4.798   2.329  20.111  0.00  0.00    +0.000 OA
ENDBRANCH  12  19
ENDBRANCH   1  17
TORSDOF 2
ENDMDL
MODEL 5
REMARK VINA RESULT:      -7.4      3.390      4.913
REMARK  Name = 
REMARK  4 active torsions:
REMARK  status: ('A' for Active; 'I' for Inactive)
REMARK    1  A    between atoms: C_1  and  O_2
REMARK    2  A    between atoms: O_2  and  C_3
REMARK    3  A    between atoms: C_8  and  C_9
REMARK    4  A    between atoms: C_15  and  C_16
REMARK                            x       y       z     vdW  Elec       q    Type
REMARK                         _______ _______ _______ _____ _____    ______ ____
ROOT
ATOM      1  C   UNL     1       4.693   5.059  16.936  0.00  0.00    +0.000 A 
ATOM      2  C   UNL     1       4.251   6.364  17.184  0.00  0.00    +0.000 A 
ATOM      3  C   UNL     1       3.366   6.651  18.221  0.00  0.00    +0.000 A 
ATOM      4  C   UNL     1       2.876   5.628  19.033  0.00  0.00    +0.000 A 
ATOM      5  C   UNL     1       1.873   5.903  19.966  0.00  0.00    +0.000 A 
ATOM      6  C   UNL     1       1.389   4.892  20.775  0.00  0.00    +0.000 A 
ATOM      7  C   UNL     1       1.975   3.638  20.683  0.00  0.00    +0.000 A 
ATOM      8  C   UNL     1       1.537   2.568  21.645  0.00  0.00    +0.000 C 
ATOM      9  N   UNL     1       2.920   3.335  19.746  0.00  0.00    +0.000 NA
ATOM     10  C   UNL     1       3.349   4.311  18.903  0.00  0.00    +0.000 A 
ATOM     11  C   UNL     1       4.262   4.063  17.856  0.00  0.00    +0.000 A 
ENDROOT
BRANCH   1  17
ATOM     12  C   UNL     1       6.859   5.007  15.506  0.00  0.00    +0.000 A 
ATOM     13  C   UNL     1       7.488   4.721  14.279  0.00  0.00    +0.000 A 
ATOM     14  C   UNL     1       6.768   4.207  13.209  0.00  0.00    +0.000 A 
ATOM     15  C   UNL     1       5.416   3.954  13.352  0.00  0.00    +0.000 A 
ATOM     16  C   UNL     1       4.784   4.207  14.578  0.00  0.00    +0.000 A 
ATOM     17  C   UNL     1       5.474   4.733  15.695  0.00  0.00    +0.000 A 
BRANCH  12  19
ATOM     18  C   UNL     1       7.825   4.607  17.637  0.00  0.00    +0.000 C 
ATOM     19  O   UNL     1       7.592   5.514  16.558  0.00  0.00    +0.000 OA
ENDBRANCH  12  19
ENDBRANCH   1  17
TORSDOF 2
ENDMDL
MODEL 6
REMARK VINA RESULT:      -7.3      3.254      7.170
REMARK  Name = 
REMARK  4 active torsions:
REMARK  status: ('A' for Active; 'I' for Inactive)
REMARK    1  A    between atoms: C_1  and  O_2
REMARK    2  A    between atoms: O_2  and  C_3
REMARK    3  A    between atoms: C_8  and  C_9
REMARK    4  A    between atoms: C_15  and  C_16
REMARK                            x       y       z     vdW  Elec       q    Type
REMARK                         _______ _______ _______ _____ _____    ______ ____
ROOT
ATOM      1  C   UNL     1       4.317   4.485  18.240  0.00  0.00    +0.000 A 
ATOM      2  C   UNL     1       5.427   5.288  18.529  0.00  0.00    +0.000 A 
ATOM      3  C   UNL     1       6.410   5.545  17.577  0.00  0.00    +0.000 A 
ATOM      4  C   UNL     1       6.322   4.985  16.304  0.00  0.00    +0.000 A 
ATOM      5  C   UNL     1       7.388   5.121  15.410  0.00  0.00    +0.000 A 
ATOM      6  C   UNL     1       7.301   4.570  14.145  0.00  0.00    +0.000 A 
ATOM      7  C   UNL     1       6.115   3.954  13.775  0.00  0.00    +0.000 A 
ATOM      8  C   UNL     1       5.972   3.462  12.361  0.00  0.00    +0.000 C 
ATOM      9  N   UNL     1       5.081   3.766  14.646  0.00  0.00    +0.000 NA
ATOM     10  C   UNL     1       5.191   4.248  15.913  0.00  0.00    +0.000 A 
ATOM     11  C   UNL     1       4.205   4.027  16.897  0.00  0.00    +0.000 A 
ENDROOT
BRANCH   1  17
ATOM     12  C   UNL     1       2.247   4.781  19.778  0.00  0.00    +0.000 A 
ATOM     13  C   UNL     1       1.464   4.313  20.851  0.00  0.00    +0.000 A 
ATOM     14  C   UNL     1       1.801   3.147  21.526  0.00  0.00    +0.000 A 
ATOM     15  C   UNL     1       2.911   2.423  21.130  0.00  0.00    +0.000 A 
ATOM     16  C   UNL     1       3.681   2.863  20.045  0.00  0.00    +0.000 A 
ATOM     17  C   UNL     1       3.380   4.045  19.329  0.00  0.00    +0.000 A 
BRANCH  12  19
ATOM     18  C   UNL     1       2.247   7.155  19.780  0.00  0.00    +0.000 C 
ATOM     19  O   UNL     1       1.894   5.939  19.118  0.00  0.00    +0.000 OA
ENDBRANCH  12  19
ENDBRANCH   1  17
TORSDOF 2
ENDMDL
MODEL 7
REMARK VINA RESULT:      -7.3      2.021      3.430
REMARK  Name = 
REMARK  4 active torsions:
REMARK  status: ('A' for Active; 'I' for Inactive)
REMARK    1  A    between atoms: C_1  and  O_2
REMARK    2  A    between atoms: O_2  and  C_3
REMARK    3  A    between atoms: C_8  and  C_9
REMARK    4  A    between atoms: C_15  and  C_16
REMARK                            x       y       z     vdW  Elec       q    Type
REMARK                         _______ _______ _______ _____ _____    ______ ____
ROOT
ATOM      1  C   UNL     1       3.891   5.851  18.148  0.00  0.00    +0.000 A 
ATOM      2  C   UNL     1       3.470   5.199  19.313  0.00  0.00    +0.000 A 
ATOM      3  C   UNL     1       2.571   5.792  20.197  0.00  0.00    +0.000 A 
ATOM      4  C   UNL     1       2.081   7.073  19.951  0.00  0.00    +0.000 A 
ATOM      5  C   UNL     1       1.305   7.717  20.919  0.00  0.00    +0.000 A 
ATOM      6  C   UNL     1       0.814   8.986  20.674  0.00  0.00    +0.000 A 
ATOM      7  C   UNL     1       1.049   9.555  19.431  0.00  0.00    +0.000 A 
ATOM      8  C   UNL     1       0.413  10.882  19.117  0.00  0.00    +0.000 C 
ATOM      9  N   UNL     1       1.843   8.966  18.491  0.00  0.00    +0.000 NA
ATOM     10  C   UNL     1       2.385   7.748  18.755  0.00  0.00    +0.000 A 
ATOM     11  C   UNL     1       3.280   7.107  17.873  0.00  0.00    +0.000 A 
ENDROOT
BRANCH   1  17
ATOM     12  C   UNL     1       6.318   4.998  17.802  0.00  0.00    +0.000 A 
ATOM     13  C   UNL     1       7.323   4.540  16.929  0.00  0.00    +0.000 A 
ATOM     14  C   UNL     1       7.081   4.408  15.568  0.00  0.00    +0.000 A 
ATOM     15  C   UNL     1       5.831   4.713  15.061  0.00  0.00    +0.000 A 
ATOM     16  C   UNL     1       4.814   5.142  15.925  0.00  0.00    +0.000 A 
ATOM     17  C   UNL     1       5.013   5.296  17.317  0.00  0.00    +0.000 A 
BRANCH  12  19
ATOM     18  C   UNL     1       7.826   5.729  19.484  0.00  0.00    +0.000 C 
ATOM     19  O   UNL     1       6.577   5.119  19.151  0.00  0.00    +0.000 OA
ENDBRANCH  12  19
ENDBRANCH   1  17
TORSDOF 2
ENDMDL
MODEL 8
REMARK VINA RESULT:      -7.2      1.739      2.919
REMARK  Name = 
REMARK  4 active torsions:
REMARK  status: ('A' for Active; 'I' for Inactive)
REMARK    1  A    between atoms: C_1  and  O_2
REMARK    2  A    between atoms: O_2  and  C_3
REMARK    3  A    between atoms: C_8  and  C_9
REMARK    4  A    between atoms: C_15  and  C_16
REMARK                            x       y       z     vdW  Elec       q    Type
REMARK                         _______ _______ _______ _____ _____    ______ ____
ROOT
ATOM      1  C   UNL     1       2.137   6.698  19.662  0.00  0.00    +0.000 A 
ATOM      2  C   UNL     1       2.379   7.163  18.364  0.00  0.00    +0.000 A 
ATOM      3  C   UNL     1       2.050   8.461  17.980  0.00  0.00    +0.000 A 
ATOM      4  C   UNL     1       1.444   9.331  18.884  0.00  0.00    +0.000 A 
ATOM      5  C   UNL     1       0.978  10.574  18.446  0.00  0.00    +0.000 A 
ATOM      6  C   UNL     1       0.380  11.440  19.342  0.00  0.00    +0.000 A 
ATOM      7  C   UNL     1       0.329  11.073  20.678  0.00  0.00    +0.000 A 
ATOM      8  C   UNL     1      -0.208  12.064  21.675  0.00  0.00    +0.000 C 
ATOM      9  N   UNL     1       0.733   9.847  21.120  0.00  0.00    +0.000 NA
ATOM     10  C   UNL     1       1.258   8.965  20.229  0.00  0.00    +0.000 A 
ATOM     11  C   UNL     1       1.625   7.651  20.586  0.00  0.00    +0.000 A 
ENDROOT
BRANCH   1  17
ATOM     12  C   UNL     1       3.504   4.499  19.848  0.00  0.00    +0.000 A 
ATOM     13  C   UNL     1       3.539   3.120  20.135  0.00  0.00    +0.000 A 
ATOM     14  C   UNL     1       2.393   2.444  20.534  0.00  0.00    +0.000 A 
ATOM     15  C   UNL     1       1.202   3.135  20.669  0.00  0.00    +0.000 A 
ATOM     16  C   UNL     1       1.162   4.512  20.414  0.00  0.00    +0.000 A 
ATOM     17  C   UNL     1       2.300   5.244  20.002  0.00  0.00    +0.000 A 
BRANCH  12  19
ATOM     18  C   UNL     1       5.343   4.571  18.349  0.00  0.00    +0.000 C 
ATOM     19  O   UNL     1       4.652   5.153  19.456  0.00  0.00    +0.000 OA
ENDBRANCH  12  19
ENDBRANCH   1  17
TORSDOF 2
ENDMDL
MODEL 9
REMARK VINA RESULT:      -7.2      1.599      2.549
REMARK  Name = 
REMARK  4 active torsions:
REMARK  status: ('A' for Active; 'I' for Inactive)
REMARK    1  A    between atoms: C_1  and  O_2
REMARK    2  A    between atoms: O_2  and  C_3
REMARK    3  A    between atoms: C_8  and  C_9
REMARK    4  A    between atoms: C_15  and  C_16
REMARK                            x       y       z     vdW  Elec       q    Type
REMARK                         _______ _______ _______ _____ _____    ______ ____
ROOT
ATOM      1  C   UNL     1       3.530   6.315  18.235  0.00  0.00    +0.000 A 
ATOM      2  C   UNL     1       3.168   5.753  19.465  0.00  0.00    +0.000 A 
ATOM      3  C   UNL     1       2.319   6.414  20.349  0.00  0.00    +0.000 A 
ATOM      4  C   UNL     1       1.821   7.678  20.036  0.00  0.00    +0.000 A 
ATOM      5  C   UNL     1       1.100   8.396  20.994  0.00  0.00    +0.000 A 
ATOM      6  C   UNL     1       0.601   9.648  20.684  0.00  0.00    +0.000 A 
ATOM      7  C   UNL     1       0.772  10.124  19.393  0.00  0.00    +0.000 A 
ATOM      8  C   UNL     1       0.126  11.429  19.017  0.00  0.00    +0.000 C 
ATOM      9  N   UNL     1       1.514   9.463  18.458  0.00  0.00    +0.000 NA
ATOM     10  C   UNL     1       2.064   8.262  18.781  0.00  0.00    +0.000 A 
ATOM     11  C   UNL     1       2.909   7.552  17.902  0.00  0.00    +0.000 A 
ENDROOT
BRANCH   1  17
ATOM     12  C   UNL     1       4.532   4.399  16.799  0.00  0.00    +0.000 A 
ATOM     13  C   UNL     1       5.621   3.878  16.074  0.00  0.00    +0.000 A 
ATOM     14  C   UNL     1       6.806   4.591  15.953  0.00  0.00    +0.000 A 
ATOM     15  C   UNL     1       6.917   5.840  16.537  0.00  0.00    +0.000 A 
ATOM     16  C   UNL     1       5.830   6.382  17.236  0.00  0.00    +0.000 A 
ATOM     17  C   UNL     1       4.604   5.693  17.389  0.00  0.00    +0.000 A 
BRANCH  12  19
ATOM     18  C   UNL     1       3.432   2.513  17.729  0.00  0.00    +0.000 C 
ATOM     19  O   UNL     1       3.363   3.677  16.905  0.00  0.00    +0.000 OA
ENDBRANCH  12  19
ENDBRANCH   1  17
TORSDOF 2
ENDMDL
