MODEL 1
REMARK VINA RESULT:      -6.7      0.000      0.000
REMARK  Name = 
REMARK  6 active torsions:
REMARK  status: ('A' for Active; 'I' for Inactive)
REMARK    1  A    between atoms: N_1  and  C_2
REMARK    2  A    between atoms: C_2  and  C_3
REMARK    3  A    between atoms: C_5  and  C_6
REMARK    4  A    between atoms: C_7  and  O_8
REMARK    5  A    between atoms: O_8  and  C_9
REMARK    6  A    between atoms: C_9  and  C_10
REMARK                            x       y       z     vdW  Elec       q    Type
REMARK                         _______ _______ _______ _____ _____    ______ ____
ROOT
ATOM      1  C   UNL     1       2.779   5.189  18.401  0.00  0.00    +0.000 A 
ATOM      2  C   UNL     1       3.890   4.771  17.625  0.00  0.00    +0.000 A 
ATOM      3  C   UNL     1       4.458   3.483  17.853  0.00  0.00    +0.000 A 
ATOM      4  C   UNL     1       3.922   2.616  18.817  0.00  0.00    +0.000 A 
ATOM      5  C   UNL     1       2.809   3.040  19.531  0.00  0.00    +0.000 A 
ATOM      6  O   UNL     1       2.144   2.371  20.438  0.00  0.00    +0.000 OA
ATOM      7  C   UNL     1       1.144   3.129  20.841  0.00  0.00    +0.000 A 
ATOM      8  C   UNL     1       1.164   4.343  20.173  0.00  0.00    +0.000 A 
ATOM      9  C   UNL     1       2.254   4.273  19.330  0.00  0.00    +0.000 A 
ENDROOT
BRANCH   1  12
ATOM     10  C   UNL     1       2.614   7.433  19.362  0.00  0.00    +0.000 C 
ATOM     11  C   UNL     1       2.842   7.830  17.915  0.00  0.00    +0.000 C 
ATOM     12  C   UNL     1       2.114   6.530  18.203  0.00  0.00    +0.000 C 
BRANCH  10  13
ATOM     13  C   UNL     1       1.490   8.136  20.146  0.00  0.00    +0.000 C 
BRANCH  13  14
ATOM     14  N   UNL     1       1.709   8.149  21.587  0.00  0.00    +0.000 NA
ATOM     15  H   UNL     1       1.546   7.171  21.940  0.00  0.00    +0.000 HD
ATOM     16  H   UNL     1       2.701   8.404  21.797  0.00  0.00    +0.000 HD
ENDBRANCH  13  14
ENDBRANCH  10  13
ENDBRANCH   1  12
BRANCH   2  17
ATOM     17  O   UNL     1       4.374   5.604  16.666  0.00  0.00    +0.000 OA
BRANCH  17  18
ATOM     18  C   UNL     1       5.709   5.911  16.448  0.00  0.00    +0.000 C 
BRANCH  18  19
ATOM     19  C   UNL     1       6.257   6.751  17.619  0.00  0.00    +0.000 C 
ATOM     20  C   UNL     1       7.498   6.082  18.192  0.00  0.00    +0.000 C 
ATOM     21  C   UNL     1       7.613   7.429  17.486  0.00  0.00    +0.000 C 
ENDBRANCH  18  19
ENDBRANCH  17  18
ENDBRANCH   2  17
TORSDOF 6
ENDMDL
MODEL 2
REMARK VINA RESULT:      -6.6      1.325      1.694
REMARK  Name = 
REMARK  6 active torsions:
REMARK  status: ('A' for Active; 'I' for Inactive)
REMARK    1  A    between atoms: N_1  and  C_2
REMARK    2  A    between atoms: C_2  and  C_3
REMARK    3  A    between atoms: C_5  and  C_6
REMARK    4  A    between atoms: C_7  and  O_8
REMARK    5  A    between atoms: O_8  and  C_9
REMARK    6  A    between atoms: C_9  and  C_10
REMARK                            x       y       z     vdW  Elec       q    Type
REMARK                         _______ _______ _______ _____ _____    ______ ____
ROOT
ATOM      1  C   UNL     1       3.236   5.027  18.764  0.00  0.00    +0.000 A 
ATOM      2  C   UNL     1       3.905   4.576  17.597  0.00  0.00    +0.000 A 
ATOM      3  C   UNL     1       3.789   3.209  17.208  0.00  0.00    +0.000 A 
ATOM      4  C   UNL     1       3.006   2.310  17.948  0.00  0.00    +0.000 A 
ATOM      5  C   UNL     1       2.332   2.794  19.062  0.00  0.00    +0.000 A 
ATOM      6  O   UNL     1       1.529   2.131  19.854  0.00  0.00    +0.000 OA
ATOM      7  C   UNL     1       1.082   2.972  20.764  0.00  0.00    +0.000 A 
ATOM      8  C   UNL     1       1.621   4.231  20.559  0.00  0.00    +0.000 A 
ATOM      9  C   UNL     1       2.435   4.099  19.453  0.00  0.00    +0.000 A 
ENDROOT
BRANCH   1  12
ATOM     10  C   UNL     1       2.249   7.233  18.380  0.00  0.00    +0.000 C 
ATOM     11  C   UNL     1       2.161   7.214  19.895  0.00  0.00    +0.000 C 
ATOM     12  C   UNL     1       3.298   6.463  19.227  0.00  0.00    +0.000 C 
BRANCH  10  13
ATOM     13  C   UNL     1       2.796   8.500  17.695  0.00  0.00    +0.000 C 
BRANCH  13  14
ATOM     14  N   UNL     1       1.782   9.524  17.477  0.00  0.00    +0.000 NA
ATOM     15  H   UNL     1       2.071  10.376  18.023  0.00  0.00    +0.000 HD
ATOM     16  H   UNL     1       1.749   9.787  16.467  0.00  0.00    +0.000 HD
ENDBRANCH  13  14
ENDBRANCH  10  13
ENDBRANCH   1  12
BRANCH   2  17
ATOM     17  O   UNL     1       4.627   5.467  16.866  0.00  0.00    +0.000 OA
BRANCH  17  18
ATOM     18  C   UNL     1       5.382   5.178  15.740  0.00  0.00    +0.000 C 
BRANCH  18  19
ATOM     19  C   UNL     1       6.886   5.264  16.075  0.00  0.00    +0.000 C 
ATOM     20  C   UNL     1       7.096   6.206  17.250  0.00  0.00    +0.000 C 
ATOM     21  C   UNL     1       7.391   4.718  17.402  0.00  0.00    +0.000 C 
ENDBRANCH  18  19
ENDBRANCH  17  18
ENDBRANCH   2  17
TORSDOF 6
ENDMDL
MODEL 3
REMARK VINA RESULT:      -6.5      2.552      5.428
REMARK  Name = 
REMARK  6 active torsions:
REMARK  status: ('A' for Active; 'I' for Inactive)
REMARK    1  A    between atoms: N_1  and  C_2
REMARK    2  A    between atoms: C_2  and  C_3
REMARK    3  A    between atoms: C_5  and  C_6
REMARK    4  A    between atoms: C_7  and  O_8
REMARK    5  A    between atoms: O_8  and  C_9
REMARK    6  A    between atoms: C_9  and  C_10
REMARK                            x       y       z     vdW  Elec       q    Type
REMARK                         _______ _______ _______ _____ _____    ______ ____
ROOT
ATOM      1  C   UNL     1       3.010   6.173  18.693  0.00  0.00    +0.000 A 
ATOM      2  C   UNL     1       2.659   5.400  19.830  0.00  0.00    +0.000 A 
ATOM      3  C   UNL     1       1.859   5.986  20.855  0.00  0.00    +0.000 A 
ATOM      4  C   UNL     1       1.397   7.306  20.747  0.00  0.00    +0.000 A 
ATOM      5  C   UNL     1       1.725   8.022  19.603  0.00  0.00    +0.000 A 
ATOM      6  O   UNL     1       1.363   9.242  19.298  0.00  0.00    +0.000 OA
ATOM      7  C   UNL     1       1.867   9.523  18.113  0.00  0.00    +0.000 A 
ATOM      8  C   UNL     1       2.591   8.445  17.631  0.00  0.00    +0.000 A 
ATOM      9  C   UNL     1       2.494   7.479  18.612  0.00  0.00    +0.000 A 
ENDROOT
BRANCH   1  12
ATOM     10  C   UNL     1       5.303   6.039  17.849  0.00  0.00    +0.000 C 
ATOM     11  C   UNL     1       4.931   4.574  17.711  0.00  0.00    +0.000 C 
ATOM     12  C   UNL     1       3.837   5.615  17.561  0.00  0.00    +0.000 C 
BRANCH  10  13
ATOM     13  C   UNL     1       6.006   6.731  16.666  0.00  0.00    +0.000 C 
BRANCH  13  14
ATOM     14  N   UNL     1       7.339   6.207  16.399  0.00  0.00    +0.000 NA
ATOM     15  H   UNL     1       7.928   7.007  16.049  0.00  0.00    +0.000 HD
ATOM     16  H   UNL     1       7.770   5.855  17.283  0.00  0.00    +0.000 HD
ENDBRANCH  13  14
ENDBRANCH  10  13
ENDBRANCH   1  12
BRANCH   2  17
ATOM     17  O   UNL     1       3.078   4.109  19.902  0.00  0.00    +0.000 OA
BRANCH  17  18
ATOM     18  C   UNL     1       2.431   3.076  20.562  0.00  0.00    +0.000 C 
BRANCH  18  19
ATOM     19  C   UNL     1       1.956   2.015  19.549  0.00  0.00    +0.000 C 
ATOM     20  C   UNL     1       0.769   2.552  18.763  0.00  0.00    +0.000 C 
ATOM     21  C   UNL     1       2.095   2.286  18.058  0.00  0.00    +0.000 C 
ENDBRANCH  18  19
ENDBRANCH  17  18
ENDBRANCH   2  17
TORSDOF 6
ENDMDL
MODEL 4
REMARK VINA RESULT:      -6.5      0.953      1.221
REMARK  Name = 
REMARK  6 active torsions:
REMARK  status: ('A' for Active; 'I' for Inactive)
REMARK    1  A    between atoms: N_1  and  C_2
REMARK    2  A    between atoms: C_2  and  C_3
REMARK    3  A    between atoms: C_5  and  C_6
REMARK    4  A    between atoms: C_7  and  O_8
REMARK    5  A    between atoms: O_8  and  C_9
REMARK    6  A    between atoms: C_9  and  C_10
REMARK                            x       y       z     vdW  Elec       q    Type
REMARK                         _______ _______ _______ _____ _____    ______ ____
ROOT
ATOM      1  C   UNL     1       2.857   4.680  18.223  0.00  0.00    +0.000 A 
ATOM      2  C   UNL     1       3.874   4.029  17.479  0.00  0.00    +0.000 A 
ATOM      3  C   UNL     1       4.193   2.670  17.770  0.00  0.00    +0.000 A 
ATOM      4  C   UNL     1       3.503   1.962  18.765  0.00  0.00    +0.000 A 
ATOM      5  C   UNL     1       2.486   2.617  19.448  0.00  0.00    +0.000 A 
ATOM      6  O   UNL     1       1.707   2.125  20.376  0.00  0.00    +0.000 OA
ATOM      7  C   UNL     1       0.864   3.072  20.733  0.00  0.00    +0.000 A 
ATOM      8  C   UNL     1       1.109   4.229  20.013  0.00  0.00    +0.000 A 
ATOM      9  C   UNL     1       2.169   3.920  19.186  0.00  0.00    +0.000 A 
ENDROOT
BRANCH   1  12
ATOM     10  C   UNL     1       2.981   6.937  19.161  0.00  0.00    +0.000 C 
ATOM     11  C   UNL     1       3.416   7.264  17.744  0.00  0.00    +0.000 C 
ATOM     12  C   UNL     1       2.452   6.111  17.957  0.00  0.00    +0.000 C 
BRANCH  10  13
ATOM     13  C   UNL     1       1.920   7.834  19.827  0.00  0.00    +0.000 C 
BRANCH  13  14
ATOM     14  N   UNL     1       1.810   7.628  21.266  0.00  0.00    +0.000 NA
ATOM     15  H   UNL     1       0.790   7.691  21.516  0.00  0.00    +0.000 HD
ATOM     16  H   UNL     1       2.144   6.671  21.518  0.00  0.00    +0.000 HD
ENDBRANCH  13  14
ENDBRANCH  10  13
ENDBRANCH   1  12
BRANCH   2  17
ATOM     17  O   UNL     1       4.506   4.714  16.488  0.00  0.00    +0.000 OA
BRANCH  17  18
ATOM     18  C   UNL     1       5.389   4.180  15.562  0.00  0.00    +0.000 C 
BRANCH  18  19
ATOM     19  C   UNL     1       6.815   4.705  15.826  0.00  0.00    +0.000 C 
ATOM     20  C   UNL     1       6.752   5.924  16.734  0.00  0.00    +0.000 C 
ATOM     21  C   UNL     1       7.393   4.632  17.231  0.00  0.00    +0.000 C 
ENDBRANCH  18  19
ENDBRANCH  17  18
ENDBRANCH   2  17
TORSDOF 6
ENDMDL
MODEL 5
REMARK VINA RESULT:      -6.5      1.524      2.132
REMARK  Name = 
REMARK  6 active torsions:
REMARK  status: ('A' for Active; 'I' for Inactive)
REMARK    1  A    between atoms: N_1  and  C_2
REMARK    2  A    between atoms: C_2  and  C_3
REMARK    3  A    between atoms: C_5  and  C_6
REMARK    4  A    between atoms: C_7  and  O_8
REMARK    5  A    between atoms: O_8  and  C_9
REMARK    6  A    between atoms: C_9  and  C_10
REMARK                            x       y       z     vdW  Elec       q    Type
REMARK                         _______ _______ _______ _____ _____    ______ ____
ROOT
ATOM      1  C   UNL     1       3.161   4.905  18.861  0.00  0.00    +0.000 A 
ATOM      2  C   UNL     1       3.696   4.389  17.654  0.00  0.00    +0.000 A 
ATOM      3  C   UNL     1       3.525   3.007  17.346  0.00  0.00    +0.000 A 
ATOM      4  C   UNL     1       2.817   2.157  18.208  0.00  0.00    +0.000 A 
ATOM      5  C   UNL     1       2.271   2.702  19.362  0.00  0.00    +0.000 A 
ATOM      6  O   UNL     1       1.551   2.090  20.267  0.00  0.00    +0.000 OA
ATOM      7  C   UNL     1       1.213   2.980  21.178  0.00  0.00    +0.000 A 
ATOM      8  C   UNL     1       1.740   4.220  20.856  0.00  0.00    +0.000 A 
ATOM      9  C   UNL     1       2.429   4.023  19.676  0.00  0.00    +0.000 A 
ENDROOT
BRANCH   1  12
ATOM     10  C   UNL     1       2.244   7.123  18.385  0.00  0.00    +0.000 C 
ATOM     11  C   UNL     1       2.197   7.187  19.901  0.00  0.00    +0.000 C 
ATOM     12  C   UNL     1       3.287   6.360  19.244  0.00  0.00    +0.000 C 
BRANCH  10  13
ATOM     13  C   UNL     1       2.816   8.330  17.619  0.00  0.00    +0.000 C 
BRANCH  13  14
ATOM     14  N   UNL     1       1.874   9.435  17.493  0.00  0.00    +0.000 NA
ATOM     15  H   UNL     1       1.133   9.143  16.805  0.00  0.00    +0.000 HD
ATOM     16  H   UNL     1       1.406   9.614  18.410  0.00  0.00    +0.000 HD
ENDBRANCH  13  14
ENDBRANCH  10  13
ENDBRANCH   1  12
BRANCH   2  17
ATOM     17  O   UNL     1       4.344   5.233  16.807  0.00  0.00    +0.000 OA
BRANCH  17  18
ATOM     18  C   UNL     1       5.715   5.433  16.743  0.00  0.00    +0.000 C 
BRANCH  18  19
ATOM     19  C   UNL     1       6.358   4.396  15.800  0.00  0.00    +0.000 C 
ATOM     20  C   UNL     1       5.587   4.348  14.489  0.00  0.00    +0.000 C 
ATOM     21  C   UNL     1       7.023   4.863  14.514  0.00  0.00    +0.000 C 
ENDBRANCH  18  19
ENDBRANCH  17  18
ENDBRANCH   2  17
TORSDOF 6
ENDMDL
MODEL 6
REMARK VINA RESULT:      -6.4      1.010      1.642
REMARK  Name = 
REMARK  6 active torsions:
REMARK  status: ('A' for Active; 'I' for Inactive)
REMARK    1  A    between atoms: N_1  and  C_2
REMARK    2  A    between atoms: C_2  and  C_3
REMARK    3  A    between atoms: C_5  and  C_6
REMARK    4  A    between atoms: C_7  and  O_8
REMARK    5  A    between atoms: O_8  and  C_9
REMARK    6  A    between atoms: C_9  and  C_10
REMARK                            x       y       z     vdW  Elec       q    Type
REMARK                         _______ _______ _______ _____ _____    ______ ____
ROOT
ATOM      1  C   UNL     1       2.778   5.108  18.570  0.00  0.00    +0.000 A 
ATOM      2  C   UNL     1       3.892   4.682  17.801  0.00  0.00    +0.000 A 
ATOM      3  C   UNL     1       4.498   3.423  18.085  0.00  0.00    +0.000 A 
ATOM      4  C   UNL     1       3.998   2.591  19.098  0.00  0.00    +0.000 A 
ATOM      5  C   UNL     1       2.882   3.020  19.805  0.00  0.00    +0.000 A 
ATOM      6  O   UNL     1       2.247   2.380  20.753  0.00  0.00    +0.000 OA
ATOM      7  C   UNL     1       1.232   3.130  21.131  0.00  0.00    +0.000 A 
ATOM      8  C   UNL     1       1.209   4.308  20.404  0.00  0.00    +0.000 A 
ATOM      9  C   UNL     1       2.290   4.226  19.550  0.00  0.00    +0.000 A 
ENDROOT
BRANCH   1  12
ATOM     10  C   UNL     1       2.619   7.414  19.374  0.00  0.00    +0.000 C 
ATOM     11  C   UNL     1       2.756   7.707  17.891  0.00  0.00    +0.000 C 
ATOM     12  C   UNL     1       2.074   6.419  18.314  0.00  0.00    +0.000 C 
BRANCH  10  13
ATOM     13  C   UNL     1       1.527   8.153  20.169  0.00  0.00    +0.000 C 
BRANCH  13  14
ATOM     14  N   UNL     1       1.684   8.037  21.614  0.00  0.00    +0.000 NA
ATOM     15  H   UNL     1       1.914   7.033  21.827  0.00  0.00    +0.000 HD
ATOM     16  H   UNL     1       2.486   8.625  21.936  0.00  0.00    +0.000 HD
ENDBRANCH  13  14
ENDBRANCH  10  13
ENDBRANCH   1  12
BRANCH   2  17
ATOM     17  O   UNL     1       4.341   5.479  16.795  0.00  0.00    +0.000 OA
BRANCH  17  18
ATOM     18  C   UNL     1       5.656   5.600  16.373  0.00  0.00    +0.000 C 
BRANCH  18  19
ATOM     19  C   UNL     1       5.753   5.331  14.858  0.00  0.00    +0.000 C 
ATOM     20  C   UNL     1       7.130   4.778  14.523  0.00  0.00    +0.000 C 
ATOM     21  C   UNL     1       5.893   3.901  14.357  0.00  0.00    +0.000 C 
ENDBRANCH  18  19
ENDBRANCH  17  18
ENDBRANCH   2  17
TORSDOF 6
ENDMDL
MODEL 7
REMARK VINA RESULT:      -6.3      1.807      4.916
REMARK  Name = 
REMARK  6 active torsions:
REMARK  status: ('A' for Active; 'I' for Inactive)
REMARK    1  A    between atoms: N_1  and  C_2
REMARK    2  A    between atoms: C_2  and  C_3
REMARK    3  A    between atoms: C_5  and  C_6
REMARK    4  A    between atoms: C_7  and  O_8
REMARK    5  A    between atoms: O_8  and  C_9
REMARK    6  A    between atoms: C_9  and  C_10
REMARK                            x       y       z     vdW  Elec       q    Type
REMARK                         _______ _______ _______ _____ _____    ______ ____
ROOT
ATOM      1  C   UNL     1       4.340   5.613  17.736  0.00  0.00    +0.000 A 
ATOM      2  C   UNL     1       3.970   4.321  17.284  0.00  0.00    +0.000 A 
ATOM      3  C   UNL     1       4.836   3.613  16.401  0.00  0.00    +0.000 A 
ATOM      4  C   UNL     1       6.058   4.165  15.989  0.00  0.00    +0.000 A 
ATOM      5  C   UNL     1       6.410   5.415  16.482  0.00  0.00    +0.000 A 
ATOM      6  O   UNL     1       7.514   6.079  16.252  0.00  0.00    +0.000 OA
ATOM      7  C   UNL     1       7.454   7.204  16.935  0.00  0.00    +0.000 A 
ATOM      8  C   UNL     1       6.260   7.277  17.634  0.00  0.00    +0.000 A 
ATOM      9  C   UNL     1       5.591   6.111  17.326  0.00  0.00    +0.000 A 
ENDROOT
BRANCH   1  12
ATOM     10  C   UNL     1       2.583   7.315  17.799  0.00  0.00    +0.000 C 
ATOM     11  C   UNL     1       1.970   6.330  18.778  0.00  0.00    +0.000 C 
ATOM     12  C   UNL     1       3.483   6.414  18.687  0.00  0.00    +0.000 C 
BRANCH  10  13
ATOM     13  C   UNL     1       2.608   8.807  18.181  0.00  0.00    +0.000 C 
BRANCH  13  14
ATOM     14  N   UNL     1       1.635   9.608  17.449  0.00  0.00    +0.000 NA
ATOM     15  H   UNL     1       1.641   9.278  16.450  0.00  0.00    +0.000 HD
ATOM     16  H   UNL     1       0.677   9.447  17.834  0.00  0.00    +0.000 HD
ENDBRANCH  13  14
ENDBRANCH  10  13
ENDBRANCH   1  12
BRANCH   2  17
ATOM     17  O   UNL     1       2.802   3.780  17.723  0.00  0.00    +0.000 OA
BRANCH  17  18
ATOM     18  C   UNL     1       2.464   2.435  17.699  0.00  0.00    +0.000 C 
BRANCH  18  19
ATOM     19  C   UNL     1       1.716   2.053  18.992  0.00  0.00    +0.000 C 
ATOM     20  C   UNL     1       2.314   2.806  20.171  0.00  0.00    +0.000 C 
ATOM     21  C   UNL     1       0.888   3.103  19.718  0.00  0.00    +0.000 C 
ENDBRANCH  18  19
ENDBRANCH  17  18
ENDBRANCH   2  17
TORSDOF 6
ENDMDL
MODEL 8
REMARK VINA RESULT:      -6.2      2.355      4.011
REMARK  Name = 
REMARK  6 active torsions:
REMARK  status: ('A' for Active; 'I' for Inactive)
REMARK    1  A    between atoms: N_1  and  C_2
REMARK    2  A    between atoms: C_2  and  C_3
REMARK    3  A    between atoms: C_5  and  C_6
REMARK    4  A    between atoms: C_7  and  O_8
REMARK    5  A    between atoms: O_8  and  C_9
REMARK    6  A    between atoms: C_9  and  C_10
REMARK                            x       y       z     vdW  Elec       q    Type
REMARK                         _______ _______ _______ _____ _____    ______ ____
ROOT
ATOM      1  C   UNL     1       3.379   5.091  18.451  0.00  0.00    +0.000 A 
ATOM      2  C   UNL     1       4.063   5.660  17.347  0.00  0.00    +0.000 A 
ATOM      3  C   UNL     1       3.938   7.057  17.090  0.00  0.00    +0.000 A 
ATOM      4  C   UNL     1       3.166   7.879  17.923  0.00  0.00    +0.000 A 
ATOM      5  C   UNL     1       2.540   7.298  19.019  0.00  0.00    +0.000 A 
ATOM      6  O   UNL     1       1.814   7.895  19.929  0.00  0.00    +0.000 OA
ATOM      7  C   UNL     1       1.439   6.982  20.802  0.00  0.00    +0.000 A 
ATOM      8  C   UNL     1       1.937   5.741  20.442  0.00  0.00    +0.000 A 
ATOM      9  C   UNL     1       2.646   5.961  19.279  0.00  0.00    +0.000 A 
ENDROOT
BRANCH   1  12
ATOM     10  C   UNL     1       2.218   2.952  18.191  0.00  0.00    +0.000 C 
ATOM     11  C   UNL     1       3.609   2.498  17.787  0.00  0.00    +0.000 C 
ATOM     12  C   UNL     1       3.480   3.624  18.796  0.00  0.00    +0.000 C 
BRANCH  10  13
ATOM     13  C   UNL     1       1.424   2.085  19.185  0.00  0.00    +0.000 C 
BRANCH  13  14
ATOM     14  N   UNL     1       0.137   2.661  19.557  0.00  0.00    +0.000 NA
ATOM     15  H   UNL     1       0.005   2.499  20.588  0.00  0.00    +0.000 HD
ATOM     16  H   UNL     1       0.145   3.693  19.393  0.00  0.00    +0.000 HD
ENDBRANCH  13  14
ENDBRANCH  10  13
ENDBRANCH   1  12
BRANCH   2  17
ATOM     17  O   UNL     1       4.842   4.859  16.572  0.00  0.00    +0.000 OA
BRANCH  17  18
ATOM     18  C   UNL     1       6.228   4.805  16.587  0.00  0.00    +0.000 C 
BRANCH  18  19
ATOM     19  C   UNL     1       6.744   4.091  15.321  0.00  0.00    +0.000 C 
ATOM     20  C   UNL     1       5.678   4.136  14.237  0.00  0.00    +0.000 C 
ATOM     21  C   UNL     1       6.988   4.894  14.053  0.00  0.00    +0.000 C 
ENDBRANCH  18  19
ENDBRANCH  17  18
ENDBRANCH   2  17
TORSDOF 6
ENDMDL
MODEL 9
REMARK VINA RESULT:      -6.2      2.855      5.266
REMARK  Name = 
REMARK  6 active torsions:
REMARK  status: ('A' for Active; 'I' for Inactive)
REMARK    1  A    between atoms: N_1  and  C_2
REMARK    2  A    between atoms: C_2  and  C_3
REMARK    3  A    between atoms: C_5  and  C_6
REMARK    4  A    between atoms: C_7  and  O_8
REMARK    5  A    between atoms: O_8  and  C_9
REMARK    6  A    between atoms: C_9  and  C_10
REMARK                            x       y       z     vdW  Elec       q    Type
REMARK                         _______ _______ _______ _____ _____    ______ ____
ROOT
ATOM      1  C   UNL     1       4.200   5.911  18.331  0.00  0.00    +0.000 A 
ATOM      2  C   UNL     1       3.917   4.888  19.271  0.00  0.00    +0.000 A 
ATOM      3  C   UNL     1       2.835   5.056  20.185  0.00  0.00    +0.000 A 
ATOM      4  C   UNL     1       2.035   6.208  20.155  0.00  0.00    +0.000 A 
ATOM      5  C   UNL     1       2.315   7.173  19.195  0.00  0.00    +0.000 A 
ATOM      6  O   UNL     1       1.668   8.290  18.980  0.00  0.00    +0.000 OA
ATOM      7  C   UNL     1       2.244   8.895  17.962  0.00  0.00    +0.000 A 
ATOM      8  C   UNL     1       3.313   8.144  17.500  0.00  0.00    +0.000 A 
ATOM      9  C   UNL     1       3.349   7.031  18.314  0.00  0.00    +0.000 A 
ENDROOT
BRANCH   1  12
ATOM     10  C   UNL     1       4.801   4.826  16.221  0.00  0.00    +0.000 C 
ATOM     11  C   UNL     1       5.231   6.240  15.872  0.00  0.00    +0.000 C 
ATOM     12  C   UNL     1       5.316   5.794  17.321  0.00  0.00    +0.000 C 
BRANCH  10  13
ATOM     13  C   UNL     1       5.762   3.667  15.898  0.00  0.00    +0.000 C 
BRANCH  13  14
ATOM     14  N   UNL     1       6.184   3.636  14.503  0.00  0.00    +0.000 NA
ATOM     15  H   UNL     1       5.400   4.038  13.927  0.00  0.00    +0.000 HD
ATOM     16  H   UNL     1       7.023   4.244  14.368  0.00  0.00    +0.000 HD
ENDBRANCH  13  14
ENDBRANCH  10  13
ENDBRANCH   1  12
BRANCH   2  17
ATOM     17  O   UNL     1       4.674   3.758  19.262  0.00  0.00    +0.000 OA
BRANCH  17  18
ATOM     18  C   UNL     1       4.286   2.512  19.730  0.00  0.00    +0.000 C 
BRANCH  18  19
ATOM     19  C   UNL     1       3.582   1.720  18.609  0.00  0.00    +0.000 C 
ATOM     20  C   UNL     1       2.084   1.683  18.872  0.00  0.00    +0.000 C 
ATOM     21  C   UNL     1       2.630   2.441  17.666  0.00  0.00    +0.000 C 
ENDBRANCH  18  19
ENDBRANCH  17  18
ENDBRANCH   2  17
TORSDOF 6
ENDMDL
