MODEL 1
REMARK VINA RESULT:      -7.2      0.000      0.000
REMARK  Name = 
REMARK  14 active torsions:
REMARK  status: ('A' for Active; 'I' for Inactive)
REMARK    1  A    between atoms: C_1  and  O_2
REMARK    2  A    between atoms: O_2  and  C_3
REMARK    3  A    between atoms: C_6  and  C_7
REMARK    4  A    between atoms: C_7  and  C_8
REMARK    5  A    between atoms: C_8  and  N_9
REMARK    6  A    between atoms: N_9  and  C_10
REMARK    7  A    between atoms: C_10  and  C_11
REMARK    8  A    between atoms: C_11  and  O_12
REMARK    9  A    between atoms: C_11  and  C_13
REMARK   10  A    between atoms: C_13  and  O_14
REMARK   11  A    between atoms: O_14  and  C_15
REMARK   12  A    between atoms: C_18  and  C_19
REMARK   13  A    between atoms: C_27  and  O_28
REMARK   14  A    between atoms: O_28  and  C_29
REMARK                            x       y       z     vdW  Elec       q    Type
REMARK                         _______ _______ _______ _____ _____    ______ ____
ROOT
ATOM      1  C   UNL     1       1.226   3.750  20.496  0.00  0.00    +0.000 C 
ENDROOT
BRANCH   1   2
ATOM      2  O   UNL     1       0.867   2.848  21.551  0.00  0.00    +0.000 OA
ATOM      3  H   UNL     1      -0.059   2.593  21.378  0.00  0.00    +0.000 HD
ENDBRANCH   1   2
BRANCH   1   4
ATOM      4  C   UNL     1       1.779   2.930  19.305  0.00  0.00    +0.000 C 
BRANCH   4   5
ATOM      5  N   UNL     1       1.364   3.506  18.011  0.00  0.00    +0.000 NA
ATOM      6  H   UNL     1       0.547   3.013  17.653  0.00  0.00    +0.000 HD
BRANCH   5   7
ATOM      7  C   UNL     1       2.430   3.373  17.010  0.00  0.00    +0.000 C 
BRANCH   7   8
ATOM      8  C   UNL     1       3.787   3.301  17.721  0.00  0.00    +0.000 C 
BRANCH   8  12
ATOM      9  C   UNL     1       6.937   5.032  15.314  0.00  0.00    +0.000 A 
ATOM     10  C   UNL     1       5.981   4.171  14.748  0.00  0.00    +0.000 A 
ATOM     11  C   UNL     1       4.957   3.621  15.518  0.00  0.00    +0.000 A 
ATOM     12  C   UNL     1       4.891   3.887  16.884  0.00  0.00    +0.000 A 
ATOM     13  C   UNL     1       5.860   4.716  17.459  0.00  0.00    +0.000 A 
ATOM     14  C   UNL     1       6.888   5.290  16.693  0.00  0.00    +0.000 A 
BRANCH   9  16
ATOM     15  C   UNL     1       7.868   5.316  13.156  0.00  0.00    +0.000 C 
ATOM     16  O   UNL     1       7.922   5.604  14.552  0.00  0.00    +0.000 OA
ENDBRANCH   9  16
BRANCH  14  17
ATOM     17  O   UNL     1       7.714   6.070  17.460  0.00  0.00    +0.000 OA
ATOM     18  C   UNL     1       7.608   7.481  17.375  0.00  0.00    +0.000 C 
ENDBRANCH  14  17
ENDBRANCH   8  12
ENDBRANCH   7   8
ENDBRANCH   5   7
ENDBRANCH   4   5
ENDBRANCH   1   4
BRANCH   1  19
ATOM     19  C   UNL     1       2.275   4.750  20.996  0.00  0.00    +0.000 C 
BRANCH  19  20
ATOM     20  O   UNL     1       2.827   5.505  19.916  0.00  0.00    +0.000 OA
BRANCH  20  21
ATOM     21  C   UNL     1       2.286   6.757  19.775  0.00  0.00    +0.000 A 
ATOM     22  C   UNL     1       2.484   7.364  18.535  0.00  0.00    +0.000 A 
ATOM     23  C   UNL     1       2.017   8.661  18.301  0.00  0.00    +0.000 A 
ATOM     24  C   UNL     1       1.334   9.368  19.303  0.00  0.00    +0.000 A 
ATOM     25  C   UNL     1       1.101   8.728  20.528  0.00  0.00    +0.000 A 
ATOM     26  C   UNL     1       1.568   7.436  20.760  0.00  0.00    +0.000 A 
BRANCH  24  27
ATOM     27  C   UNL     1       0.889  10.737  19.082  0.00  0.00    +0.000 A 
ATOM     28  N   UNL     1      -0.305  11.279  19.251  0.00  0.00    +0.000 NA
ATOM     29  C   UNL     1      -0.132  12.584  18.851  0.00  0.00    +0.000 A 
ATOM     30  C   UNL     1       1.164  12.784  18.456  0.00  0.00    +0.000 A 
ATOM     31  O   UNL     1       1.832  11.611  18.595  0.00  0.00    +0.000 OA
ENDBRANCH  24  27
ENDBRANCH  20  21
ENDBRANCH  19  20
ENDBRANCH   1  19
TORSDOF 12
ENDMDL
MODEL 2
REMARK VINA RESULT:      -7.1      1.028      2.073
REMARK  Name = 
REMARK  14 active torsions:
REMARK  status: ('A' for Active; 'I' for Inactive)
REMARK    1  A    between atoms: C_1  and  O_2
REMARK    2  A    between atoms: O_2  and  C_3
REMARK    3  A    between atoms: C_6  and  C_7
REMARK    4  A    between atoms: C_7  and  C_8
REMARK    5  A    between atoms: C_8  and  N_9
REMARK    6  A    between atoms: N_9  and  C_10
REMARK    7  A    between atoms: C_10  and  C_11
REMARK    8  A    between atoms: C_11  and  O_12
REMARK    9  A    between atoms: C_11  and  C_13
REMARK   10  A    between atoms: C_13  and  O_14
REMARK   11  A    between atoms: O_14  and  C_15
REMARK   12  A    between atoms: C_18  and  C_19
REMARK   13  A    between atoms: C_27  and  O_28
REMARK   14  A    between atoms: O_28  and  C_29
REMARK                            x       y       z     vdW  Elec       q    Type
REMARK                         _______ _______ _______ _____ _____    ______ ____
ROOT
ATOM      1  C   UNL     1       1.579   3.195  21.033  0.00  0.00    +0.000 C 
ENDROOT
BRANCH   1   2
ATOM      2  O   UNL     1       2.157   3.176  22.345  0.00  0.00    +0.000 OA
ATOM      3  H   UNL     1       2.897   3.811  22.318  0.00  0.00    +0.000 HD
ENDBRANCH   1   2
BRANCH   1   4
ATOM      4  C   UNL     1       2.621   2.658  20.022  0.00  0.00    +0.000 C 
BRANCH   4   5
ATOM      5  N   UNL     1       2.011   2.394  18.704  0.00  0.00    +0.000 NA
ATOM      6  H   UNL     1       2.299   1.479  18.361  0.00  0.00    +0.000 HD
BRANCH   5   7
ATOM      7  C   UNL     1       2.445   3.389  17.714  0.00  0.00    +0.000 C 
BRANCH   7   8
ATOM      8  C   UNL     1       3.732   2.901  17.038  0.00  0.00    +0.000 C 
BRANCH   8  12
ATOM      9  C   UNL     1       6.713   6.019  16.706  0.00  0.00    +0.000 A 
ATOM     10  C   UNL     1       6.074   5.753  17.929  0.00  0.00    +0.000 A 
ATOM     11  C   UNL     1       5.122   4.740  18.043  0.00  0.00    +0.000 A 
ATOM     12  C   UNL     1       4.755   3.998  16.922  0.00  0.00    +0.000 A 
ATOM     13  C   UNL     1       5.363   4.283  15.695  0.00  0.00    +0.000 A 
ATOM     14  C   UNL     1       6.335   5.288  15.568  0.00  0.00    +0.000 A 
BRANCH   9  16
ATOM     15  C   UNL     1       7.762   7.895  17.697  0.00  0.00    +0.000 C 
ATOM     16  O   UNL     1       7.677   6.987  16.600  0.00  0.00    +0.000 OA
ENDBRANCH   9  16
BRANCH  14  17
ATOM     17  O   UNL     1       6.797   5.384  14.282  0.00  0.00    +0.000 OA
ATOM     18  C   UNL     1       6.839   4.220  13.473  0.00  0.00    +0.000 C 
ENDBRANCH  14  17
ENDBRANCH   8  12
ENDBRANCH   7   8
ENDBRANCH   5   7
ENDBRANCH   4   5
ENDBRANCH   1   4
BRANCH   1  19
ATOM     19  C   UNL     1       1.159   4.623  20.668  0.00  0.00    +0.000 C 
BRANCH  19  20
ATOM     20  O   UNL     1       2.272   5.388  20.201  0.00  0.00    +0.000 OA
BRANCH  20  21
ATOM     21  C   UNL     1       1.976   6.698  19.928  0.00  0.00    +0.000 A 
ATOM     22  C   UNL     1       2.305   7.138  18.645  0.00  0.00    +0.000 A 
ATOM     23  C   UNL     1       2.092   8.469  18.279  0.00  0.00    +0.000 A 
ATOM     24  C   UNL     1       1.535   9.383  19.188  0.00  0.00    +0.000 A 
ATOM     25  C   UNL     1       1.167   8.917  20.457  0.00  0.00    +0.000 A 
ATOM     26  C   UNL     1       1.381   7.590  20.822  0.00  0.00    +0.000 A 
BRANCH  24  27
ATOM     27  C   UNL     1       1.357  10.783  18.828  0.00  0.00    +0.000 A 
ATOM     28  N   UNL     1       2.226  11.649  18.336  0.00  0.00    +0.000 NA
ATOM     29  C   UNL     1       1.504  12.815  18.234  0.00  0.00    +0.000 A 
ATOM     30  C   UNL     1       0.221  12.610  18.667  0.00  0.00    +0.000 A 
ATOM     31  O   UNL     1       0.110  11.314  19.053  0.00  0.00    +0.000 OA
ENDBRANCH  24  27
ENDBRANCH  20  21
ENDBRANCH  19  20
ENDBRANCH   1  19
TORSDOF 12
ENDMDL
MODEL 3
REMARK VINA RESULT:      -7.0      1.589      2.003
REMARK  Name = 
REMARK  14 active torsions:
REMARK  status: ('A' for Active; 'I' for Inactive)
REMARK    1  A    between atoms: C_1  and  O_2
REMARK    2  A    between atoms: O_2  and  C_3
REMARK    3  A    between atoms: C_6  and  C_7
REMARK    4  A    between atoms: C_7  and  C_8
REMARK    5  A    between atoms: C_8  and  N_9
REMARK    6  A    between atoms: N_9  and  C_10
REMARK    7  A    between atoms: C_10  and  C_11
REMARK    8  A    between atoms: C_11  and  O_12
REMARK    9  A    between atoms: C_11  and  C_13
REMARK   10  A    between atoms: C_13  and  O_14
REMARK   11  A    between atoms: O_14  and  C_15
REMARK   12  A    between atoms: C_18  and  C_19
REMARK   13  A    between atoms: C_27  and  O_28
REMARK   14  A    between atoms: O_28  and  C_29
REMARK                            x       y       z     vdW  Elec       q    Type
REMARK                         _______ _______ _______ _____ _____    ______ ____
ROOT
ATOM      1  C   UNL     1       1.636   3.857  20.964  0.00  0.00    +0.000 C 
ENDROOT
BRANCH   1   2
ATOM      2  O   UNL     1       2.694   2.942  21.279  0.00  0.00    +0.000 OA
ATOM      3  H   UNL     1       3.219   2.851  20.461  0.00  0.00    +0.000 HD
ENDBRANCH   1   2
BRANCH   1   4
ATOM      4  C   UNL     1       1.087   3.518  19.556  0.00  0.00    +0.000 C 
BRANCH   4   5
ATOM      5  N   UNL     1       1.534   2.185  19.106  0.00  0.00    +0.000 NA
ATOM      6  H   UNL     1       2.201   1.796  19.771  0.00  0.00    +0.000 HD
BRANCH   5   7
ATOM      7  C   UNL     1       2.211   2.268  17.806  0.00  0.00    +0.000 C 
BRANCH   7   8
ATOM      8  C   UNL     1       3.727   2.173  18.017  0.00  0.00    +0.000 C 
BRANCH   8  12
ATOM      9  C   UNL     1       5.622   6.045  17.650  0.00  0.00    +0.000 A 
ATOM     10  C   UNL     1       4.783   5.548  16.637  0.00  0.00    +0.000 A 
ATOM     11  C   UNL     1       4.160   4.306  16.757  0.00  0.00    +0.000 A 
ATOM     12  C   UNL     1       4.398   3.512  17.877  0.00  0.00    +0.000 A 
ATOM     13  C   UNL     1       5.260   3.987  18.872  0.00  0.00    +0.000 A 
ATOM     14  C   UNL     1       5.881   5.243  18.772  0.00  0.00    +0.000 A 
BRANCH   9  16
ATOM     15  C   UNL     1       7.523   7.300  17.006  0.00  0.00    +0.000 C 
ATOM     16  O   UNL     1       6.204   7.281  17.551  0.00  0.00    +0.000 OA
ENDBRANCH   9  16
BRANCH  14  17
ATOM     17  O   UNL     1       6.671   5.502  19.861  0.00  0.00    +0.000 OA
ATOM     18  C   UNL     1       8.077   5.370  19.744  0.00  0.00    +0.000 C 
ENDBRANCH  14  17
ENDBRANCH   8  12
ENDBRANCH   7   8
ENDBRANCH   5   7
ENDBRANCH   4   5
ENDBRANCH   1   4
BRANCH   1  19
ATOM     19  C   UNL     1       2.159   5.297  21.007  0.00  0.00    +0.000 C 
BRANCH  19  20
ATOM     20  O   UNL     1       2.512   5.759  19.701  0.00  0.00    +0.000 OA
BRANCH  20  21
ATOM     21  C   UNL     1       2.141   7.054  19.447  0.00  0.00    +0.000 A 
ATOM     22  C   UNL     1       1.560   7.738  20.516  0.00  0.00    +0.000 A 
ATOM     23  C   UNL     1       1.100   9.047  20.350  0.00  0.00    +0.000 A 
ATOM     24  C   UNL     1       1.222   9.699  19.113  0.00  0.00    +0.000 A 
ATOM     25  C   UNL     1       1.848   9.017  18.061  0.00  0.00    +0.000 A 
ATOM     26  C   UNL     1       2.306   7.711  18.226  0.00  0.00    +0.000 A 
BRANCH  24  27
ATOM     27  C   UNL     1       0.699  11.044  18.920  0.00  0.00    +0.000 A 
ATOM     28  N   UNL     1      -0.488  11.439  18.492  0.00  0.00    +0.000 NA
ATOM     29  C   UNL     1      -0.393  12.812  18.484  0.00  0.00    +0.000 A 
ATOM     30  C   UNL     1       0.851  13.196  18.911  0.00  0.00    +0.000 A 
ATOM     31  O   UNL     1       1.563  12.077  19.193  0.00  0.00    +0.000 OA
ENDBRANCH  24  27
ENDBRANCH  20  21
ENDBRANCH  19  20
ENDBRANCH   1  19
TORSDOF 12
ENDMDL
MODEL 4
REMARK VINA RESULT:      -6.8      1.359      1.735
REMARK  Name = 
REMARK  14 active torsions:
REMARK  status: ('A' for Active; 'I' for Inactive)
REMARK    1  A    between atoms: C_1  and  O_2
REMARK    2  A    between atoms: O_2  and  C_3
REMARK    3  A    between atoms: C_6  and  C_7
REMARK    4  A    between atoms: C_7  and  C_8
REMARK    5  A    between atoms: C_8  and  N_9
REMARK    6  A    between atoms: N_9  and  C_10
REMARK    7  A    between atoms: C_10  and  C_11
REMARK    8  A    between atoms: C_11  and  O_12
REMARK    9  A    between atoms: C_11  and  C_13
REMARK   10  A    between atoms: C_13  and  O_14
REMARK   11  A    between atoms: O_14  and  C_15
REMARK   12  A    between atoms: C_18  and  C_19
REMARK   13  A    between atoms: C_27  and  O_28
REMARK   14  A    between atoms: O_28  and  C_29
REMARK                            x       y       z     vdW  Elec       q    Type
REMARK                         _______ _______ _______ _____ _____    ______ ____
ROOT
ATOM      1  C   UNL     1       1.925   2.800  20.822  0.00  0.00    +0.000 C 
ENDROOT
BRANCH   1   2
ATOM      2  O   UNL     1       2.716   2.582  21.998  0.00  0.00    +0.000 OA
ATOM      3  H   UNL     1       2.957   3.470  22.323  0.00  0.00    +0.000 HD
ENDBRANCH   1   2
BRANCH   1   4
ATOM      4  C   UNL     1       2.784   2.476  19.576  0.00  0.00    +0.000 C 
BRANCH   4   5
ATOM      5  N   UNL     1       2.002   2.602  18.330  0.00  0.00    +0.000 NA
ATOM      6  H   UNL     1       2.031   1.727  17.808  0.00  0.00    +0.000 HD
BRANCH   5   7
ATOM      7  C   UNL     1       2.558   3.649  17.463  0.00  0.00    +0.000 C 
BRANCH   7   8
ATOM      8  C   UNL     1       3.844   3.132  16.808  0.00  0.00    +0.000 C 
BRANCH   8  12
ATOM      9  C   UNL     1       6.917   6.178  16.767  0.00  0.00    +0.000 A 
ATOM     10  C   UNL     1       5.839   6.222  15.866  0.00  0.00    +0.000 A 
ATOM     11  C   UNL     1       4.840   5.249  15.884  0.00  0.00    +0.000 A 
ATOM     12  C   UNL     1       4.920   4.184  16.778  0.00  0.00    +0.000 A 
ATOM     13  C   UNL     1       6.009   4.117  17.654  0.00  0.00    +0.000 A 
ATOM     14  C   UNL     1       7.014   5.098  17.658  0.00  0.00    +0.000 A 
BRANCH   9  16
ATOM     15  C   UNL     1       7.596   8.292  17.588  0.00  0.00    +0.000 C 
ATOM     16  O   UNL     1       7.879   7.153  16.776  0.00  0.00    +0.000 OA
ENDBRANCH   9  16
BRANCH  14  17
ATOM     17  O   UNL     1       7.973   4.834  18.601  0.00  0.00    +0.000 OA
ATOM     18  C   UNL     1       7.976   5.575  19.810  0.00  0.00    +0.000 C 
ENDBRANCH  14  17
ENDBRANCH   8  12
ENDBRANCH   7   8
ENDBRANCH   5   7
ENDBRANCH   4   5
ENDBRANCH   1   4
BRANCH   1  19
ATOM     19  C   UNL     1       1.439   4.253  20.780  0.00  0.00    +0.000 C 
BRANCH  19  20
ATOM     20  O   UNL     1       2.473   5.132  20.329  0.00  0.00    +0.000 OA
BRANCH  20  21
ATOM     21  C   UNL     1       2.067   6.429  20.152  0.00  0.00    +0.000 A 
ATOM     22  C   UNL     1       2.417   7.012  18.934  0.00  0.00    +0.000 A 
ATOM     23  C   UNL     1       2.096   8.346  18.671  0.00  0.00    +0.000 A 
ATOM     24  C   UNL     1       1.408   9.119  19.621  0.00  0.00    +0.000 A 
ATOM     25  C   UNL     1       1.023   8.508  20.822  0.00  0.00    +0.000 A 
ATOM     26  C   UNL     1       1.344   7.178  21.083  0.00  0.00    +0.000 A 
BRANCH  24  27
ATOM     27  C   UNL     1       1.116  10.524  19.373  0.00  0.00    +0.000 A 
ATOM     28  N   UNL     1       1.528  11.317  18.399  0.00  0.00    +0.000 NA
ATOM     29  C   UNL     1       0.961  12.532  18.704  0.00  0.00    +0.000 A 
ATOM     30  C   UNL     1       0.223  12.428  19.853  0.00  0.00    +0.000 A 
ATOM     31  O   UNL     1       0.312  11.149  20.296  0.00  0.00    +0.000 OA
ENDBRANCH  24  27
ENDBRANCH  20  21
ENDBRANCH  19  20
ENDBRANCH   1  19
TORSDOF 12
ENDMDL
MODEL 5
REMARK VINA RESULT:      -6.7      1.303      2.273
REMARK  Name = 
REMARK  14 active torsions:
REMARK  status: ('A' for Active; 'I' for Inactive)
REMARK    1  A    between atoms: C_1  and  O_2
REMARK    2  A    between atoms: O_2  and  C_3
REMARK    3  A    between atoms: C_6  and  C_7
REMARK    4  A    between atoms: C_7  and  C_8
REMARK    5  A    between atoms: C_8  and  N_9
REMARK    6  A    between atoms: N_9  and  C_10
REMARK    7  A    between atoms: C_10  and  C_11
REMARK    8  A    between atoms: C_11  and  O_12
REMARK    9  A    between atoms: C_11  and  C_13
REMARK   10  A    between atoms: C_13  and  O_14
REMARK   11  A    between atoms: O_14  and  C_15
REMARK   12  A    between atoms: C_18  and  C_19
REMARK   13  A    between atoms: C_27  and  O_28
REMARK   14  A    between atoms: O_28  and  C_29
REMARK                            x       y       z     vdW  Elec       q    Type
REMARK                         _______ _______ _______ _____ _____    ______ ____
ROOT
ATOM      1  C   UNL     1       0.609   3.607  19.164  0.00  0.00    +0.000 C 
ENDROOT
BRANCH   1   2
ATOM      2  O   UNL     1      -0.162   2.457  19.538  0.00  0.00    +0.000 OA
ATOM      3  H   UNL     1       0.487   1.772  19.784  0.00  0.00    +0.000 HD
ENDBRANCH   1   2
BRANCH   1   4
ATOM      4  C   UNL     1       1.594   3.203  18.040  0.00  0.00    +0.000 C 
BRANCH   4   5
ATOM      5  N   UNL     1       2.368   2.001  18.404  0.00  0.00    +0.000 NA
ATOM      6  H   UNL     1       2.380   1.884  19.417  0.00  0.00    +0.000 HD
BRANCH   5   7
ATOM      7  C   UNL     1       3.763   2.118  17.961  0.00  0.00    +0.000 C 
BRANCH   7   8
ATOM      8  C   UNL     1       4.560   2.911  19.004  0.00  0.00    +0.000 C 
BRANCH   8  12
ATOM      9  C   UNL     1       6.627   6.273  17.230  0.00  0.00    +0.000 A 
ATOM     10  C   UNL     1       6.606   6.086  18.623  0.00  0.00    +0.000 A 
ATOM     11  C   UNL     1       5.952   4.997  19.198  0.00  0.00    +0.000 A 
ATOM     12  C   UNL     1       5.265   4.092  18.392  0.00  0.00    +0.000 A 
ATOM     13  C   UNL     1       5.254   4.292  17.008  0.00  0.00    +0.000 A 
ATOM     14  C   UNL     1       5.922   5.375  16.414  0.00  0.00    +0.000 A 
BRANCH   9  16
ATOM     15  C   UNL     1       7.929   8.220  17.573  0.00  0.00    +0.000 C 
ATOM     16  O   UNL     1       7.301   7.321  16.661  0.00  0.00    +0.000 OA
ENDBRANCH   9  16
BRANCH  14  17
ATOM     17  O   UNL     1       5.783   5.367  15.050  0.00  0.00    +0.000 OA
ATOM     18  C   UNL     1       6.173   4.215  14.323  0.00  0.00    +0.000 C 
ENDBRANCH  14  17
ENDBRANCH   8  12
ENDBRANCH   7   8
ENDBRANCH   5   7
ENDBRANCH   4   5
ENDBRANCH   1   4
BRANCH   1  19
ATOM     19  C   UNL     1       1.369   4.145  20.381  0.00  0.00    +0.000 C 
BRANCH  19  20
ATOM     20  O   UNL     1       2.458   4.981  19.983  0.00  0.00    +0.000 OA
BRANCH  20  21
ATOM     21  C   UNL     1       2.127   6.304  19.845  0.00  0.00    +0.000 A 
ATOM     22  C   UNL     1       2.477   6.891  18.629  0.00  0.00    +0.000 A 
ATOM     23  C   UNL     1       2.230   8.249  18.404  0.00  0.00    +0.000 A 
ATOM     24  C   UNL     1       1.617   9.039  19.388  0.00  0.00    +0.000 A 
ATOM     25  C   UNL     1       1.229   8.426  20.587  0.00  0.00    +0.000 A 
ATOM     26  C   UNL     1       1.476   7.073  20.812  0.00  0.00    +0.000 A 
BRANCH  24  27
ATOM     27  C   UNL     1       1.403  10.464  19.178  0.00  0.00    +0.000 A 
ATOM     28  N   UNL     1       1.905  11.270  18.258  0.00  0.00    +0.000 NA
ATOM     29  C   UNL     1       1.377  12.500  18.577  0.00  0.00    +0.000 A 
ATOM     30  C   UNL     1       0.572  12.391  19.680  0.00  0.00    +0.000 A 
ATOM     31  O   UNL     1       0.578  11.095  20.078  0.00  0.00    +0.000 OA
ENDBRANCH  24  27
ENDBRANCH  20  21
ENDBRANCH  19  20
ENDBRANCH   1  19
TORSDOF 12
ENDMDL
MODEL 6
REMARK VINA RESULT:      -6.6      2.289      7.086
REMARK  Name = 
REMARK  14 active torsions:
REMARK  status: ('A' for Active; 'I' for Inactive)
REMARK    1  A    between atoms: C_1  and  O_2
REMARK    2  A    between atoms: O_2  and  C_3
REMARK    3  A    between atoms: C_6  and  C_7
REMARK    4  A    between atoms: C_7  and  C_8
REMARK    5  A    between atoms: C_8  and  N_9
REMARK    6  A    between atoms: N_9  and  C_10
REMARK    7  A    between atoms: C_10  and  C_11
REMARK    8  A    between atoms: C_11  and  O_12
REMARK    9  A    between atoms: C_11  and  C_13
REMARK   10  A    between atoms: C_13  and  O_14
REMARK   11  A    between atoms: O_14  and  C_15
REMARK   12  A    between atoms: C_18  and  C_19
REMARK   13  A    between atoms: C_27  and  O_28
REMARK   14  A    between atoms: O_28  and  C_29
REMARK                            x       y       z     vdW  Elec       q    Type
REMARK                         _______ _______ _______ _____ _____    ______ ____
ROOT
ATOM      1  C   UNL     1       2.017   3.050  20.567  0.00  0.00    +0.000 C 
ENDROOT
BRANCH   1   2
ATOM      2  O   UNL     1       1.870   2.360  21.816  0.00  0.00    +0.000 OA
ATOM      3  H   UNL     1       1.889   1.409  21.598  0.00  0.00    +0.000 HD
ENDBRANCH   1   2
BRANCH   1   4
ATOM      4  C   UNL     1       1.051   4.259  20.550  0.00  0.00    +0.000 C 
BRANCH   4   5
ATOM      5  N   UNL     1       1.396   5.213  19.477  0.00  0.00    +0.000 NA
ATOM      6  H   UNL     1       1.724   4.711  18.653  0.00  0.00    +0.000 HD
BRANCH   5   7
ATOM      7  C   UNL     1       2.476   6.113  19.900  0.00  0.00    +0.000 C 
BRANCH   7   8
ATOM      8  C   UNL     1       2.707   7.171  18.815  0.00  0.00    +0.000 C 
BRANCH   8  12
ATOM      9  C   UNL     1       0.095  10.579  19.351  0.00  0.00    +0.000 A 
ATOM     10  C   UNL     1       0.530  10.192  18.072  0.00  0.00    +0.000 A 
ATOM     11  C   UNL     1       1.362   9.086  17.893  0.00  0.00    +0.000 A 
ATOM     12  C   UNL     1       1.813   8.368  18.998  0.00  0.00    +0.000 A 
ATOM     13  C   UNL     1       1.411   8.770  20.277  0.00  0.00    +0.000 A 
ATOM     14  C   UNL     1       0.561   9.871  20.470  0.00  0.00    +0.000 A 
BRANCH   9  16
ATOM     15  C   UNL     1      -1.334  12.168  18.334  0.00  0.00    +0.000 C 
ATOM     16  O   UNL     1      -0.752  11.641  19.525  0.00  0.00    +0.000 OA
ENDBRANCH   9  16
BRANCH  14  17
ATOM     17  O   UNL     1       0.294  10.075  21.799  0.00  0.00    +0.000 OA
ATOM     18  C   UNL     1      -0.487   9.123  22.501  0.00  0.00    +0.000 C 
ENDBRANCH  14  17
ENDBRANCH   8  12
ENDBRANCH   7   8
ENDBRANCH   5   7
ENDBRANCH   4   5
ENDBRANCH   1   4
BRANCH   1  19
ATOM     19  C   UNL     1       1.711   2.098  19.405  0.00  0.00    +0.000 C 
BRANCH  19  20
ATOM     20  O   UNL     1       2.908   1.703  18.731  0.00  0.00    +0.000 OA
BRANCH  20  21
ATOM     21  C   UNL     1       3.746   2.743  18.424  0.00  0.00    +0.000 A 
ATOM     22  C   UNL     1       4.689   3.068  19.401  0.00  0.00    +0.000 A 
ATOM     23  C   UNL     1       5.559   4.145  19.211  0.00  0.00    +0.000 A 
ATOM     24  C   UNL     1       5.509   4.909  18.034  0.00  0.00    +0.000 A 
ATOM     25  C   UNL     1       4.589   4.543  17.042  0.00  0.00    +0.000 A 
ATOM     26  C   UNL     1       3.720   3.470  17.233  0.00  0.00    +0.000 A 
BRANCH  24  27
ATOM     27  C   UNL     1       6.379   6.062  17.853  0.00  0.00    +0.000 A 
ATOM     28  N   UNL     1       6.348   7.012  16.934  0.00  0.00    +0.000 NA
ATOM     29  C   UNL     1       7.430   7.804  17.244  0.00  0.00    +0.000 A 
ATOM     30  C   UNL     1       8.075   7.303  18.344  0.00  0.00    +0.000 A 
ATOM     31  O   UNL     1       7.417   6.187  18.745  0.00  0.00    +0.000 OA
ENDBRANCH  24  27
ENDBRANCH  20  21
ENDBRANCH  19  20
ENDBRANCH   1  19
TORSDOF 12
ENDMDL
MODEL 7
REMARK VINA RESULT:      -6.6      1.041      1.077
REMARK  Name = 
REMARK  14 active torsions:
REMARK  status: ('A' for Active; 'I' for Inactive)
REMARK    1  A    between atoms: C_1  and  O_2
REMARK    2  A    between atoms: O_2  and  C_3
REMARK    3  A    between atoms: C_6  and  C_7
REMARK    4  A    between atoms: C_7  and  C_8
REMARK    5  A    between atoms: C_8  and  N_9
REMARK    6  A    between atoms: N_9  and  C_10
REMARK    7  A    between atoms: C_10  and  C_11
REMARK    8  A    between atoms: C_11  and  O_12
REMARK    9  A    between atoms: C_11  and  C_13
REMARK   10  A    between atoms: C_13  and  O_14
REMARK   11  A    between atoms: O_14  and  C_15
REMARK   12  A    between atoms: C_18  and  C_19
REMARK   13  A    between atoms: C_27  and  O_28
REMARK   14  A    between atoms: O_28  and  C_29
REMARK                            x       y       z     vdW  Elec       q    Type
REMARK                         _______ _______ _______ _____ _____    ______ ____
ROOT
ATOM      1  C   UNL     1       1.458   3.060  21.075  0.00  0.00    +0.000 C 
ENDROOT
BRANCH   1   2
ATOM      2  O   UNL     1       2.445   3.245  22.099  0.00  0.00    +0.000 OA
ATOM      3  H   UNL     1       2.082   2.818  22.898  0.00  0.00    +0.000 HD
ENDBRANCH   1   2
BRANCH   1   4
ATOM      4  C   UNL     1       2.091   2.259  19.912  0.00  0.00    +0.000 C 
BRANCH   4   5
ATOM      5  N   UNL     1       1.586   2.715  18.602  0.00  0.00    +0.000 NA
ATOM      6  H   UNL     1       0.922   2.040  18.227  0.00  0.00    +0.000 HD
BRANCH   5   7
ATOM      7  C   UNL     1       2.680   2.839  17.631  0.00  0.00    +0.000 C 
BRANCH   7   8
ATOM      8  C   UNL     1       3.880   3.517  18.304  0.00  0.00    +0.000 C 
BRANCH   8  12
ATOM      9  C   UNL     1       6.651   5.110  15.388  0.00  0.00    +0.000 A 
ATOM     10  C   UNL     1       6.041   3.858  15.202  0.00  0.00    +0.000 A 
ATOM     11  C   UNL     1       5.138   3.346  16.133  0.00  0.00    +0.000 A 
ATOM     12  C   UNL     1       4.857   4.060  17.296  0.00  0.00    +0.000 A 
ATOM     13  C   UNL     1       5.487   5.291  17.503  0.00  0.00    +0.000 A 
ATOM     14  C   UNL     1       6.387   5.826  16.566  0.00  0.00    +0.000 A 
BRANCH   9  16
ATOM     15  C   UNL     1       7.537   4.959  13.198  0.00  0.00    +0.000 C 
ATOM     16  O   UNL     1       7.509   5.632  14.456  0.00  0.00    +0.000 OA
ENDBRANCH   9  16
BRANCH  14  17
ATOM     17  O   UNL     1       6.873   7.041  16.971  0.00  0.00    +0.000 OA
ATOM     18  C   UNL     1       7.881   7.086  17.968  0.00  0.00    +0.000 C 
ENDBRANCH  14  17
ENDBRANCH   8  12
ENDBRANCH   7   8
ENDBRANCH   5   7
ENDBRANCH   4   5
ENDBRANCH   1   4
BRANCH   1  19
ATOM     19  C   UNL     1       0.953   4.421  20.582  0.00  0.00    +0.000 C 
BRANCH  19  20
ATOM     20  O   UNL     1       2.037   5.325  20.359  0.00  0.00    +0.000 OA
BRANCH  20  21
ATOM     21  C   UNL     1       1.668   6.645  20.329  0.00  0.00    +0.000 A 
ATOM     22  C   UNL     1       2.122   7.375  19.231  0.00  0.00    +0.000 A 
ATOM     23  C   UNL     1       1.845   8.741  19.128  0.00  0.00    +0.000 A 
ATOM     24  C   UNL     1       1.098   9.398  20.118  0.00  0.00    +0.000 A 
ATOM     25  C   UNL     1       0.609   8.642  21.193  0.00  0.00    +0.000 A 
ATOM     26  C   UNL     1       0.887   7.281  21.296  0.00  0.00    +0.000 A 
BRANCH  24  27
ATOM     27  C   UNL     1       0.849  10.831  20.041  0.00  0.00    +0.000 A 
ATOM     28  N   UNL     1       0.339  11.551  19.057  0.00  0.00    +0.000 NA
ATOM     29  C   UNL     1       0.379  12.839  19.539  0.00  0.00    +0.000 A 
ATOM     30  C   UNL     1       0.910  12.849  20.802  0.00  0.00    +0.000 A 
ATOM     31  O   UNL     1       1.218  11.572  21.138  0.00  0.00    +0.000 OA
ENDBRANCH  24  27
ENDBRANCH  20  21
ENDBRANCH  19  20
ENDBRANCH   1  19
TORSDOF 12
ENDMDL
MODEL 8
REMARK VINA RESULT:      -6.5      1.748      2.644
REMARK  Name = 
REMARK  14 active torsions:
REMARK  status: ('A' for Active; 'I' for Inactive)
REMARK    1  A    between atoms: C_1  and  O_2
REMARK    2  A    between atoms: O_2  and  C_3
REMARK    3  A    between atoms: C_6  and  C_7
REMARK    4  A    between atoms: C_7  and  C_8
REMARK    5  A    between atoms: C_8  and  N_9
REMARK    6  A    between atoms: N_9  and  C_10
REMARK    7  A    between atoms: C_10  and  C_11
REMARK    8  A    between atoms: C_11  and  O_12
REMARK    9  A    between atoms: C_11  and  C_13
REMARK   10  A    between atoms: C_13  and  O_14
REMARK   11  A    between atoms: O_14  and  C_15
REMARK   12  A    between atoms: C_18  and  C_19
REMARK   13  A    between atoms: C_27  and  O_28
REMARK   14  A    between atoms: O_28  and  C_29
REMARK                            x       y       z     vdW  Elec       q    Type
REMARK                         _______ _______ _______ _____ _____    ______ ____
ROOT
ATOM      1  C   UNL     1       1.929   4.196  18.208  0.00  0.00    +0.000 C 
ENDROOT
BRANCH   1   2
ATOM      2  O   UNL     1       0.911   4.530  17.255  0.00  0.00    +0.000 OA
ATOM      3  H   UNL     1       0.079   4.585  17.763  0.00  0.00    +0.000 HD
ENDBRANCH   1   2
BRANCH   1   4
ATOM      4  C   UNL     1       1.602   2.814  18.823  0.00  0.00    +0.000 C 
BRANCH   4   5
ATOM      5  N   UNL     1       2.683   1.841  18.576  0.00  0.00    +0.000 NA
ATOM      6  H   UNL     1       3.038   1.478  19.460  0.00  0.00    +0.000 HD
BRANCH   5   7
ATOM      7  C   UNL     1       3.811   2.472  17.878  0.00  0.00    +0.000 C 
BRANCH   7   8
ATOM      8  C   UNL     1       4.801   3.022  18.911  0.00  0.00    +0.000 C 
BRANCH   8  12
ATOM      9  C   UNL     1       7.099   6.334  17.340  0.00  0.00    +0.000 A 
ATOM     10  C   UNL     1       7.044   6.080  18.722  0.00  0.00    +0.000 A 
ATOM     11  C   UNL     1       6.315   5.006  19.231  0.00  0.00    +0.000 A 
ATOM     12  C   UNL     1       5.587   4.186  18.371  0.00  0.00    +0.000 A 
ATOM     13  C   UNL     1       5.612   4.456  16.998  0.00  0.00    +0.000 A 
ATOM     14  C   UNL     1       6.354   5.525  16.469  0.00  0.00    +0.000 A 
BRANCH   9  16
ATOM     15  C   UNL     1       7.898   8.542  17.640  0.00  0.00    +0.000 C 
ATOM     16  O   UNL     1       7.846   7.366  16.835  0.00  0.00    +0.000 OA
ENDBRANCH   9  16
BRANCH  14  17
ATOM     17  O   UNL     1       6.238   5.593  15.106  0.00  0.00    +0.000 OA
ATOM     18  C   UNL     1       5.695   4.489  14.401  0.00  0.00    +0.000 C 
ENDBRANCH  14  17
ENDBRANCH   8  12
ENDBRANCH   7   8
ENDBRANCH   5   7
ENDBRANCH   4   5
ENDBRANCH   1   4
BRANCH   1  19
ATOM     19  C   UNL     1       1.996   5.271  19.299  0.00  0.00    +0.000 C 
BRANCH  19  20
ATOM     20  O   UNL     1       2.597   6.471  18.808  0.00  0.00    +0.000 OA
BRANCH  20  21
ATOM     21  C   UNL     1       2.021   7.620  19.284  0.00  0.00    +0.000 A 
ATOM     22  C   UNL     1       1.797   8.621  18.337  0.00  0.00    +0.000 A 
ATOM     23  C   UNL     1       1.261   9.852  18.726  0.00  0.00    +0.000 A 
ATOM     24  C   UNL     1       0.929  10.099  20.067  0.00  0.00    +0.000 A 
ATOM     25  C   UNL     1       1.117   9.069  20.999  0.00  0.00    +0.000 A 
ATOM     26  C   UNL     1       1.653   7.842  20.612  0.00  0.00    +0.000 A 
BRANCH  24  27
ATOM     27  C   UNL     1       0.417  11.397  20.485  0.00  0.00    +0.000 A 
ATOM     28  N   UNL     1       0.183  12.485  19.772  0.00  0.00    +0.000 NA
ATOM     29  C   UNL     1      -0.255  13.398  20.704  0.00  0.00    +0.000 A 
ATOM     30  C   UNL     1      -0.271  12.825  21.948  0.00  0.00    +0.000 A 
ATOM     31  O   UNL     1       0.158  11.544  21.827  0.00  0.00    +0.000 OA
ENDBRANCH  24  27
ENDBRANCH  20  21
ENDBRANCH  19  20
ENDBRANCH   1  19
TORSDOF 12
ENDMDL
MODEL 9
REMARK VINA RESULT:      -6.4      2.900      4.120
REMARK  Name = 
REMARK  14 active torsions:
REMARK  status: ('A' for Active; 'I' for Inactive)
REMARK    1  A    between atoms: C_1  and  O_2
REMARK    2  A    between atoms: O_2  and  C_3
REMARK    3  A    between atoms: C_6  and  C_7
REMARK    4  A    between atoms: C_7  and  C_8
REMARK    5  A    between atoms: C_8  and  N_9
REMARK    6  A    between atoms: N_9  and  C_10
REMARK    7  A    between atoms: C_10  and  C_11
REMARK    8  A    between atoms: C_11  and  O_12
REMARK    9  A    between atoms: C_11  and  C_13
REMARK   10  A    between atoms: C_13  and  O_14
REMARK   11  A    between atoms: O_14  and  C_15
REMARK   12  A    between atoms: C_18  and  C_19
REMARK   13  A    between atoms: C_27  and  O_28
REMARK   14  A    between atoms: O_28  and  C_29
REMARK                            x       y       z     vdW  Elec       q    Type
REMARK                         _______ _______ _______ _____ _____    ______ ____
ROOT
ATOM      1  C   UNL     1       2.410   6.771  19.985  0.00  0.00    +0.000 C 
ENDROOT
BRANCH   1   2
ATOM      2  O   UNL     1       2.400   7.150  18.602  0.00  0.00    +0.000 OA
ATOM      3  H   UNL     1       3.176   6.715  18.202  0.00  0.00    +0.000 HD
ENDBRANCH   1   2
BRANCH   1   4
ATOM      4  C   UNL     1       1.885   5.320  20.108  0.00  0.00    +0.000 C 
BRANCH   4   5
ATOM      5  N   UNL     1       2.188   4.529  18.900  0.00  0.00    +0.000 NA
ATOM      6  H   UNL     1       1.323   4.225  18.454  0.00  0.00    +0.000 HD
BRANCH   5   7
ATOM      7  C   UNL     1       2.953   3.322  19.239  0.00  0.00    +0.000 C 
BRANCH   7   8
ATOM      8  C   UNL     1       3.840   2.934  18.050  0.00  0.00    +0.000 C 
BRANCH   8  12
ATOM      9  C   UNL     1       6.694   6.025  17.041  0.00  0.00    +0.000 A 
ATOM     10  C   UNL     1       6.339   5.773  18.378  0.00  0.00    +0.000 A 
ATOM     11  C   UNL     1       5.429   4.769  18.708  0.00  0.00    +0.000 A 
ATOM     12  C   UNL     1       4.819   4.022  17.702  0.00  0.00    +0.000 A 
ATOM     13  C   UNL     1       5.143   4.293  16.368  0.00  0.00    +0.000 A 
ATOM     14  C   UNL     1       6.069   5.290  16.022  0.00  0.00    +0.000 A 
BRANCH   9  16
ATOM     15  C   UNL     1       7.817   8.004  17.696  0.00  0.00    +0.000 C 
ATOM     16  O   UNL     1       7.616   6.986  16.717  0.00  0.00    +0.000 OA
ENDBRANCH   9  16
BRANCH  14  17
ATOM     17  O   UNL     1       6.237   5.373  14.664  0.00  0.00    +0.000 OA
ATOM     18  C   UNL     1       6.395   4.182  13.913  0.00  0.00    +0.000 C 
ENDBRANCH  14  17
ENDBRANCH   8  12
ENDBRANCH   7   8
ENDBRANCH   5   7
ENDBRANCH   4   5
ENDBRANCH   1   4
BRANCH   1  19
ATOM     19  C   UNL     1       1.537   7.733  20.797  0.00  0.00    +0.000 C 
BRANCH  19  20
ATOM     20  O   UNL     1       1.223   8.907  20.046  0.00  0.00    +0.000 OA
BRANCH  20  21
ATOM     21  C   UNL     1       0.556   9.868  20.762  0.00  0.00    +0.000 A 
ATOM     22  C   UNL     1      -0.014   9.441  21.962  0.00  0.00    +0.000 A 
ATOM     23  C   UNL     1      -0.758  10.328  22.744  0.00  0.00    +0.000 A 
ATOM     24  C   UNL     1      -0.936  11.662  22.345  0.00  0.00    +0.000 A 
ATOM     25  C   UNL     1      -0.319  12.089  21.161  0.00  0.00    +0.000 A 
ATOM     26  C   UNL     1       0.422  11.204  20.381  0.00  0.00    +0.000 A 
BRANCH  24  27
ATOM     27  C   UNL     1      -1.752  12.577  23.131  0.00  0.00    +0.000 A 
ATOM     28  N   UNL     1      -1.447  13.755  23.647  0.00  0.00    +0.000 NA
ATOM     29  C   UNL     1      -2.593  14.129  24.309  0.00  0.00    +0.000 A 
ATOM     30  C   UNL     1      -3.552  13.161  24.166  0.00  0.00    +0.000 A 
ATOM     31  O   UNL     1      -3.030  12.159  23.416  0.00  0.00    +0.000 OA
ENDBRANCH  24  27
ENDBRANCH  20  21
ENDBRANCH  19  20
ENDBRANCH   1  19
TORSDOF 12
ENDMDL
