MODEL 1
REMARK VINA RESULT:      -7.4      0.000      0.000
REMARK  Name = 
REMARK  6 active torsions:
REMARK  status: ('A' for Active; 'I' for Inactive)
REMARK    1  A    between atoms: C_2  and  C_3
REMARK    2  A    between atoms: C_3  and  C_4
REMARK    3  A    between atoms: N_6  and  N_7
REMARK    4  A    between atoms: C_8  and  C_9
REMARK    5  A    between atoms: N_16  and  N_17
REMARK    6  A    between atoms: C_18  and  C_19
REMARK                            x       y       z     vdW  Elec       q    Type
REMARK                         _______ _______ _______ _____ _____    ______ ____
ROOT
ATOM      1  C   UNL     1       3.272   3.949  19.857  0.00  0.00    +0.000 C 
ENDROOT
BRANCH   1   3
ATOM      2  O   UNL     1       1.151   4.158  20.924  0.00  0.00    +0.000 OA
ATOM      3  C   UNL     1       2.137   4.749  20.481  0.00  0.00    +0.000 C 
ATOM      4  N   UNL     1       2.311   6.118  20.505  0.00  0.00    +0.000 N 
ATOM      5  H   UNL     1       3.159   6.517  20.090  0.00  0.00    +0.000 HD
BRANCH   4   6
ATOM      6  N   UNL     1       1.381   6.965  21.025  0.00  0.00    +0.000 NA
ATOM      7  C   UNL     1       1.554   8.203  20.681  0.00  0.00    +0.000 C 
BRANCH   7   8
ATOM      8  C   UNL     1       0.648   9.277  21.129  0.00  0.00    +0.000 A 
ATOM      9  C   UNL     1       0.220   9.333  22.459  0.00  0.00    +0.000 A 
ATOM     10  C   UNL     1      -0.657  10.341  22.860  0.00  0.00    +0.000 A 
ATOM     11  C   UNL     1      -1.093  11.281  21.932  0.00  0.00    +0.000 A 
ATOM     12  F   UNL     1      -1.943  12.241  22.317  0.00  0.00    +0.000 F 
ATOM     13  C   UNL     1      -0.665  11.237  20.608  0.00  0.00    +0.000 A 
ATOM     14  C   UNL     1       0.213  10.231  20.200  0.00  0.00    +0.000 A 
ENDBRANCH   7   8
ENDBRANCH   4   6
ENDBRANCH   1   3
BRANCH   1  15
ATOM     15  C   UNL     1       3.629   4.255  18.423  0.00  0.00    +0.000 C 
ATOM     16  O   UNL     1       3.203   5.253  17.835  0.00  0.00    +0.000 OA
ATOM     17  N   UNL     1       4.467   3.327  17.822  0.00  0.00    +0.000 N 
ATOM     18  H   UNL     1       4.803   2.499  18.300  0.00  0.00    +0.000 HD
BRANCH  17  19
ATOM     19  N   UNL     1       4.797   3.558  16.524  0.00  0.00    +0.000 NA
ATOM     20  C   UNL     1       5.982   3.993  16.255  0.00  0.00    +0.000 C 
BRANCH  20  21
ATOM     21  C   UNL     1       6.371   4.234  14.846  0.00  0.00    +0.000 A 
ATOM     22  C   UNL     1       5.683   3.590  13.804  0.00  0.00    +0.000 A 
ATOM     23  C   UNL     1       6.064   3.804  12.479  0.00  0.00    +0.000 A 
ATOM     24  C   UNL     1       7.126   4.657  12.205  0.00  0.00    +0.000 A 
ATOM     25  F   UNL     1       7.498   4.860  10.935  0.00  0.00    +0.000 F 
ATOM     26  C   UNL     1       7.812   5.303  13.231  0.00  0.00    +0.000 A 
ATOM     27  C   UNL     1       7.434   5.094  14.561  0.00  0.00    +0.000 A 
ENDBRANCH  20  21
ENDBRANCH  17  19
ENDBRANCH   1  15
TORSDOF 6
ENDMDL
MODEL 2
REMARK VINA RESULT:      -7.3      7.195      8.933
REMARK  Name = 
REMARK  6 active torsions:
REMARK  status: ('A' for Active; 'I' for Inactive)
REMARK    1  A    between atoms: C_2  and  C_3
REMARK    2  A    between atoms: C_3  and  C_4
REMARK    3  A    between atoms: N_6  and  N_7
REMARK    4  A    between atoms: C_8  and  C_9
REMARK    5  A    between atoms: N_16  and  N_17
REMARK    6  A    between atoms: C_18  and  C_19
REMARK                            x       y       z     vdW  Elec       q    Type
REMARK                         _______ _______ _______ _____ _____    ______ ____
ROOT
ATOM      1  C   UNL     1       8.384   7.433  18.484  0.00  0.00    +0.000 C 
ENDROOT
BRANCH   1   3
ATOM      2  O   UNL     1       7.189   6.504  16.642  0.00  0.00    +0.000 OA
ATOM      3  C   UNL     1       7.238   6.646  17.865  0.00  0.00    +0.000 C 
ATOM      4  N   UNL     1       6.314   6.132  18.753  0.00  0.00    +0.000 N 
ATOM      5  H   UNL     1       6.429   6.323  19.753  0.00  0.00    +0.000 HD
BRANCH   4   6
ATOM      6  N   UNL     1       5.232   5.411  18.349  0.00  0.00    +0.000 NA
ATOM      7  C   UNL     1       4.577   4.865  19.326  0.00  0.00    +0.000 C 
BRANCH   7   8
ATOM      8  C   UNL     1       3.366   4.053  19.102  0.00  0.00    +0.000 A 
ATOM      9  C   UNL     1       2.222   4.259  19.881  0.00  0.00    +0.000 A 
ATOM     10  C   UNL     1       1.094   3.466  19.673  0.00  0.00    +0.000 A 
ATOM     11  C   UNL     1       1.119   2.481  18.691  0.00  0.00    +0.000 A 
ATOM     12  F   UNL     1       0.038   1.713  18.501  0.00  0.00    +0.000 F 
ATOM     13  C   UNL     1       2.250   2.276  17.906  0.00  0.00    +0.000 A 
ATOM     14  C   UNL     1       3.382   3.066  18.109  0.00  0.00    +0.000 A 
ENDBRANCH   7   8
ENDBRANCH   4   6
ENDBRANCH   1   3
BRANCH   1  15
ATOM     15  C   UNL     1       8.364   8.933  18.315  0.00  0.00    +0.000 C 
ATOM     16  O   UNL     1       7.551   9.505  17.584  0.00  0.00    +0.000 OA
ATOM     17  N   UNL     1       9.331   9.612  19.043  0.00  0.00    +0.000 N 
ATOM     18  H   UNL     1      10.008   9.140  19.631  0.00  0.00    +0.000 HD
BRANCH  17  19
ATOM     19  N   UNL     1       9.357  10.963  18.904  0.00  0.00    +0.000 NA
ATOM     20  C   UNL     1      10.137  11.479  18.014  0.00  0.00    +0.000 C 
BRANCH  20  21
ATOM     21  C   UNL     1      10.169  12.949  17.831  0.00  0.00    +0.000 A 
ATOM     22  C   UNL     1       9.083  13.736  18.249  0.00  0.00    +0.000 A 
ATOM     23  C   UNL     1       9.108  15.117  18.059  0.00  0.00    +0.000 A 
ATOM     24  C   UNL     1      10.214  15.701  17.453  0.00  0.00    +0.000 A 
ATOM     25  F   UNL     1      10.238  17.027  17.264  0.00  0.00    +0.000 F 
ATOM     26  C   UNL     1      11.298  14.930  17.039  0.00  0.00    +0.000 A 
ATOM     27  C   UNL     1      11.279  13.545  17.229  0.00  0.00    +0.000 A 
ENDBRANCH  20  21
ENDBRANCH  17  19
ENDBRANCH   1  15
TORSDOF 6
ENDMDL
MODEL 3
REMARK VINA RESULT:      -7.2      0.640     10.243
REMARK  Name = 
REMARK  6 active torsions:
REMARK  status: ('A' for Active; 'I' for Inactive)
REMARK    1  A    between atoms: C_2  and  C_3
REMARK    2  A    between atoms: C_3  and  C_4
REMARK    3  A    between atoms: N_6  and  N_7
REMARK    4  A    between atoms: C_8  and  C_9
REMARK    5  A    between atoms: N_16  and  N_17
REMARK    6  A    between atoms: C_18  and  C_19
REMARK                            x       y       z     vdW  Elec       q    Type
REMARK                         _______ _______ _______ _____ _____    ______ ____
ROOT
ATOM      1  C   UNL     1       3.443   3.657  19.828  0.00  0.00    +0.000 C 
ENDROOT
BRANCH   1   3
ATOM      2  O   UNL     1       3.192   4.642  17.671  0.00  0.00    +0.000 OA
ATOM      3  C   UNL     1       3.972   4.151  18.489  0.00  0.00    +0.000 C 
ATOM      4  N   UNL     1       5.331   4.008  18.291  0.00  0.00    +0.000 N 
ATOM      5  H   UNL     1       5.894   3.566  19.024  0.00  0.00    +0.000 HD
BRANCH   4   6
ATOM      6  N   UNL     1       5.949   4.397  17.143  0.00  0.00    +0.000 NA
ATOM      7  C   UNL     1       5.535   3.765  16.089  0.00  0.00    +0.000 C 
BRANCH   7   8
ATOM      8  C   UNL     1       6.069   4.047  14.743  0.00  0.00    +0.000 A 
ATOM      9  C   UNL     1       5.485   3.463  13.614  0.00  0.00    +0.000 A 
ATOM     10  C   UNL     1       6.017   3.720  12.351  0.00  0.00    +0.000 A 
ATOM     11  C   UNL     1       7.121   4.558  12.229  0.00  0.00    +0.000 A 
ATOM     12  F   UNL     1       7.637   4.795  11.016  0.00  0.00    +0.000 F 
ATOM     13  C   UNL     1       7.702   5.150  13.346  0.00  0.00    +0.000 A 
ATOM     14  C   UNL     1       7.175   4.897  14.614  0.00  0.00    +0.000 A 
ENDBRANCH   7   8
ENDBRANCH   4   6
ENDBRANCH   1   3
BRANCH   1  15
ATOM     15  C   UNL     1       2.566   4.600  20.616  0.00  0.00    +0.000 C 
ATOM     16  O   UNL     1       1.963   4.246  21.632  0.00  0.00    +0.000 OA
ATOM     17  N   UNL     1       2.494   5.889  20.107  0.00  0.00    +0.000 N 
ATOM     18  H   UNL     1       2.978   6.174  19.264  0.00  0.00    +0.000 HD
BRANCH  17  19
ATOM     19  N   UNL     1       1.701   6.763  20.780  0.00  0.00    +0.000 NA
ATOM     20  C   UNL     1       1.710   8.005  20.427  0.00  0.00    +0.000 C 
BRANCH  20  21
ATOM     21  C   UNL     1       0.839   8.973  21.133  0.00  0.00    +0.000 A 
ATOM     22  C   UNL     1       0.638   8.861  22.519  0.00  0.00    +0.000 A 
ATOM     23  C   UNL     1      -0.198   9.763  23.177  0.00  0.00    +0.000 A 
ATOM     24  C   UNL     1      -0.826  10.767  22.449  0.00  0.00    +0.000 A 
ATOM     25  F   UNL     1      -1.633  11.631  23.078  0.00  0.00    +0.000 F 
ATOM     26  C   UNL     1      -0.629  10.888  21.076  0.00  0.00    +0.000 A 
ATOM     27  C   UNL     1       0.208   9.988  20.410  0.00  0.00    +0.000 A 
ENDBRANCH  20  21
ENDBRANCH  17  19
ENDBRANCH   1  15
TORSDOF 6
ENDMDL
MODEL 4
REMARK VINA RESULT:      -7.2      1.311      9.455
REMARK  Name = 
REMARK  6 active torsions:
REMARK  status: ('A' for Active; 'I' for Inactive)
REMARK    1  A    between atoms: C_2  and  C_3
REMARK    2  A    between atoms: C_3  and  C_4
REMARK    3  A    between atoms: N_6  and  N_7
REMARK    4  A    between atoms: C_8  and  C_9
REMARK    5  A    between atoms: N_16  and  N_17
REMARK    6  A    between atoms: C_18  and  C_19
REMARK                            x       y       z     vdW  Elec       q    Type
REMARK                         _______ _______ _______ _____ _____    ______ ____
ROOT
ATOM      1  C   UNL     1       2.845   3.180  20.801  0.00  0.00    +0.000 C 
ENDROOT
BRANCH   1   3
ATOM      2  O   UNL     1       4.874   2.390  19.830  0.00  0.00    +0.000 OA
ATOM      3  C   UNL     1       3.794   2.952  19.634  0.00  0.00    +0.000 C 
ATOM      4  N   UNL     1       3.355   3.405  18.405  0.00  0.00    +0.000 N 
ATOM      5  H   UNL     1       2.450   3.880  18.349  0.00  0.00    +0.000 HD
BRANCH   4   6
ATOM      6  N   UNL     1       4.095   3.277  17.271  0.00  0.00    +0.000 NA
ATOM      7  C   UNL     1       4.587   4.398  16.842  0.00  0.00    +0.000 C 
BRANCH   7   8
ATOM      8  C   UNL     1       5.429   4.475  15.634  0.00  0.00    +0.000 A 
ATOM      9  C   UNL     1       5.099   3.737  14.493  0.00  0.00    +0.000 A 
ATOM     10  C   UNL     1       5.919   3.802  13.367  0.00  0.00    +0.000 A 
ATOM     11  C   UNL     1       7.056   4.603  13.392  0.00  0.00    +0.000 A 
ATOM     12  F   UNL     1       7.848   4.656  12.313  0.00  0.00    +0.000 F 
ATOM     13  C   UNL     1       7.387   5.348  14.520  0.00  0.00    +0.000 A 
ATOM     14  C   UNL     1       6.570   5.287  15.650  0.00  0.00    +0.000 A 
ENDBRANCH   7   8
ENDBRANCH   4   6
ENDBRANCH   1   3
BRANCH   1  15
ATOM     15  C   UNL     1       1.839   4.297  20.668  0.00  0.00    +0.000 C 
ATOM     16  O   UNL     1       0.679   4.101  20.297  0.00  0.00    +0.000 OA
ATOM     17  N   UNL     1       2.323   5.556  20.994  0.00  0.00    +0.000 N 
ATOM     18  H   UNL     1       3.281   5.719  21.283  0.00  0.00    +0.000 HD
BRANCH  17  19
ATOM     19  N   UNL     1       1.453   6.592  20.870  0.00  0.00    +0.000 NA
ATOM     20  C   UNL     1       1.919   7.763  20.592  0.00  0.00    +0.000 C 
BRANCH  20  21
ATOM     21  C   UNL     1       0.987   8.904  20.433  0.00  0.00    +0.000 A 
ATOM     22  C   UNL     1       0.850   9.535  19.186  0.00  0.00    +0.000 A 
ATOM     23  C   UNL     1      -0.015  10.620  19.045  0.00  0.00    +0.000 A 
ATOM     24  C   UNL     1      -0.733  11.067  20.147  0.00  0.00    +0.000 A 
ATOM     25  F   UNL     1      -1.559  12.113  20.016  0.00  0.00    +0.000 F 
ATOM     26  C   UNL     1      -0.607  10.445  21.387  0.00  0.00    +0.000 A 
ATOM     27  C   UNL     1       0.257   9.356  21.535  0.00  0.00    +0.000 A 
ENDBRANCH  20  21
ENDBRANCH  17  19
ENDBRANCH   1  15
TORSDOF 6
ENDMDL
MODEL 5
REMARK VINA RESULT:      -7.2      0.596      1.131
REMARK  Name = 
REMARK  6 active torsions:
REMARK  status: ('A' for Active; 'I' for Inactive)
REMARK    1  A    between atoms: C_2  and  C_3
REMARK    2  A    between atoms: C_3  and  C_4
REMARK    3  A    between atoms: N_6  and  N_7
REMARK    4  A    between atoms: C_8  and  C_9
REMARK    5  A    between atoms: N_16  and  N_17
REMARK    6  A    between atoms: C_18  and  C_19
REMARK                            x       y       z     vdW  Elec       q    Type
REMARK                         _______ _______ _______ _____ _____    ______ ____
ROOT
ATOM      1  C   UNL     1       3.536   3.513  19.795  0.00  0.00    +0.000 C 
ENDROOT
BRANCH   1   3
ATOM      2  O   UNL     1       1.708   3.800  21.298  0.00  0.00    +0.000 OA
ATOM      3  C   UNL     1       2.494   4.349  20.525  0.00  0.00    +0.000 C 
ATOM      4  N   UNL     1       2.517   5.703  20.256  0.00  0.00    +0.000 N 
ATOM      5  H   UNL     1       3.196   6.062  19.579  0.00  0.00    +0.000 HD
BRANCH   4   6
ATOM      6  N   UNL     1       1.644   6.577  20.827  0.00  0.00    +0.000 NA
ATOM      7  C   UNL     1       1.789   7.799  20.419  0.00  0.00    +0.000 C 
BRANCH   7   8
ATOM      8  C   UNL     1       0.933   8.897  20.906  0.00  0.00    +0.000 A 
ATOM      9  C   UNL     1       0.443   8.884  22.216  0.00  0.00    +0.000 A 
ATOM     10  C   UNL     1      -0.384   9.917  22.654  0.00  0.00    +0.000 A 
ATOM     11  C   UNL     1      -0.710  10.952  21.783  0.00  0.00    +0.000 A 
ATOM     12  F   UNL     1      -1.514  11.938  22.202  0.00  0.00    +0.000 F 
ATOM     13  C   UNL     1      -0.220  10.977  20.481  0.00  0.00    +0.000 A 
ATOM     14  C   UNL     1       0.609   9.946  20.036  0.00  0.00    +0.000 A 
ENDBRANCH   7   8
ENDBRANCH   4   6
ENDBRANCH   1   3
BRANCH   1  15
ATOM     15  C   UNL     1       4.012   4.014  18.453  0.00  0.00    +0.000 C 
ATOM     16  O   UNL     1       3.244   4.509  17.623  0.00  0.00    +0.000 OA
ATOM     17  N   UNL     1       5.374   3.874  18.230  0.00  0.00    +0.000 N 
ATOM     18  H   UNL     1       6.001   3.453  18.906  0.00  0.00    +0.000 HD
BRANCH  17  19
ATOM     19  N   UNL     1       5.839   4.298  17.026  0.00  0.00    +0.000 NA
ATOM     20  C   UNL     1       5.813   3.478  16.029  0.00  0.00    +0.000 C 
BRANCH  20  21
ATOM     21  C   UNL     1       6.297   3.925  14.702  0.00  0.00    +0.000 A 
ATOM     22  C   UNL     1       7.228   4.972  14.606  0.00  0.00    +0.000 A 
ATOM     23  C   UNL     1       7.667   5.403  13.353  0.00  0.00    +0.000 A 
ATOM     24  C   UNL     1       7.175   4.786  12.210  0.00  0.00    +0.000 A 
ATOM     25  F   UNL     1       7.590   5.201  11.006  0.00  0.00    +0.000 F 
ATOM     26  C   UNL     1       6.255   3.743  12.295  0.00  0.00    +0.000 A 
ATOM     27  C   UNL     1       5.812   3.307  13.547  0.00  0.00    +0.000 A 
ENDBRANCH  20  21
ENDBRANCH  17  19
ENDBRANCH   1  15
TORSDOF 6
ENDMDL
MODEL 6
REMARK VINA RESULT:      -7.1      5.620      9.166
REMARK  Name = 
REMARK  6 active torsions:
REMARK  status: ('A' for Active; 'I' for Inactive)
REMARK    1  A    between atoms: C_2  and  C_3
REMARK    2  A    between atoms: C_3  and  C_4
REMARK    3  A    between atoms: N_6  and  N_7
REMARK    4  A    between atoms: C_8  and  C_9
REMARK    5  A    between atoms: N_16  and  N_17
REMARK    6  A    between atoms: C_18  and  C_19
REMARK                            x       y       z     vdW  Elec       q    Type
REMARK                         _______ _______ _______ _____ _____    ______ ____
ROOT
ATOM      1  C   UNL     1       5.893   5.719  17.058  0.00  0.00    +0.000 C 
ENDROOT
BRANCH   1   3
ATOM      2  O   UNL     1       7.843   5.584  18.422  0.00  0.00    +0.000 OA
ATOM      3  C   UNL     1       7.114   6.312  17.745  0.00  0.00    +0.000 C 
ATOM      4  N   UNL     1       7.318   7.663  17.546  0.00  0.00    +0.000 N 
ATOM      5  H   UNL     1       6.642   8.187  16.984  0.00  0.00    +0.000 HD
BRANCH   4   6
ATOM      6  N   UNL     1       8.364   8.334  18.101  0.00  0.00    +0.000 NA
ATOM      7  C   UNL     1       8.242   9.624  18.046  0.00  0.00    +0.000 C 
BRANCH   7   8
ATOM      8  C   UNL     1       9.260  10.534  18.602  0.00  0.00    +0.000 A 
ATOM      9  C   UNL     1      10.164  11.185  17.756  0.00  0.00    +0.000 A 
ATOM     10  C   UNL     1      11.138  12.024  18.300  0.00  0.00    +0.000 A 
ATOM     11  C   UNL     1      11.195  12.204  19.678  0.00  0.00    +0.000 A 
ATOM     12  F   UNL     1      12.137  13.001  20.199  0.00  0.00    +0.000 F 
ATOM     13  C   UNL     1      10.294  11.567  20.526  0.00  0.00    +0.000 A 
ATOM     14  C   UNL     1       9.318  10.727  19.988  0.00  0.00    +0.000 A 
ENDBRANCH   7   8
ENDBRANCH   4   6
ENDBRANCH   1   3
BRANCH   1  15
ATOM     15  C   UNL     1       4.634   6.552  17.042  0.00  0.00    +0.000 C 
ATOM     16  O   UNL     1       4.387   7.358  16.141  0.00  0.00    +0.000 OA
ATOM     17  N   UNL     1       3.783   6.340  18.117  0.00  0.00    +0.000 N 
ATOM     18  H   UNL     1       3.994   5.689  18.865  0.00  0.00    +0.000 HD
BRANCH  17  19
ATOM     19  N   UNL     1       2.647   7.084  18.148  0.00  0.00    +0.000 NA
ATOM     20  C   UNL     1       2.547   8.026  19.026  0.00  0.00    +0.000 C 
BRANCH  20  21
ATOM     21  C   UNL     1       1.326   8.862  19.066  0.00  0.00    +0.000 A 
ATOM     22  C   UNL     1       0.758   9.340  17.873  0.00  0.00    +0.000 A 
ATOM     23  C   UNL     1      -0.382  10.143  17.916  0.00  0.00    +0.000 A 
ATOM     24  C   UNL     1      -0.944  10.464  19.146  0.00  0.00    +0.000 A 
ATOM     25  F   UNL     1      -2.034  11.240  19.190  0.00  0.00    +0.000 F 
ATOM     26  C   UNL     1      -0.390   9.992  20.333  0.00  0.00    +0.000 A 
ATOM     27  C   UNL     1       0.751   9.185  20.297  0.00  0.00    +0.000 A 
ENDBRANCH  20  21
ENDBRANCH  17  19
ENDBRANCH   1  15
TORSDOF 6
ENDMDL
MODEL 7
REMARK VINA RESULT:      -7.1      1.159      1.603
REMARK  Name = 
REMARK  6 active torsions:
REMARK  status: ('A' for Active; 'I' for Inactive)
REMARK    1  A    between atoms: C_2  and  C_3
REMARK    2  A    between atoms: C_3  and  C_4
REMARK    3  A    between atoms: N_6  and  N_7
REMARK    4  A    between atoms: C_8  and  C_9
REMARK    5  A    between atoms: N_16  and  N_17
REMARK    6  A    between atoms: C_18  and  C_19
REMARK                            x       y       z     vdW  Elec       q    Type
REMARK                         _______ _______ _______ _____ _____    ______ ____
ROOT
ATOM      1  C   UNL     1       3.141   2.738  20.277  0.00  0.00    +0.000 C 
ENDROOT
BRANCH   1   3
ATOM      2  O   UNL     1       0.933   3.434  20.848  0.00  0.00    +0.000 OA
ATOM      3  C   UNL     1       2.089   3.788  20.610  0.00  0.00    +0.000 C 
ATOM      4  N   UNL     1       2.531   5.096  20.624  0.00  0.00    +0.000 N 
ATOM      5  H   UNL     1       3.509   5.290  20.390  0.00  0.00    +0.000 HD
BRANCH   4   6
ATOM      6  N   UNL     1       1.707   6.143  20.899  0.00  0.00    +0.000 NA
ATOM      7  C   UNL     1       1.999   7.222  20.242  0.00  0.00    +0.000 C 
BRANCH   7   8
ATOM      8  C   UNL     1       1.221   8.466  20.388  0.00  0.00    +0.000 A 
ATOM      9  C   UNL     1       0.529   8.733  21.574  0.00  0.00    +0.000 A 
ATOM     10  C   UNL     1      -0.223   9.903  21.686  0.00  0.00    +0.000 A 
ATOM     11  C   UNL     1      -0.273  10.791  20.617  0.00  0.00    +0.000 A 
ATOM     12  F   UNL     1      -1.005  11.909  20.723  0.00  0.00    +0.000 F 
ATOM     13  C   UNL     1       0.419  10.537  19.437  0.00  0.00    +0.000 A 
ATOM     14  C   UNL     1       1.174   9.369  19.318  0.00  0.00    +0.000 A 
ENDBRANCH   7   8
ENDBRANCH   4   6
ENDBRANCH   1   3
BRANCH   1  15
ATOM     15  C   UNL     1       3.596   2.645  18.841  0.00  0.00    +0.000 C 
ATOM     16  O   UNL     1       3.041   1.912  18.018  0.00  0.00    +0.000 OA
ATOM     17  N   UNL     1       4.683   3.446  18.523  0.00  0.00    +0.000 N 
ATOM     18  H   UNL     1       5.148   4.037  19.203  0.00  0.00    +0.000 HD
BRANCH  17  19
ATOM     19  N   UNL     1       5.134   3.378  17.243  0.00  0.00    +0.000 NA
ATOM     20  C   UNL     1       5.494   4.468  16.654  0.00  0.00    +0.000 C 
BRANCH  20  21
ATOM     21  C   UNL     1       6.007   4.416  15.265  0.00  0.00    +0.000 A 
ATOM     22  C   UNL     1       7.178   5.110  14.918  0.00  0.00    +0.000 A 
ATOM     23  C   UNL     1       7.648   5.074  13.606  0.00  0.00    +0.000 A 
ATOM     24  C   UNL     1       6.947   4.346  12.651  0.00  0.00    +0.000 A 
ATOM     25  F   UNL     1       7.393   4.314  11.389  0.00  0.00    +0.000 F 
ATOM     26  C   UNL     1       5.788   3.650  12.987  0.00  0.00    +0.000 A 
ATOM     27  C   UNL     1       5.312   3.682  14.301  0.00  0.00    +0.000 A 
ENDBRANCH  20  21
ENDBRANCH  17  19
ENDBRANCH   1  15
TORSDOF 6
ENDMDL
MODEL 8
REMARK VINA RESULT:      -7.1      0.828     10.308
REMARK  Name = 
REMARK  6 active torsions:
REMARK  status: ('A' for Active; 'I' for Inactive)
REMARK    1  A    between atoms: C_2  and  C_3
REMARK    2  A    between atoms: C_3  and  C_4
REMARK    3  A    between atoms: N_6  and  N_7
REMARK    4  A    between atoms: C_8  and  C_9
REMARK    5  A    between atoms: N_16  and  N_17
REMARK    6  A    between atoms: C_18  and  C_19
REMARK                            x       y       z     vdW  Elec       q    Type
REMARK                         _______ _______ _______ _____ _____    ______ ____
ROOT
ATOM      1  C   UNL     1       3.125   4.228  20.326  0.00  0.00    +0.000 C 
ENDROOT
BRANCH   1   3
ATOM      2  O   UNL     1       4.968   5.512  19.525  0.00  0.00    +0.000 OA
ATOM      3  C   UNL     1       4.226   4.548  19.324  0.00  0.00    +0.000 C 
ATOM      4  N   UNL     1       4.312   3.703  18.236  0.00  0.00    +0.000 N 
ATOM      5  H   UNL     1       3.633   2.941  18.147  0.00  0.00    +0.000 HD
BRANCH   4   6
ATOM      6  N   UNL     1       5.240   3.865  17.254  0.00  0.00    +0.000 NA
ATOM      7  C   UNL     1       4.731   3.958  16.066  0.00  0.00    +0.000 C 
BRANCH   7   8
ATOM      8  C   UNL     1       5.566   4.150  14.866  0.00  0.00    +0.000 A 
ATOM      9  C   UNL     1       6.724   4.932  14.927  0.00  0.00    +0.000 A 
ATOM     10  C   UNL     1       7.490   5.124  13.777  0.00  0.00    +0.000 A 
ATOM     11  C   UNL     1       7.093   4.531  12.582  0.00  0.00    +0.000 A 
ATOM     12  F   UNL     1       7.824   4.725  11.477  0.00  0.00    +0.000 F 
ATOM     13  C   UNL     1       5.947   3.744  12.515  0.00  0.00    +0.000 A 
ATOM     14  C   UNL     1       5.177   3.548  13.662  0.00  0.00    +0.000 A 
ENDBRANCH   7   8
ENDBRANCH   4   6
ENDBRANCH   1   3
BRANCH   1  15
ATOM     15  C   UNL     1       2.019   5.242  20.486  0.00  0.00    +0.000 C 
ATOM     16  O   UNL     1       0.833   4.915  20.589  0.00  0.00    +0.000 OA
ATOM     17  N   UNL     1       2.440   6.564  20.506  0.00  0.00    +0.000 N 
ATOM     18  H   UNL     1       3.412   6.832  20.405  0.00  0.00    +0.000 HD
BRANCH  17  19
ATOM     19  N   UNL     1       1.471   7.508  20.631  0.00  0.00    +0.000 NA
ATOM     20  C   UNL     1       1.569   8.374  21.584  0.00  0.00    +0.000 C 
BRANCH  20  21
ATOM     21  C   UNL     1       0.535   9.424  21.728  0.00  0.00    +0.000 A 
ATOM     22  C   UNL     1       0.180  10.221  20.627  0.00  0.00    +0.000 A 
ATOM     23  C   UNL     1      -0.781  11.222  20.771  0.00  0.00    +0.000 A 
ATOM     24  C   UNL     1      -1.378  11.419  22.010  0.00  0.00    +0.000 A 
ATOM     25  F   UNL     1      -2.297  12.383  22.153  0.00  0.00    +0.000 F 
ATOM     26  C   UNL     1      -1.036  10.631  23.107  0.00  0.00    +0.000 A 
ATOM     27  C   UNL     1      -0.075   9.626  22.969  0.00  0.00    +0.000 A 
ENDBRANCH  20  21
ENDBRANCH  17  19
ENDBRANCH   1  15
TORSDOF 6
ENDMDL
MODEL 9
REMARK VINA RESULT:      -7.0      1.324      1.713
REMARK  Name = 
REMARK  6 active torsions:
REMARK  status: ('A' for Active; 'I' for Inactive)
REMARK    1  A    between atoms: C_2  and  C_3
REMARK    2  A    between atoms: C_3  and  C_4
REMARK    3  A    between atoms: N_6  and  N_7
REMARK    4  A    between atoms: C_8  and  C_9
REMARK    5  A    between atoms: N_16  and  N_17
REMARK    6  A    between atoms: C_18  and  C_19
REMARK                            x       y       z     vdW  Elec       q    Type
REMARK                         _______ _______ _______ _____ _____    ______ ____
ROOT
ATOM      1  C   UNL     1       3.256   5.025  19.707  0.00  0.00    +0.000 C 
ENDROOT
BRANCH   1   3
ATOM      2  O   UNL     1       2.576   6.923  18.435  0.00  0.00    +0.000 OA
ATOM      3  C   UNL     1       2.634   6.405  19.552  0.00  0.00    +0.000 C 
ATOM      4  N   UNL     1       2.165   6.986  20.713  0.00  0.00    +0.000 N 
ATOM      5  H   UNL     1       2.279   6.484  21.598  0.00  0.00    +0.000 HD
BRANCH   4   6
ATOM      6  N   UNL     1       1.589   8.219  20.734  0.00  0.00    +0.000 NA
ATOM      7  C   UNL     1       0.577   8.307  21.539  0.00  0.00    +0.000 C 
BRANCH   7   8
ATOM      8  C   UNL     1      -0.179   9.561  21.718  0.00  0.00    +0.000 A 
ATOM      9  C   UNL     1      -0.402  10.414  20.631  0.00  0.00    +0.000 A 
ATOM     10  C   UNL     1      -1.096  11.608  20.822  0.00  0.00    +0.000 A 
ATOM     11  C   UNL     1      -1.562  11.935  22.091  0.00  0.00    +0.000 A 
ATOM     12  F   UNL     1      -2.220  13.088  22.274  0.00  0.00    +0.000 F 
ATOM     13  C   UNL     1      -1.352  11.089  23.176  0.00  0.00    +0.000 A 
ATOM     14  C   UNL     1      -0.658   9.892  22.992  0.00  0.00    +0.000 A 
ENDBRANCH   7   8
ENDBRANCH   4   6
ENDBRANCH   1   3
BRANCH   1  15
ATOM     15  C   UNL     1       3.877   4.403  18.480  0.00  0.00    +0.000 C 
ATOM     16  O   UNL     1       3.604   3.258  18.110  0.00  0.00    +0.000 OA
ATOM     17  N   UNL     1       4.777   5.217  17.807  0.00  0.00    +0.000 N 
ATOM     18  H   UNL     1       5.012   6.152  18.122  0.00  0.00    +0.000 HD
BRANCH  17  19
ATOM     19  N   UNL     1       5.371   4.687  16.707  0.00  0.00    +0.000 NA
ATOM     20  C   UNL     1       5.168   5.248  15.562  0.00  0.00    +0.000 C 
BRANCH  20  21
ATOM     21  C   UNL     1       5.821   4.698  14.352  0.00  0.00    +0.000 A 
ATOM     22  C   UNL     1       5.137   3.783  13.535  0.00  0.00    +0.000 A 
ATOM     23  C   UNL     1       5.762   3.253  12.406  0.00  0.00    +0.000 A 
ATOM     24  C   UNL     1       7.062   3.640  12.102  0.00  0.00    +0.000 A 
ATOM     25  F   UNL     1       7.667   3.128  11.022  0.00  0.00    +0.000 F 
ATOM     26  C   UNL     1       7.747   4.550  12.903  0.00  0.00    +0.000 A 
ATOM     27  C   UNL     1       7.126   5.085  14.036  0.00  0.00    +0.000 A 
ENDBRANCH  20  21
ENDBRANCH  17  19
ENDBRANCH   1  15
TORSDOF 6
ENDMDL
