MODEL 1
REMARK VINA RESULT:      -5.9      0.000      0.000
REMARK  Name = 
REMARK  5 active torsions:
REMARK  status: ('A' for Active; 'I' for Inactive)
REMARK    1  A    between atoms: C_1  and  C_2
REMARK    2  A    between atoms: N_4  and  C_5
REMARK    3  A    between atoms: C_9  and  N_10
REMARK    4  A    between atoms: N_10  and  C_11
REMARK    5  A    between atoms: N_10  and  C_12
REMARK                            x       y       z     vdW  Elec       q    Type
REMARK                         _______ _______ _______ _____ _____    ______ ____
ROOT
ATOM      1  C   UNL     1       6.168   4.318  16.557  0.00  0.00    +0.000 A 
ATOM      2  C   UNL     1       7.386   4.642  17.141  0.00  0.00    +0.000 A 
ATOM      3  C   UNL     1       7.423   5.160  18.430  0.00  0.00    +0.000 A 
ATOM      4  C   UNL     1       6.238   5.344  19.148  0.00  0.00    +0.000 A 
ATOM      5  C   UNL     1       4.984   5.025  18.612  0.00  0.00    +0.000 A 
ATOM      6  C   UNL     1       4.983   4.531  17.289  0.00  0.00    +0.000 A 
ENDROOT
BRANCH   1  10
ATOM      7  C   UNL     1       6.165   3.567  12.855  0.00  0.00    +0.000 C 
ATOM      8  C   UNL     1       6.543   4.349  14.086  0.00  0.00    +0.000 C 
ATOM      9  O   UNL     1       7.206   5.375  13.988  0.00  0.00    +0.000 OA
ATOM     10  N   UNL     1       6.056   3.779  15.254  0.00  0.00    +0.000 N 
ATOM     11  H   UNL     1       5.661   2.854  15.186  0.00  0.00    +0.000 HD
ENDBRANCH   1  10
BRANCH   5  12
ATOM     12  N   UNL     1       3.814   5.124  19.355  0.00  0.00    +0.000 N 
ATOM     13  C   UNL     1       3.183   3.951  19.949  0.00  0.00    +0.000 C 
ATOM     14  C   UNL     1       2.963   6.310  19.294  0.00  0.00    +0.000 C 
ENDBRANCH   5  12
TORSDOF 2
ENDMDL
MODEL 2
REMARK VINA RESULT:      -5.8      2.582      3.675
REMARK  Name = 
REMARK  5 active torsions:
REMARK  status: ('A' for Active; 'I' for Inactive)
REMARK    1  A    between atoms: C_1  and  C_2
REMARK    2  A    between atoms: N_4  and  C_5
REMARK    3  A    between atoms: C_9  and  N_10
REMARK    4  A    between atoms: N_10  and  C_11
REMARK    5  A    between atoms: N_10  and  C_12
REMARK                            x       y       z     vdW  Elec       q    Type
REMARK                         _______ _______ _______ _____ _____    ______ ____
ROOT
ATOM      1  C   UNL     1       5.983   6.291  16.816  0.00  0.00    +0.000 A 
ATOM      2  C   UNL     1       6.298   5.305  15.888  0.00  0.00    +0.000 A 
ATOM      3  C   UNL     1       5.495   4.176  15.775  0.00  0.00    +0.000 A 
ATOM      4  C   UNL     1       4.363   4.033  16.583  0.00  0.00    +0.000 A 
ATOM      5  C   UNL     1       3.995   5.000  17.528  0.00  0.00    +0.000 A 
ATOM      6  C   UNL     1       4.850   6.118  17.636  0.00  0.00    +0.000 A 
ENDROOT
BRANCH   1  10
ATOM      7  C   UNL     1       8.294   9.077  17.893  0.00  0.00    +0.000 C 
ATOM      8  C   UNL     1       7.747   7.674  17.922  0.00  0.00    +0.000 C 
ATOM      9  O   UNL     1       8.181   6.856  18.726  0.00  0.00    +0.000 OA
ATOM     10  N   UNL     1       6.748   7.468  16.980  0.00  0.00    +0.000 N 
ATOM     11  H   UNL     1       6.612   8.190  16.288  0.00  0.00    +0.000 HD
ENDBRANCH   1  10
BRANCH   5  12
ATOM     12  N   UNL     1       2.823   4.902  18.268  0.00  0.00    +0.000 N 
ATOM     13  C   UNL     1       1.652   4.198  17.758  0.00  0.00    +0.000 C 
ATOM     14  C   UNL     1       2.563   5.775  19.411  0.00  0.00    +0.000 C 
ENDBRANCH   5  12
TORSDOF 2
ENDMDL
MODEL 3
REMARK VINA RESULT:      -5.6      1.818      2.170
REMARK  Name = 
REMARK  5 active torsions:
REMARK  status: ('A' for Active; 'I' for Inactive)
REMARK    1  A    between atoms: C_1  and  C_2
REMARK    2  A    between atoms: N_4  and  C_5
REMARK    3  A    between atoms: C_9  and  N_10
REMARK    4  A    between atoms: N_10  and  C_11
REMARK    5  A    between atoms: N_10  and  C_12
REMARK                            x       y       z     vdW  Elec       q    Type
REMARK                         _______ _______ _______ _____ _____    ______ ____
ROOT
ATOM      1  C   UNL     1       5.021   4.866  15.858  0.00  0.00    +0.000 A 
ATOM      2  C   UNL     1       5.004   6.175  16.324  0.00  0.00    +0.000 A 
ATOM      3  C   UNL     1       4.466   6.461  17.574  0.00  0.00    +0.000 A 
ATOM      4  C   UNL     1       3.952   5.434  18.370  0.00  0.00    +0.000 A 
ATOM      5  C   UNL     1       3.951   4.097  17.954  0.00  0.00    +0.000 A 
ATOM      6  C   UNL     1       4.478   3.848  16.668  0.00  0.00    +0.000 A 
ENDROOT
BRANCH   1  10
ATOM      7  C   UNL     1       7.062   4.333  12.726  0.00  0.00    +0.000 C 
ATOM      8  C   UNL     1       6.842   4.773  14.150  0.00  0.00    +0.000 C 
ATOM      9  O   UNL     1       7.745   5.316  14.777  0.00  0.00    +0.000 OA
ATOM     10  N   UNL     1       5.559   4.501  14.603  0.00  0.00    +0.000 N 
ATOM     11  H   UNL     1       4.981   3.911  14.024  0.00  0.00    +0.000 HD
ENDBRANCH   1  10
BRANCH   5  12
ATOM     12  N   UNL     1       3.522   3.065  18.780  0.00  0.00    +0.000 N 
ATOM     13  C   UNL     1       4.326   2.600  19.904  0.00  0.00    +0.000 C 
ATOM     14  C   UNL     1       2.447   2.158  18.380  0.00  0.00    +0.000 C 
ENDBRANCH   5  12
TORSDOF 2
ENDMDL
MODEL 4
REMARK VINA RESULT:      -5.6      2.486      3.628
REMARK  Name = 
REMARK  5 active torsions:
REMARK  status: ('A' for Active; 'I' for Inactive)
REMARK    1  A    between atoms: C_1  and  C_2
REMARK    2  A    between atoms: N_4  and  C_5
REMARK    3  A    between atoms: C_9  and  N_10
REMARK    4  A    between atoms: N_10  and  C_11
REMARK    5  A    between atoms: N_10  and  C_12
REMARK                            x       y       z     vdW  Elec       q    Type
REMARK                         _______ _______ _______ _____ _____    ______ ____
ROOT
ATOM      1  C   UNL     1       6.021   6.203  16.882  0.00  0.00    +0.000 A 
ATOM      2  C   UNL     1       5.993   5.476  15.698  0.00  0.00    +0.000 A 
ATOM      3  C   UNL     1       5.274   4.288  15.630  0.00  0.00    +0.000 A 
ATOM      4  C   UNL     1       4.568   3.827  16.746  0.00  0.00    +0.000 A 
ATOM      5  C   UNL     1       4.556   4.525  17.960  0.00  0.00    +0.000 A 
ATOM      6  C   UNL     1       5.321   5.711  18.002  0.00  0.00    +0.000 A 
ENDROOT
BRANCH   1  10
ATOM      7  C   UNL     1       8.209   9.116  17.879  0.00  0.00    +0.000 C 
ATOM      8  C   UNL     1       7.745   7.683  17.923  0.00  0.00    +0.000 C 
ATOM      9  O   UNL     1       8.257   6.890  18.705  0.00  0.00    +0.000 OA
ATOM     10  N   UNL     1       6.723   7.423  17.021  0.00  0.00    +0.000 N 
ATOM     11  H   UNL     1       6.518   8.137  16.339  0.00  0.00    +0.000 HD
ENDBRANCH   1  10
BRANCH   5  12
ATOM     12  N   UNL     1       3.784   4.116  19.041  0.00  0.00    +0.000 N 
ATOM     13  C   UNL     1       4.005   2.832  19.697  0.00  0.00    +0.000 C 
ATOM     14  C   UNL     1       2.507   4.752  19.356  0.00  0.00    +0.000 C 
ENDBRANCH   5  12
TORSDOF 2
ENDMDL
MODEL 5
REMARK VINA RESULT:      -5.6      1.640      1.969
REMARK  Name = 
REMARK  5 active torsions:
REMARK  status: ('A' for Active; 'I' for Inactive)
REMARK    1  A    between atoms: C_1  and  C_2
REMARK    2  A    between atoms: N_4  and  C_5
REMARK    3  A    between atoms: C_9  and  N_10
REMARK    4  A    between atoms: N_10  and  C_11
REMARK    5  A    between atoms: N_10  and  C_12
REMARK                            x       y       z     vdW  Elec       q    Type
REMARK                         _______ _______ _______ _____ _____    ______ ____
ROOT
ATOM      1  C   UNL     1       4.960   4.973  15.971  0.00  0.00    +0.000 A 
ATOM      2  C   UNL     1       5.043   6.342  16.195  0.00  0.00    +0.000 A 
ATOM      3  C   UNL     1       4.616   6.875  17.405  0.00  0.00    +0.000 A 
ATOM      4  C   UNL     1       4.114   6.038  18.405  0.00  0.00    +0.000 A 
ATOM      5  C   UNL     1       4.017   4.651  18.237  0.00  0.00    +0.000 A 
ATOM      6  C   UNL     1       4.431   4.148  16.984  0.00  0.00    +0.000 A 
ENDROOT
BRANCH   1  10
ATOM      7  C   UNL     1       6.697   3.821  12.822  0.00  0.00    +0.000 C 
ATOM      8  C   UNL     1       6.606   4.545  14.139  0.00  0.00    +0.000 C 
ATOM      9  O   UNL     1       7.549   5.215  14.545  0.00  0.00    +0.000 OA
ATOM     10  N   UNL     1       5.383   4.360  14.769  0.00  0.00    +0.000 N 
ATOM     11  H   UNL     1       4.769   3.658  14.386  0.00  0.00    +0.000 HD
ENDBRANCH   1  10
BRANCH   5  12
ATOM     12  N   UNL     1       3.602   3.808  19.261  0.00  0.00    +0.000 N 
ATOM     13  C   UNL     1       2.552   4.197  20.195  0.00  0.00    +0.000 C 
ATOM     14  C   UNL     1       4.408   2.665  19.688  0.00  0.00    +0.000 C 
ENDBRANCH   5  12
TORSDOF 2
ENDMDL
MODEL 6
REMARK VINA RESULT:      -5.5      1.946      2.506
REMARK  Name = 
REMARK  5 active torsions:
REMARK  status: ('A' for Active; 'I' for Inactive)
REMARK    1  A    between atoms: C_1  and  C_2
REMARK    2  A    between atoms: N_4  and  C_5
REMARK    3  A    between atoms: C_9  and  N_10
REMARK    4  A    between atoms: N_10  and  C_11
REMARK    5  A    between atoms: N_10  and  C_12
REMARK                            x       y       z     vdW  Elec       q    Type
REMARK                         _______ _______ _______ _____ _____    ______ ____
ROOT
ATOM      1  C   UNL     1       4.748   5.165  16.572  0.00  0.00    +0.000 A 
ATOM      2  C   UNL     1       4.384   6.385  17.128  0.00  0.00    +0.000 A 
ATOM      3  C   UNL     1       3.698   6.421  18.336  0.00  0.00    +0.000 A 
ATOM      4  C   UNL     1       3.384   5.233  19.003  0.00  0.00    +0.000 A 
ATOM      5  C   UNL     1       3.735   3.977  18.492  0.00  0.00    +0.000 A 
ATOM      6  C   UNL     1       4.403   3.977  17.248  0.00  0.00    +0.000 A 
ENDROOT
BRANCH   1  10
ATOM      7  C   UNL     1       7.264   4.889  13.769  0.00  0.00    +0.000 C 
ATOM      8  C   UNL     1       6.821   4.865  15.208  0.00  0.00    +0.000 C 
ATOM      9  O   UNL     1       7.640   4.700  16.106  0.00  0.00    +0.000 OA
ATOM     10  N   UNL     1       5.454   5.052  15.351  0.00  0.00    +0.000 N 
ATOM     11  H   UNL     1       4.894   5.018  14.513  0.00  0.00    +0.000 HD
ENDBRANCH   1  10
BRANCH   5  12
ATOM     12  N   UNL     1       3.503   2.801  19.196  0.00  0.00    +0.000 N 
ATOM     13  C   UNL     1       3.491   1.502  18.533  0.00  0.00    +0.000 C 
ATOM     14  C   UNL     1       2.912   2.811  20.533  0.00  0.00    +0.000 C 
ENDBRANCH   5  12
TORSDOF 2
ENDMDL
MODEL 7
REMARK VINA RESULT:      -5.5      3.027      5.239
REMARK  Name = 
REMARK  5 active torsions:
REMARK  status: ('A' for Active; 'I' for Inactive)
REMARK    1  A    between atoms: C_1  and  C_2
REMARK    2  A    between atoms: N_4  and  C_5
REMARK    3  A    between atoms: C_9  and  N_10
REMARK    4  A    between atoms: N_10  and  C_11
REMARK    5  A    between atoms: N_10  and  C_12
REMARK                            x       y       z     vdW  Elec       q    Type
REMARK                         _______ _______ _______ _____ _____    ______ ____
ROOT
ATOM      1  C   UNL     1       3.872   4.274  18.583  0.00  0.00    +0.000 A 
ATOM      2  C   UNL     1       3.709   3.752  17.306  0.00  0.00    +0.000 A 
ATOM      3  C   UNL     1       4.651   4.022  16.320  0.00  0.00    +0.000 A 
ATOM      4  C   UNL     1       5.770   4.808  16.612  0.00  0.00    +0.000 A 
ATOM      5  C   UNL     1       5.987   5.352  17.884  0.00  0.00    +0.000 A 
ATOM      6  C   UNL     1       4.995   5.082  18.852  0.00  0.00    +0.000 A 
ENDROOT
BRANCH   1  10
ATOM      7  C   UNL     1       1.861   2.990  21.511  0.00  0.00    +0.000 C 
ATOM      8  C   UNL     1       3.052   3.030  20.590  0.00  0.00    +0.000 C 
ATOM      9  O   UNL     1       3.966   2.223  20.724  0.00  0.00    +0.000 OA
ATOM     10  N   UNL     1       2.960   4.034  19.637  0.00  0.00    +0.000 N 
ATOM     11  H   UNL     1       2.224   4.714  19.754  0.00  0.00    +0.000 HD
ENDBRANCH   1  10
BRANCH   5  12
ATOM     12  N   UNL     1       7.142   6.058  18.199  0.00  0.00    +0.000 N 
ATOM     13  C   UNL     1       7.891   5.795  19.423  0.00  0.00    +0.000 C 
ATOM     14  C   UNL     1       7.476   7.317  17.537  0.00  0.00    +0.000 C 
ENDBRANCH   5  12
TORSDOF 2
ENDMDL
MODEL 8
REMARK VINA RESULT:      -5.5      2.875      5.545
REMARK  Name = 
REMARK  5 active torsions:
REMARK  status: ('A' for Active; 'I' for Inactive)
REMARK    1  A    between atoms: C_1  and  C_2
REMARK    2  A    between atoms: N_4  and  C_5
REMARK    3  A    between atoms: C_9  and  N_10
REMARK    4  A    between atoms: N_10  and  C_11
REMARK    5  A    between atoms: N_10  and  C_12
REMARK                            x       y       z     vdW  Elec       q    Type
REMARK                         _______ _______ _______ _____ _____    ______ ____
ROOT
ATOM      1  C   UNL     1       3.006   5.064  18.344  0.00  0.00    +0.000 A 
ATOM      2  C   UNL     1       2.729   6.415  18.174  0.00  0.00    +0.000 A 
ATOM      3  C   UNL     1       3.638   7.232  17.512  0.00  0.00    +0.000 A 
ATOM      4  C   UNL     1       4.826   6.697  17.005  0.00  0.00    +0.000 A 
ATOM      5  C   UNL     1       5.151   5.341  17.140  0.00  0.00    +0.000 A 
ATOM      6  C   UNL     1       4.219   4.548  17.844  0.00  0.00    +0.000 A 
ENDROOT
BRANCH   1  10
ATOM      7  C   UNL     1       0.977   2.968  20.743  0.00  0.00    +0.000 C 
ATOM      8  C   UNL     1       1.901   4.096  20.367  0.00  0.00    +0.000 C 
ATOM      9  O   UNL     1       2.374   4.824  21.232  0.00  0.00    +0.000 OA
ATOM     10  N   UNL     1       2.125   4.172  18.999  0.00  0.00    +0.000 N 
ATOM     11  H   UNL     1       1.544   3.602  18.404  0.00  0.00    +0.000 HD
ENDBRANCH   1  10
BRANCH   5  12
ATOM     12  N   UNL     1       6.287   4.791  16.560  0.00  0.00    +0.000 N 
ATOM     13  C   UNL     1       6.230   4.084  15.286  0.00  0.00    +0.000 C 
ATOM     14  C   UNL     1       7.510   4.569  17.329  0.00  0.00    +0.000 C 
ENDBRANCH   5  12
TORSDOF 2
ENDMDL
MODEL 9
REMARK VINA RESULT:      -5.5      3.155      5.342
REMARK  Name = 
REMARK  5 active torsions:
REMARK  status: ('A' for Active; 'I' for Inactive)
REMARK    1  A    between atoms: C_1  and  C_2
REMARK    2  A    between atoms: N_4  and  C_5
REMARK    3  A    between atoms: C_9  and  N_10
REMARK    4  A    between atoms: N_10  and  C_11
REMARK    5  A    between atoms: N_10  and  C_12
REMARK                            x       y       z     vdW  Elec       q    Type
REMARK                         _______ _______ _______ _____ _____    ______ ____
ROOT
ATOM      1  C   UNL     1       4.067   3.747  18.721  0.00  0.00    +0.000 A 
ATOM      2  C   UNL     1       3.816   3.450  17.387  0.00  0.00    +0.000 A 
ATOM      3  C   UNL     1       4.568   4.055  16.386  0.00  0.00    +0.000 A 
ATOM      4  C   UNL     1       5.585   4.954  16.717  0.00  0.00    +0.000 A 
ATOM      5  C   UNL     1       5.887   5.283  18.045  0.00  0.00    +0.000 A 
ATOM      6  C   UNL     1       5.084   4.673  19.033  0.00  0.00    +0.000 A 
ENDROOT
BRANCH   1  10
ATOM      7  C   UNL     1       1.763   2.867  21.580  0.00  0.00    +0.000 C 
ATOM      8  C   UNL     1       2.222   3.690  20.406  0.00  0.00    +0.000 C 
ATOM      9  O   UNL     1       1.619   4.710  20.091  0.00  0.00    +0.000 OA
ATOM     10  N   UNL     1       3.350   3.164  19.790  0.00  0.00    +0.000 N 
ATOM     11  H   UNL     1       3.636   2.238  20.068  0.00  0.00    +0.000 HD
ENDBRANCH   1  10
BRANCH   5  12
ATOM     12  N   UNL     1       6.955   6.107  18.379  0.00  0.00    +0.000 N 
ATOM     13  C   UNL     1       7.400   7.179  17.496  0.00  0.00    +0.000 C 
ATOM     14  C   UNL     1       7.908   5.742  19.426  0.00  0.00    +0.000 C 
ENDBRANCH   5  12
TORSDOF 2
ENDMDL
