MODEL 1
REMARK VINA RESULT:      -7.9      0.000      0.000
REMARK  Name = 
REMARK  1 active torsions:
REMARK  status: ('A' for Active; 'I' for Inactive)
REMARK    1  A    between atoms: N_5  and  C_6
REMARK                            x       y       z     vdW  Elec       q    Type
REMARK                         _______ _______ _______ _____ _____    ______ ____
ROOT
ATOM      1  O   UNL     1       1.344   2.038  20.421  0.00  0.00    +0.000 OA
ATOM      2  C   UNL     1       2.101   2.616  19.647  0.00  0.00    +0.000 A 
ATOM      3  N   UNL     1       2.854   1.942  18.724  0.00  0.00    +0.000 NA
ATOM      4  C   UNL     1       3.656   2.629  17.983  0.00  0.00    +0.000 A 
ATOM      5  N   UNL     1       3.887   3.999  17.943  0.00  0.00    +0.000 N 
ATOM      6  C   UNL     1       3.070   4.767  18.836  0.00  0.00    +0.000 A 
ATOM      7  C   UNL     1       3.048   6.172  18.870  0.00  0.00    +0.000 A 
ATOM      8  C   UNL     1       2.266   6.872  19.798  0.00  0.00    +0.000 A 
ATOM      9  C   UNL     1       1.449   6.184  20.688  0.00  0.00    +0.000 A 
ATOM     10  C   UNL     1       1.399   4.795  20.637  0.00  0.00    +0.000 A 
ATOM     11  C   UNL     1       2.199   4.097  19.718  0.00  0.00    +0.000 A 
ENDROOT
BRANCH   5  12
ATOM     12  C   UNL     1       4.946   4.505  17.116  0.00  0.00    +0.000 A 
ATOM     13  C   UNL     1       5.822   5.504  17.585  0.00  0.00    +0.000 A 
ATOM     14  C   UNL     1       6.841   6.012  16.771  0.00  0.00    +0.000 A 
ATOM     15 CL   UNL     1       7.863   7.261  17.371  0.00  0.00    +0.000 Cl
ATOM     16  C   UNL     1       7.038   5.522  15.487  0.00  0.00    +0.000 A 
ATOM     17  C   UNL     1       6.185   4.537  15.009  0.00  0.00    +0.000 A 
ATOM     18 CL   UNL     1       6.422   3.897  13.429  0.00  0.00    +0.000 Cl
ATOM     19  C   UNL     1       5.134   4.055  15.796  0.00  0.00    +0.000 A 
ENDBRANCH   5  12
TORSDOF 1
ENDMDL
MODEL 2
REMARK VINA RESULT:      -7.9      0.398      2.097
REMARK  Name = 
REMARK  1 active torsions:
REMARK  status: ('A' for Active; 'I' for Inactive)
REMARK    1  A    between atoms: N_5  and  C_6
REMARK                            x       y       z     vdW  Elec       q    Type
REMARK                         _______ _______ _______ _____ _____    ______ ____
ROOT
ATOM      1  O   UNL     1       1.612   2.333  21.029  0.00  0.00    +0.000 OA
ATOM      2  C   UNL     1       2.316   2.867  20.177  0.00  0.00    +0.000 A 
ATOM      3  N   UNL     1       3.117   2.144  19.335  0.00  0.00    +0.000 NA
ATOM      4  C   UNL     1       3.856   2.794  18.501  0.00  0.00    +0.000 A 
ATOM      5  N   UNL     1       3.974   4.162  18.286  0.00  0.00    +0.000 N 
ATOM      6  C   UNL     1       3.100   4.969  19.087  0.00  0.00    +0.000 A 
ATOM      7  C   UNL     1       2.964   6.361  18.943  0.00  0.00    +0.000 A 
ATOM      8  C   UNL     1       2.132   7.106  19.787  0.00  0.00    +0.000 A 
ATOM      9  C   UNL     1       1.377   6.473  20.769  0.00  0.00    +0.000 A 
ATOM     10  C   UNL     1       1.442   5.090  20.894  0.00  0.00    +0.000 A 
ATOM     11  C   UNL     1       2.292   4.348  20.059  0.00  0.00    +0.000 A 
ENDROOT
BRANCH   5  12
ATOM     12  C   UNL     1       4.984   4.643  17.386  0.00  0.00    +0.000 A 
ATOM     13  C   UNL     1       5.142   4.083  16.102  0.00  0.00    +0.000 A 
ATOM     14  C   UNL     1       6.140   4.537  15.233  0.00  0.00    +0.000 A 
ATOM     15 CL   UNL     1       6.323   3.797  13.689  0.00  0.00    +0.000 Cl
ATOM     16  C   UNL     1       6.986   5.576  15.600  0.00  0.00    +0.000 A 
ATOM     17  C   UNL     1       6.845   6.139  16.861  0.00  0.00    +0.000 A 
ATOM     18 CL   UNL     1       7.865   7.442  17.331  0.00  0.00    +0.000 Cl
ATOM     19  C   UNL     1       5.881   5.662  17.755  0.00  0.00    +0.000 A 
ENDBRANCH   5  12
TORSDOF 1
ENDMDL
MODEL 3
REMARK VINA RESULT:      -7.8      0.711      2.174
REMARK  Name = 
REMARK  1 active torsions:
REMARK  status: ('A' for Active; 'I' for Inactive)
REMARK    1  A    between atoms: N_5  and  C_6
REMARK                            x       y       z     vdW  Elec       q    Type
REMARK                         _______ _______ _______ _____ _____    ______ ____
ROOT
ATOM      1  O   UNL     1       0.331   2.217  19.288  0.00  0.00    +0.000 OA
ATOM      2  C   UNL     1       1.263   2.797  18.740  0.00  0.00    +0.000 A 
ATOM      3  N   UNL     1       1.924   2.263  17.666  0.00  0.00    +0.000 NA
ATOM      4  C   UNL     1       2.921   2.925  17.183  0.00  0.00    +0.000 A 
ATOM      5  N   UNL     1       3.456   4.148  17.569  0.00  0.00    +0.000 N 
ATOM      6  C   UNL     1       2.756   4.793  18.642  0.00  0.00    +0.000 A 
ATOM      7  C   UNL     1       3.048   6.088  19.103  0.00  0.00    +0.000 A 
ATOM      8  C   UNL     1       2.364   6.650  20.189  0.00  0.00    +0.000 A 
ATOM      9  C   UNL     1       1.339   5.949  20.813  0.00  0.00    +0.000 A 
ATOM     10  C   UNL     1       0.984   4.691  20.338  0.00  0.00    +0.000 A 
ATOM     11  C   UNL     1       1.684   4.123  19.262  0.00  0.00    +0.000 A 
ENDROOT
BRANCH   5  12
ATOM     12  C   UNL     1       4.670   4.604  16.952  0.00  0.00    +0.000 A 
ATOM     13  C   UNL     1       5.024   4.196  15.651  0.00  0.00    +0.000 A 
ATOM     14  C   UNL     1       6.218   4.623  15.059  0.00  0.00    +0.000 A 
ATOM     15 CL   UNL     1       6.631   4.067  13.483  0.00  0.00    +0.000 Cl
ATOM     16  C   UNL     1       7.073   5.490  15.726  0.00  0.00    +0.000 A 
ATOM     17  C   UNL     1       6.740   5.903  17.009  0.00  0.00    +0.000 A 
ATOM     18 CL   UNL     1       7.771   6.995  17.848  0.00  0.00    +0.000 Cl
ATOM     19  C   UNL     1       5.572   5.445  17.629  0.00  0.00    +0.000 A 
ENDBRANCH   5  12
TORSDOF 1
ENDMDL
MODEL 4
REMARK VINA RESULT:      -7.1      4.261      5.979
REMARK  Name = 
REMARK  1 active torsions:
REMARK  status: ('A' for Active; 'I' for Inactive)
REMARK    1  A    between atoms: N_5  and  C_6
REMARK                            x       y       z     vdW  Elec       q    Type
REMARK                         _______ _______ _______ _____ _____    ______ ____
ROOT
ATOM      1  O   UNL     1       0.458  11.425  18.214  0.00  0.00    +0.000 OA
ATOM      2  C   UNL     1       0.957  10.358  18.560  0.00  0.00    +0.000 A 
ATOM      3  N   UNL     1       1.687   9.582  17.700  0.00  0.00    +0.000 NA
ATOM      4  C   UNL     1       2.135   8.455  18.139  0.00  0.00    +0.000 A 
ATOM      5  N   UNL     1       2.016   7.871  19.394  0.00  0.00    +0.000 N 
ATOM      6  C   UNL     1       1.326   8.674  20.362  0.00  0.00    +0.000 A 
ATOM      7  C   UNL     1       1.203   8.334  21.720  0.00  0.00    +0.000 A 
ATOM      8  C   UNL     1       0.475   9.132  22.612  0.00  0.00    +0.000 A 
ATOM      9  C   UNL     1      -0.111  10.316  22.178  0.00  0.00    +0.000 A 
ATOM     10  C   UNL     1       0.047  10.711  20.854  0.00  0.00    +0.000 A 
ATOM     11  C   UNL     1       0.761   9.899  19.959  0.00  0.00    +0.000 A 
ENDROOT
BRANCH   5  12
ATOM     12  C   UNL     1       2.490   6.529  19.588  0.00  0.00    +0.000 A 
ATOM     13  C   UNL     1       3.736   6.116  19.078  0.00  0.00    +0.000 A 
ATOM     14  C   UNL     1       4.187   4.803  19.248  0.00  0.00    +0.000 A 
ATOM     15 CL   UNL     1       5.699   4.330  18.572  0.00  0.00    +0.000 Cl
ATOM     16  C   UNL     1       3.433   3.876  19.955  0.00  0.00    +0.000 A 
ATOM     17  C   UNL     1       2.202   4.266  20.465  0.00  0.00    +0.000 A 
ATOM     18 CL   UNL     1       1.258   3.143  21.364  0.00  0.00    +0.000 Cl
ATOM     19  C   UNL     1       1.720   5.563  20.261  0.00  0.00    +0.000 A 
ENDBRANCH   5  12
TORSDOF 1
ENDMDL
MODEL 5
REMARK VINA RESULT:      -7.1      1.701      2.795
REMARK  Name = 
REMARK  1 active torsions:
REMARK  status: ('A' for Active; 'I' for Inactive)
REMARK    1  A    between atoms: N_5  and  C_6
REMARK                            x       y       z     vdW  Elec       q    Type
REMARK                         _______ _______ _______ _____ _____    ______ ____
ROOT
ATOM      1  O   UNL     1       2.905   1.980  22.005  0.00  0.00    +0.000 OA
ATOM      2  C   UNL     1       3.439   2.445  21.003  0.00  0.00    +0.000 A 
ATOM      3  N   UNL     1       4.800   2.499  20.860  0.00  0.00    +0.000 NA
ATOM      4  C   UNL     1       5.272   3.047  19.792  0.00  0.00    +0.000 A 
ATOM      5  N   UNL     1       4.611   3.600  18.702  0.00  0.00    +0.000 N 
ATOM      6  C   UNL     1       3.182   3.503  18.759  0.00  0.00    +0.000 A 
ATOM      7  C   UNL     1       2.326   3.882  17.710  0.00  0.00    +0.000 A 
ATOM      8  C   UNL     1       0.933   3.812  17.839  0.00  0.00    +0.000 A 
ATOM      9  C   UNL     1       0.360   3.316  19.004  0.00  0.00    +0.000 A 
ATOM     10  C   UNL     1       1.181   2.873  20.035  0.00  0.00    +0.000 A 
ATOM     11  C   UNL     1       2.576   2.963  19.910  0.00  0.00    +0.000 A 
ENDROOT
BRANCH   5  12
ATOM     12  C   UNL     1       5.376   4.281  17.694  0.00  0.00    +0.000 A 
ATOM     13  C   UNL     1       5.427   3.800  16.371  0.00  0.00    +0.000 A 
ATOM     14  C   UNL     1       6.189   4.451  15.394  0.00  0.00    +0.000 A 
ATOM     15 CL   UNL     1       6.256   3.807  13.799  0.00  0.00    +0.000 Cl
ATOM     16  C   UNL     1       6.892   5.611  15.695  0.00  0.00    +0.000 A 
ATOM     17  C   UNL     1       6.852   6.099  16.994  0.00  0.00    +0.000 A 
ATOM     18 CL   UNL     1       7.696   7.546  17.387  0.00  0.00    +0.000 Cl
ATOM     19  C   UNL     1       6.132   5.430  17.989  0.00  0.00    +0.000 A 
ENDBRANCH   5  12
TORSDOF 1
ENDMDL
MODEL 6
REMARK VINA RESULT:      -7.1      1.696      1.889
REMARK  Name = 
REMARK  1 active torsions:
REMARK  status: ('A' for Active; 'I' for Inactive)
REMARK    1  A    between atoms: N_5  and  C_6
REMARK                            x       y       z     vdW  Elec       q    Type
REMARK                         _______ _______ _______ _____ _____    ______ ____
ROOT
ATOM      1  O   UNL     1       2.870   1.999  22.000  0.00  0.00    +0.000 OA
ATOM      2  C   UNL     1       3.413   2.455  20.998  0.00  0.00    +0.000 A 
ATOM      3  N   UNL     1       4.775   2.502  20.863  0.00  0.00    +0.000 NA
ATOM      4  C   UNL     1       5.256   3.040  19.794  0.00  0.00    +0.000 A 
ATOM      5  N   UNL     1       4.604   3.590  18.697  0.00  0.00    +0.000 N 
ATOM      6  C   UNL     1       3.174   3.500  18.746  0.00  0.00    +0.000 A 
ATOM      7  C   UNL     1       2.326   3.876  17.689  0.00  0.00    +0.000 A 
ATOM      8  C   UNL     1       0.932   3.814  17.811  0.00  0.00    +0.000 A 
ATOM      9  C   UNL     1       0.350   3.328  18.976  0.00  0.00    +0.000 A 
ATOM     10  C   UNL     1       1.163   2.888  20.015  0.00  0.00    +0.000 A 
ATOM     11  C   UNL     1       2.559   2.970  19.897  0.00  0.00    +0.000 A 
ENDROOT
BRANCH   5  12
ATOM     12  C   UNL     1       5.378   4.260  17.689  0.00  0.00    +0.000 A 
ATOM     13  C   UNL     1       6.110   5.426  17.989  0.00  0.00    +0.000 A 
ATOM     14  C   UNL     1       6.846   6.091  17.003  0.00  0.00    +0.000 A 
ATOM     15 CL   UNL     1       7.694   7.535  17.404  0.00  0.00    +0.000 Cl
ATOM     16  C   UNL     1       6.903   5.602  15.704  0.00  0.00    +0.000 A 
ATOM     17  C   UNL     1       6.187   4.454  15.391  0.00  0.00    +0.000 A 
ATOM     18 CL   UNL     1       6.258   3.815  13.795  0.00  0.00    +0.000 Cl
ATOM     19  C   UNL     1       5.410   3.807  16.358  0.00  0.00    +0.000 A 
ENDBRANCH   5  12
TORSDOF 1
ENDMDL
MODEL 7
REMARK VINA RESULT:      -7.1      4.205      6.486
REMARK  Name = 
REMARK  1 active torsions:
REMARK  status: ('A' for Active; 'I' for Inactive)
REMARK    1  A    between atoms: N_5  and  C_6
REMARK                            x       y       z     vdW  Elec       q    Type
REMARK                         _______ _______ _______ _____ _____    ______ ____
ROOT
ATOM      1  O   UNL     1       5.145   4.693  17.546  0.00  0.00    +0.000 OA
ATOM      2  C   UNL     1       4.306   5.457  18.014  0.00  0.00    +0.000 A 
ATOM      3  N   UNL     1       4.143   6.735  17.548  0.00  0.00    +0.000 NA
ATOM      4  C   UNL     1       3.268   7.481  18.131  0.00  0.00    +0.000 A 
ATOM      5  N   UNL     1       2.410   7.198  19.187  0.00  0.00    +0.000 N 
ATOM      6  C   UNL     1       2.480   5.850  19.668  0.00  0.00    +0.000 A 
ATOM      7  C   UNL     1       1.617   5.316  20.640  0.00  0.00    +0.000 A 
ATOM      8  C   UNL     1       1.763   4.004  21.109  0.00  0.00    +0.000 A 
ATOM      9  C   UNL     1       2.750   3.176  20.585  0.00  0.00    +0.000 A 
ATOM     10  C   UNL     1       3.579   3.655  19.577  0.00  0.00    +0.000 A 
ATOM     11  C   UNL     1       3.441   4.976  19.122  0.00  0.00    +0.000 A 
ENDROOT
BRANCH   5  12
ATOM     12  C   UNL     1       1.622   8.260  19.750  0.00  0.00    +0.000 A 
ATOM     13  C   UNL     1       1.112   9.295  18.943  0.00  0.00    +0.000 A 
ATOM     14  C   UNL     1       0.364  10.340  19.495  0.00  0.00    +0.000 A 
ATOM     15 CL   UNL     1      -0.206  11.607  18.477  0.00  0.00    +0.000 Cl
ATOM     16  C   UNL     1       0.074  10.370  20.852  0.00  0.00    +0.000 A 
ATOM     17  C   UNL     1       0.569   9.357  21.663  0.00  0.00    +0.000 A 
ATOM     18 CL   UNL     1       0.205   9.358  23.345  0.00  0.00    +0.000 Cl
ATOM     19  C   UNL     1       1.357   8.332  21.130  0.00  0.00    +0.000 A 
ENDBRANCH   5  12
TORSDOF 1
ENDMDL
MODEL 8
REMARK VINA RESULT:      -7.0      4.173      6.307
REMARK  Name = 
REMARK  1 active torsions:
REMARK  status: ('A' for Active; 'I' for Inactive)
REMARK    1  A    between atoms: N_5  and  C_6
REMARK                            x       y       z     vdW  Elec       q    Type
REMARK                         _______ _______ _______ _____ _____    ______ ____
ROOT
ATOM      1  O   UNL     1       5.024   4.598  17.424  0.00  0.00    +0.000 OA
ATOM      2  C   UNL     1       4.224   5.391  17.912  0.00  0.00    +0.000 A 
ATOM      3  N   UNL     1       4.075   6.665  17.433  0.00  0.00    +0.000 NA
ATOM      4  C   UNL     1       3.241   7.442  18.037  0.00  0.00    +0.000 A 
ATOM      5  N   UNL     1       2.416   7.196  19.127  0.00  0.00    +0.000 N 
ATOM      6  C   UNL     1       2.471   5.852  19.625  0.00  0.00    +0.000 A 
ATOM      7  C   UNL     1       1.631   5.354  20.636  0.00  0.00    +0.000 A 
ATOM      8  C   UNL     1       1.762   4.046  21.119  0.00  0.00    +0.000 A 
ATOM      9  C   UNL     1       2.707   3.186  20.571  0.00  0.00    +0.000 A 
ATOM     10  C   UNL     1       3.510   3.629  19.526  0.00  0.00    +0.000 A 
ATOM     11  C   UNL     1       3.388   4.947  19.057  0.00  0.00    +0.000 A 
ENDROOT
BRANCH   5  12
ATOM     12  C   UNL     1       1.677   8.284  19.704  0.00  0.00    +0.000 A 
ATOM     13  C   UNL     1       1.376   8.312  21.080  0.00  0.00    +0.000 A 
ATOM     14  C   UNL     1       0.638   9.361  21.638  0.00  0.00    +0.000 A 
ATOM     15 CL   UNL     1       0.258   9.335  23.317  0.00  0.00    +0.000 Cl
ATOM     16  C   UNL     1       0.207  10.425  20.855  0.00  0.00    +0.000 A 
ATOM     17  C   UNL     1       0.495  10.413  19.496  0.00  0.00    +0.000 A 
ATOM     18 CL   UNL     1      -0.008  11.729  18.508  0.00  0.00    +0.000 Cl
ATOM     19  C   UNL     1       1.192   9.347  18.920  0.00  0.00    +0.000 A 
ENDBRANCH   5  12
TORSDOF 1
ENDMDL
MODEL 9
REMARK VINA RESULT:      -6.9      3.971      6.141
REMARK  Name = 
REMARK  1 active torsions:
REMARK  status: ('A' for Active; 'I' for Inactive)
REMARK    1  A    between atoms: N_5  and  C_6
REMARK                            x       y       z     vdW  Elec       q    Type
REMARK                         _______ _______ _______ _____ _____    ______ ____
ROOT
ATOM      1  O   UNL     1       5.901   4.524  16.394  0.00  0.00    +0.000 OA
ATOM      2  C   UNL     1       5.014   5.238  16.853  0.00  0.00    +0.000 A 
ATOM      3  N   UNL     1       5.119   6.603  16.881  0.00  0.00    +0.000 NA
ATOM      4  C   UNL     1       4.157   7.269  17.424  0.00  0.00    +0.000 A 
ATOM      5  N   UNL     1       2.971   6.826  17.995  0.00  0.00    +0.000 N 
ATOM      6  C   UNL     1       2.769   5.408  17.926  0.00  0.00    +0.000 A 
ATOM      7  C   UNL     1       1.587   4.762  18.326  0.00  0.00    +0.000 A 
ATOM      8  C   UNL     1       1.463   3.368  18.283  0.00  0.00    +0.000 A 
ATOM      9  C   UNL     1       2.502   2.585  17.793  0.00  0.00    +0.000 A 
ATOM     10  C   UNL     1       3.660   3.199  17.329  0.00  0.00    +0.000 A 
ATOM     11  C   UNL     1       3.788   4.596  17.392  0.00  0.00    +0.000 A 
ENDROOT
BRANCH   5  12
ATOM     12  C   UNL     1       2.122   7.772  18.665  0.00  0.00    +0.000 A 
ATOM     13  C   UNL     1       1.324   8.676  17.938  0.00  0.00    +0.000 A 
ATOM     14  C   UNL     1       0.514   9.612  18.590  0.00  0.00    +0.000 A 
ATOM     15 CL   UNL     1      -0.416  10.725  17.662  0.00  0.00    +0.000 Cl
ATOM     16  C   UNL     1       0.449   9.654  19.977  0.00  0.00    +0.000 A 
ATOM     17  C   UNL     1       1.229   8.770  20.710  0.00  0.00    +0.000 A 
ATOM     18 CL   UNL     1       1.151   8.787  22.428  0.00  0.00    +0.000 Cl
ATOM     19  C   UNL     1       2.078   7.862  20.068  0.00  0.00    +0.000 A 
ENDBRANCH   5  12
TORSDOF 1
ENDMDL
