MODEL 1
REMARK VINA RESULT:      -8.0      0.000      0.000
REMARK  Name = 
REMARK  3 active torsions:
REMARK  status: ('A' for Active; 'I' for Inactive)
REMARK    1  A    between atoms: C_1  and  C_2
REMARK    2  A    between atoms: C_5  and  C_6
REMARK    3  A    between atoms: C_11  and  C_13
REMARK                            x       y       z     vdW  Elec       q    Type
REMARK                         _______ _______ _______ _____ _____    ______ ____
ROOT
ATOM      1  C   UNL     1       2.436   6.426  19.374  0.00  0.00    +0.000 A 
ATOM      2  N   UNL     1       2.128   5.574  20.414  0.00  0.00    +0.000 NA
ATOM      3  C   UNL     1       2.749   4.459  20.109  0.00  0.00    +0.000 A 
ATOM      4  N   UNL     1       2.837   3.348  20.864  0.00  0.00    +0.000 N 
ATOM      5  N   UNL     1       3.409   4.622  18.904  0.00  0.00    +0.000 N 
ATOM      6  C   UNL     1       4.196   3.717  18.180  0.00  0.00    +0.000 C 
ATOM      7  O   UNL     1       4.054   2.515  18.405  0.00  0.00    +0.000 OA
ATOM      8  N   UNL     1       3.228   5.880  18.444  0.00  0.00    +0.000 NA
ATOM      9  H   UNL     1       2.230   3.252  21.671  0.00  0.00    +0.000 HD
ATOM     10  H   UNL     1       3.154   2.470  20.451  0.00  0.00    +0.000 HD
ENDROOT
BRANCH   1  15
ATOM     11  C   UNL     1       0.484  11.860  19.110  0.00  0.00    +0.000 C 
ATOM     12  C   UNL     1       1.031  10.464  19.165  0.00  0.00    +0.000 A 
ATOM     13  C   UNL     1       1.672   9.884  18.064  0.00  0.00    +0.000 A 
ATOM     14  C   UNL     1       2.151   8.568  18.129  0.00  0.00    +0.000 A 
ATOM     15  C   UNL     1       1.990   7.815  19.296  0.00  0.00    +0.000 A 
ATOM     16  C   UNL     1       1.362   8.410  20.402  0.00  0.00    +0.000 A 
ATOM     17  C   UNL     1       0.889   9.719  20.338  0.00  0.00    +0.000 A 
ENDBRANCH   1  15
BRANCH   6  18
ATOM     18  C   UNL     1       5.208   4.151  17.192  0.00  0.00    +0.000 A 
ATOM     19  C   UNL     1       4.944   4.128  15.823  0.00  0.00    +0.000 A 
ATOM     20  C   UNL     1       5.964   4.457  14.931  0.00  0.00    +0.000 A 
ATOM     21  C   UNL     1       7.210   4.786  15.441  0.00  0.00    +0.000 A 
ATOM     22  N   UNL     1       7.496   4.817  16.759  0.00  0.00    +0.000 NA
ATOM     23  C   UNL     1       6.490   4.498  17.607  0.00  0.00    +0.000 A 
ENDBRANCH   6  18
TORSDOF 2
ENDMDL
MODEL 2
REMARK VINA RESULT:      -7.9      0.116      1.058
REMARK  Name = 
REMARK  3 active torsions:
REMARK  status: ('A' for Active; 'I' for Inactive)
REMARK    1  A    between atoms: C_1  and  C_2
REMARK    2  A    between atoms: C_5  and  C_6
REMARK    3  A    between atoms: C_11  and  C_13
REMARK                            x       y       z     vdW  Elec       q    Type
REMARK                         _______ _______ _______ _____ _____    ______ ____
ROOT
ATOM      1  C   UNL     1       2.444   6.335  19.455  0.00  0.00    +0.000 A 
ATOM      2  N   UNL     1       2.179   5.477  20.502  0.00  0.00    +0.000 NA
ATOM      3  C   UNL     1       2.823   4.378  20.187  0.00  0.00    +0.000 A 
ATOM      4  N   UNL     1       2.954   3.272  20.942  0.00  0.00    +0.000 N 
ATOM      5  N   UNL     1       3.456   4.556  18.969  0.00  0.00    +0.000 N 
ATOM      6  C   UNL     1       4.253   3.670  18.232  0.00  0.00    +0.000 C 
ATOM      7  O   UNL     1       4.147   2.465  18.463  0.00  0.00    +0.000 OA
ATOM      8  N   UNL     1       3.234   5.808  18.512  0.00  0.00    +0.000 NA
ATOM      9  H   UNL     1       2.365   3.161  21.760  0.00  0.00    +0.000 HD
ATOM     10  H   UNL     1       3.286   2.401  20.524  0.00  0.00    +0.000 HD
ENDROOT
BRANCH   1  15
ATOM     11  C   UNL     1       0.720  11.841  19.118  0.00  0.00    +0.000 C 
ATOM     12  C   UNL     1       1.126  10.401  19.220  0.00  0.00    +0.000 A 
ATOM     13  C   UNL     1       0.963   9.675  20.405  0.00  0.00    +0.000 A 
ATOM     14  C   UNL     1       1.376   8.337  20.486  0.00  0.00    +0.000 A 
ATOM     15  C   UNL     1       1.961   7.711  19.383  0.00  0.00    +0.000 A 
ATOM     16  C   UNL     1       2.106   8.440  18.191  0.00  0.00    +0.000 A 
ATOM     17  C   UNL     1       1.693   9.769  18.110  0.00  0.00    +0.000 A 
ENDBRANCH   1  15
BRANCH   6  18
ATOM     18  C   UNL     1       5.234   4.129  17.225  0.00  0.00    +0.000 A 
ATOM     19  C   UNL     1       4.947   4.095  15.862  0.00  0.00    +0.000 A 
ATOM     20  C   UNL     1       5.941   4.450  14.950  0.00  0.00    +0.000 A 
ATOM     21  C   UNL     1       7.187   4.813  15.437  0.00  0.00    +0.000 A 
ATOM     22  N   UNL     1       7.496   4.854  16.749  0.00  0.00    +0.000 NA
ATOM     23  C   UNL     1       6.514   4.511  17.616  0.00  0.00    +0.000 A 
ENDBRANCH   6  18
TORSDOF 2
ENDMDL
MODEL 3
REMARK VINA RESULT:      -7.7      0.806      1.216
REMARK  Name = 
REMARK  3 active torsions:
REMARK  status: ('A' for Active; 'I' for Inactive)
REMARK    1  A    between atoms: C_1  and  C_2
REMARK    2  A    between atoms: C_5  and  C_6
REMARK    3  A    between atoms: C_11  and  C_13
REMARK                            x       y       z     vdW  Elec       q    Type
REMARK                         _______ _______ _______ _____ _____    ______ ____
ROOT
ATOM      1  C   UNL     1       2.241   6.516  19.740  0.00  0.00    +0.000 A 
ATOM      2  N   UNL     1       1.807   5.766  20.813  0.00  0.00    +0.000 NA
ATOM      3  C   UNL     1       2.408   4.609  20.659  0.00  0.00    +0.000 A 
ATOM      4  N   UNL     1       2.383   3.565  21.508  0.00  0.00    +0.000 N 
ATOM      5  N   UNL     1       3.180   4.648  19.512  0.00  0.00    +0.000 N 
ATOM      6  C   UNL     1       3.993   3.659  18.942  0.00  0.00    +0.000 C 
ATOM      7  O   UNL     1       3.784   2.486  19.251  0.00  0.00    +0.000 OA
ATOM      8  N   UNL     1       3.093   5.867  18.937  0.00  0.00    +0.000 NA
ATOM      9  H   UNL     1       1.702   3.558  22.260  0.00  0.00    +0.000 HD
ATOM     10  H   UNL     1       2.701   2.645  21.200  0.00  0.00    +0.000 HD
ENDROOT
BRANCH   1  15
ATOM     11  C   UNL     1       0.541  11.970  18.863  0.00  0.00    +0.000 C 
ATOM     12  C   UNL     1       1.024  10.566  19.077  0.00  0.00    +0.000 A 
ATOM     13  C   UNL     1       1.661   9.847  18.059  0.00  0.00    +0.000 A 
ATOM     14  C   UNL     1       2.079   8.525  18.273  0.00  0.00    +0.000 A 
ATOM     15  C   UNL     1       1.860   7.906  19.506  0.00  0.00    +0.000 A 
ATOM     16  C   UNL     1       1.236   8.640  20.528  0.00  0.00    +0.000 A 
ATOM     17  C   UNL     1       0.824   9.955  20.317  0.00  0.00    +0.000 A 
ENDBRANCH   1  15
BRANCH   6  18
ATOM     18  C   UNL     1       5.107   3.976  18.021  0.00  0.00    +0.000 A 
ATOM     19  C   UNL     1       6.283   4.568  18.480  0.00  0.00    +0.000 A 
ATOM     20  C   UNL     1       7.263   4.932  17.557  0.00  0.00    +0.000 A 
ATOM     21  C   UNL     1       7.025   4.701  16.211  0.00  0.00    +0.000 A 
ATOM     22  N   UNL     1       5.898   4.131  15.737  0.00  0.00    +0.000 NA
ATOM     23  C   UNL     1       4.962   3.782  16.651  0.00  0.00    +0.000 A 
ENDBRANCH   6  18
TORSDOF 2
ENDMDL
MODEL 4
REMARK VINA RESULT:      -7.6      0.794      1.597
REMARK  Name = 
REMARK  3 active torsions:
REMARK  status: ('A' for Active; 'I' for Inactive)
REMARK    1  A    between atoms: C_1  and  C_2
REMARK    2  A    between atoms: C_5  and  C_6
REMARK    3  A    between atoms: C_11  and  C_13
REMARK                            x       y       z     vdW  Elec       q    Type
REMARK                         _______ _______ _______ _____ _____    ______ ____
ROOT
ATOM      1  C   UNL     1       2.226   6.500  19.714  0.00  0.00    +0.000 A 
ATOM      2  N   UNL     1       1.802   5.741  20.784  0.00  0.00    +0.000 NA
ATOM      3  C   UNL     1       2.416   4.592  20.626  0.00  0.00    +0.000 A 
ATOM      4  N   UNL     1       2.404   3.544  21.470  0.00  0.00    +0.000 N 
ATOM      5  N   UNL     1       3.186   4.644  19.477  0.00  0.00    +0.000 N 
ATOM      6  C   UNL     1       4.009   3.667  18.902  0.00  0.00    +0.000 C 
ATOM      7  O   UNL     1       3.814   2.490  19.207  0.00  0.00    +0.000 OA
ATOM      8  N   UNL     1       3.083   5.865  18.907  0.00  0.00    +0.000 NA
ATOM      9  H   UNL     1       1.725   3.526  22.223  0.00  0.00    +0.000 HD
ATOM     10  H   UNL     1       2.732   2.629  21.158  0.00  0.00    +0.000 HD
ENDROOT
BRANCH   1  15
ATOM     11  C   UNL     1       0.847  12.033  18.772  0.00  0.00    +0.000 C 
ATOM     12  C   UNL     1       1.162  10.590  19.028  0.00  0.00    +0.000 A 
ATOM     13  C   UNL     1       0.879   9.985  20.259  0.00  0.00    +0.000 A 
ATOM     14  C   UNL     1       1.208   8.641  20.487  0.00  0.00    +0.000 A 
ATOM     15  C   UNL     1       1.828   7.887  19.487  0.00  0.00    +0.000 A 
ATOM     16  C   UNL     1       2.093   8.495  18.249  0.00  0.00    +0.000 A 
ATOM     17  C   UNL     1       1.763   9.830  18.022  0.00  0.00    +0.000 A 
ENDBRANCH   1  15
BRANCH   6  18
ATOM     18  C   UNL     1       5.118   4.000  17.981  0.00  0.00    +0.000 A 
ATOM     19  C   UNL     1       6.295   4.588  18.442  0.00  0.00    +0.000 A 
ATOM     20  C   UNL     1       7.270   4.968  17.520  0.00  0.00    +0.000 A 
ATOM     21  C   UNL     1       7.025   4.757  16.172  0.00  0.00    +0.000 A 
ATOM     22  N   UNL     1       5.897   4.192  15.695  0.00  0.00    +0.000 NA
ATOM     23  C   UNL     1       4.967   3.826  16.609  0.00  0.00    +0.000 A 
ENDBRANCH   6  18
TORSDOF 2
ENDMDL
MODEL 5
REMARK VINA RESULT:      -7.5      1.528      1.997
REMARK  Name = 
REMARK  3 active torsions:
REMARK  status: ('A' for Active; 'I' for Inactive)
REMARK    1  A    between atoms: C_1  and  C_2
REMARK    2  A    between atoms: C_5  and  C_6
REMARK    3  A    between atoms: C_11  and  C_13
REMARK                            x       y       z     vdW  Elec       q    Type
REMARK                         _______ _______ _______ _____ _____    ______ ____
ROOT
ATOM      1  C   UNL     1       2.104   6.719  20.173  0.00  0.00    +0.000 A 
ATOM      2  N   UNL     1       1.683   5.572  20.812  0.00  0.00    +0.000 NA
ATOM      3  C   UNL     1       2.534   4.654  20.419  0.00  0.00    +0.000 A 
ATOM      4  N   UNL     1       2.603   3.379  20.844  0.00  0.00    +0.000 N 
ATOM      5  N   UNL     1       3.445   5.223  19.548  0.00  0.00    +0.000 N 
ATOM      6  C   UNL     1       4.528   4.644  18.873  0.00  0.00    +0.000 C 
ATOM      7  O   UNL     1       4.530   3.422  18.721  0.00  0.00    +0.000 OA
ATOM      8  N   UNL     1       3.187   6.542  19.406  0.00  0.00    +0.000 NA
ATOM      9  H   UNL     1       1.834   2.996  21.382  0.00  0.00    +0.000 HD
ATOM     10  H   UNL     1       3.154   2.694  20.325  0.00  0.00    +0.000 HD
ENDROOT
BRANCH   1  15
ATOM     11  C   UNL     1      -0.560  11.798  20.882  0.00  0.00    +0.000 C 
ATOM     12  C   UNL     1       0.167  10.502  20.683  0.00  0.00    +0.000 A 
ATOM     13  C   UNL     1       0.743  10.166  19.452  0.00  0.00    +0.000 A 
ATOM     14  C   UNL     1       1.395   8.936  19.280  0.00  0.00    +0.000 A 
ATOM     15  C   UNL     1       1.474   8.026  20.338  0.00  0.00    +0.000 A 
ATOM     16  C   UNL     1       0.910   8.377  21.575  0.00  0.00    +0.000 A 
ATOM     17  C   UNL     1       0.265   9.601  21.746  0.00  0.00    +0.000 A 
ENDBRANCH   1  15
BRANCH   6  18
ATOM     18  C   UNL     1       5.675   5.435  18.378  0.00  0.00    +0.000 A 
ATOM     19  C   UNL     1       6.832   5.594  19.139  0.00  0.00    +0.000 A 
ATOM     20  C   UNL     1       7.845   6.428  18.667  0.00  0.00    +0.000 A 
ATOM     21  C   UNL     1       7.658   7.079  17.458  0.00  0.00    +0.000 A 
ATOM     22  N   UNL     1       6.550   6.946  16.699  0.00  0.00    +0.000 NA
ATOM     23  C   UNL     1       5.582   6.129  17.175  0.00  0.00    +0.000 A 
ENDBRANCH   6  18
TORSDOF 2
ENDMDL
MODEL 6
REMARK VINA RESULT:      -7.5      1.480      2.206
REMARK  Name = 
REMARK  3 active torsions:
REMARK  status: ('A' for Active; 'I' for Inactive)
REMARK    1  A    between atoms: C_1  and  C_2
REMARK    2  A    between atoms: C_5  and  C_6
REMARK    3  A    between atoms: C_11  and  C_13
REMARK                            x       y       z     vdW  Elec       q    Type
REMARK                         _______ _______ _______ _____ _____    ______ ____
ROOT
ATOM      1  C   UNL     1       2.113   6.710  20.199  0.00  0.00    +0.000 A 
ATOM      2  N   UNL     1       1.673   5.564  20.827  0.00  0.00    +0.000 NA
ATOM      3  C   UNL     1       2.497   4.632  20.408  0.00  0.00    +0.000 A 
ATOM      4  N   UNL     1       2.542   3.350  20.814  0.00  0.00    +0.000 N 
ATOM      5  N   UNL     1       3.410   5.193  19.534  0.00  0.00    +0.000 N 
ATOM      6  C   UNL     1       4.470   4.599  18.837  0.00  0.00    +0.000 C 
ATOM      7  O   UNL     1       4.442   3.380  18.667  0.00  0.00    +0.000 OA
ATOM      8  N   UNL     1       3.181   6.520  19.416  0.00  0.00    +0.000 NA
ATOM      9  H   UNL     1       1.770   2.977  21.356  0.00  0.00    +0.000 HD
ATOM     10  H   UNL     1       3.070   2.660  20.277  0.00  0.00    +0.000 HD
ENDROOT
BRANCH   1  15
ATOM     11  C   UNL     1      -0.077  12.013  20.892  0.00  0.00    +0.000 C 
ATOM     12  C   UNL     1       0.454  10.620  20.731  0.00  0.00    +0.000 A 
ATOM     13  C   UNL     1       0.546   9.740  21.816  0.00  0.00    +0.000 A 
ATOM     14  C   UNL     1       1.072   8.452  21.648  0.00  0.00    +0.000 A 
ATOM     15  C   UNL     1       1.516   8.029  20.392  0.00  0.00    +0.000 A 
ATOM     16  C   UNL     1       1.405   8.911  19.305  0.00  0.00    +0.000 A 
ATOM     17  C   UNL     1       0.879  10.191  19.472  0.00  0.00    +0.000 A 
ENDBRANCH   1  15
BRANCH   6  18
ATOM     18  C   UNL     1       5.629   5.371  18.338  0.00  0.00    +0.000 A 
ATOM     19  C   UNL     1       6.763   5.571  19.125  0.00  0.00    +0.000 A 
ATOM     20  C   UNL     1       7.787   6.385  18.644  0.00  0.00    +0.000 A 
ATOM     21  C   UNL     1       7.634   6.978  17.400  0.00  0.00    +0.000 A 
ATOM     22  N   UNL     1       6.550   6.805  16.617  0.00  0.00    +0.000 NA
ATOM     23  C   UNL     1       5.570   6.006  17.102  0.00  0.00    +0.000 A 
ENDBRANCH   6  18
TORSDOF 2
ENDMDL
MODEL 7
REMARK VINA RESULT:      -7.2      2.950      4.773
REMARK  Name = 
REMARK  3 active torsions:
REMARK  status: ('A' for Active; 'I' for Inactive)
REMARK    1  A    between atoms: C_1  and  C_2
REMARK    2  A    between atoms: C_5  and  C_6
REMARK    3  A    between atoms: C_11  and  C_13
REMARK                            x       y       z     vdW  Elec       q    Type
REMARK                         _______ _______ _______ _____ _____    ______ ____
ROOT
ATOM      1  C   UNL     1       1.322   8.654  20.042  0.00  0.00    +0.000 A 
ATOM      2  N   UNL     1       1.864   9.110  18.859  0.00  0.00    +0.000 NA
ATOM      3  C   UNL     1       2.539   8.083  18.398  0.00  0.00    +0.000 A 
ATOM      4  N   UNL     1       3.171   7.995  17.213  0.00  0.00    +0.000 N 
ATOM      5  N   UNL     1       2.423   7.028  19.286  0.00  0.00    +0.000 N 
ATOM      6  C   UNL     1       2.965   5.738  19.225  0.00  0.00    +0.000 C 
ATOM      7  O   UNL     1       3.944   5.553  18.501  0.00  0.00    +0.000 OA
ATOM      8  N   UNL     1       1.632   7.382  20.323  0.00  0.00    +0.000 NA
ATOM      9  H   UNL     1       3.322   8.840  16.672  0.00  0.00    +0.000 HD
ATOM     10  H   UNL     1       3.840   7.244  17.042  0.00  0.00    +0.000 HD
ENDROOT
BRANCH   1  15
ATOM     11  C   UNL     1      -2.020  11.962  23.400  0.00  0.00    +0.000 C 
ATOM     12  C   UNL     1      -1.177  11.068  22.542  0.00  0.00    +0.000 A 
ATOM     13  C   UNL     1      -0.527   9.946  23.069  0.00  0.00    +0.000 A 
ATOM     14  C   UNL     1       0.280   9.139  22.254  0.00  0.00    +0.000 A 
ATOM     15  C   UNL     1       0.450   9.448  20.901  0.00  0.00    +0.000 A 
ATOM     16  C   UNL     1      -0.220  10.565  20.375  0.00  0.00    +0.000 A 
ATOM     17  C   UNL     1      -1.024  11.365  21.186  0.00  0.00    +0.000 A 
ENDBRANCH   1  15
BRANCH   6  18
ATOM     18  C   UNL     1       2.386   4.594  19.963  0.00  0.00    +0.000 A 
ATOM     19  C   UNL     1       1.381   3.804  19.406  0.00  0.00    +0.000 A 
ATOM     20  C   UNL     1       0.804   2.797  20.179  0.00  0.00    +0.000 A 
ATOM     21  C   UNL     1       1.245   2.627  21.483  0.00  0.00    +0.000 A 
ATOM     22  N   UNL     1       2.214   3.375  22.049  0.00  0.00    +0.000 NA
ATOM     23  C   UNL     1       2.764   4.343  21.278  0.00  0.00    +0.000 A 
ENDBRANCH   6  18
TORSDOF 2
ENDMDL
MODEL 8
REMARK VINA RESULT:      -7.1      2.224      4.064
REMARK  Name = 
REMARK  3 active torsions:
REMARK  status: ('A' for Active; 'I' for Inactive)
REMARK    1  A    between atoms: C_1  and  C_2
REMARK    2  A    between atoms: C_5  and  C_6
REMARK    3  A    between atoms: C_11  and  C_13
REMARK                            x       y       z     vdW  Elec       q    Type
REMARK                         _______ _______ _______ _____ _____    ______ ____
ROOT
ATOM      1  C   UNL     1       2.266   8.030  18.677  0.00  0.00    +0.000 A 
ATOM      2  N   UNL     1       3.133   8.157  17.613  0.00  0.00    +0.000 NA
ATOM      3  C   UNL     1       3.792   7.022  17.598  0.00  0.00    +0.000 A 
ATOM      4  N   UNL     1       4.691   6.619  16.682  0.00  0.00    +0.000 N 
ATOM      5  N   UNL     1       3.346   6.225  18.638  0.00  0.00    +0.000 N 
ATOM      6  C   UNL     1       3.748   4.939  19.022  0.00  0.00    +0.000 C 
ATOM      7  O   UNL     1       4.853   4.542  18.652  0.00  0.00    +0.000 OA
ATOM      8  N   UNL     1       2.359   6.856  19.313  0.00  0.00    +0.000 NA
ATOM      9  H   UNL     1       5.061   7.296  16.024  0.00  0.00    +0.000 HD
ATOM     10  H   UNL     1       5.299   5.822  16.874  0.00  0.00    +0.000 HD
ENDROOT
BRANCH   1  15
ATOM     11  C   UNL     1      -1.705  11.907  20.290  0.00  0.00    +0.000 C 
ATOM     12  C   UNL     1      -0.652  10.934  19.851  0.00  0.00    +0.000 A 
ATOM     13  C   UNL     1      -0.283  10.810  18.506  0.00  0.00    +0.000 A 
ATOM     14  C   UNL     1       0.684   9.874  18.114  0.00  0.00    +0.000 A 
ATOM     15  C   UNL     1       1.291   9.046  19.064  0.00  0.00    +0.000 A 
ATOM     16  C   UNL     1       0.929   9.188  20.413  0.00  0.00    +0.000 A 
ATOM     17  C   UNL     1      -0.031  10.122  20.802  0.00  0.00    +0.000 A 
ENDBRANCH   1  15
BRANCH   6  18
ATOM     18  C   UNL     1       2.886   4.037  19.816  0.00  0.00    +0.000 A 
ATOM     19  C   UNL     1       1.889   3.270  19.215  0.00  0.00    +0.000 A 
ATOM     20  C   UNL     1       1.042   2.509  20.020  0.00  0.00    +0.000 A 
ATOM     21  C   UNL     1       1.216   2.554  21.394  0.00  0.00    +0.000 A 
ATOM     22  N   UNL     1       2.170   3.287  22.005  0.00  0.00    +0.000 NA
ATOM     23  C   UNL     1       2.983   4.014  21.204  0.00  0.00    +0.000 A 
ENDBRANCH   6  18
TORSDOF 2
ENDMDL
MODEL 9
REMARK VINA RESULT:      -7.0      4.266      5.586
REMARK  Name = 
REMARK  3 active torsions:
REMARK  status: ('A' for Active; 'I' for Inactive)
REMARK    1  A    between atoms: C_1  and  C_2
REMARK    2  A    between atoms: C_5  and  C_6
REMARK    3  A    between atoms: C_11  and  C_13
REMARK                            x       y       z     vdW  Elec       q    Type
REMARK                         _______ _______ _______ _____ _____    ______ ____
ROOT
ATOM      1  C   UNL     1       5.115   4.705  17.266  0.00  0.00    +0.000 A 
ATOM      2  N   UNL     1       5.878   5.792  17.636  0.00  0.00    +0.000 NA
ATOM      3  C   UNL     1       6.684   5.980  16.617  0.00  0.00    +0.000 A 
ATOM      4  N   UNL     1       7.561   6.987  16.454  0.00  0.00    +0.000 N 
ATOM      5  N   UNL     1       6.428   5.021  15.653  0.00  0.00    +0.000 N 
ATOM      6  C   UNL     1       7.030   4.818  14.404  0.00  0.00    +0.000 C 
ATOM      7  O   UNL     1       8.149   5.294  14.216  0.00  0.00    +0.000 OA
ATOM      8  N   UNL     1       5.415   4.221  16.054  0.00  0.00    +0.000 NA
ATOM      9  H   UNL     1       7.787   7.577  17.247  0.00  0.00    +0.000 HD
ATOM     10  H   UNL     1       8.286   6.926  15.737  0.00  0.00    +0.000 HD
ENDROOT
BRANCH   1  15
ATOM     11  C   UNL     1       0.762   2.665  20.474  0.00  0.00    +0.000 C 
ATOM     12  C   UNL     1       1.914   3.156  19.649  0.00  0.00    +0.000 A 
ATOM     13  C   UNL     1       3.219   3.179  20.153  0.00  0.00    +0.000 A 
ATOM     14  C   UNL     1       4.277   3.669  19.373  0.00  0.00    +0.000 A 
ATOM     15  C   UNL     1       4.040   4.145  18.081  0.00  0.00    +0.000 A 
ATOM     16  C   UNL     1       2.730   4.102  17.576  0.00  0.00    +0.000 A 
ATOM     17  C   UNL     1       1.680   3.612  18.350  0.00  0.00    +0.000 A 
ENDBRANCH   1  15
BRANCH   6  18
ATOM     18  C   UNL     1       6.359   4.092  13.304  0.00  0.00    +0.000 A 
ATOM     19  C   UNL     1       4.973   4.126  13.149  0.00  0.00    +0.000 A 
ATOM     20  C   UNL     1       4.383   3.349  12.153  0.00  0.00    +0.000 A 
ATOM     21  C   UNL     1       5.199   2.558  11.359  0.00  0.00    +0.000 A 
ATOM     22  N   UNL     1       6.541   2.504  11.484  0.00  0.00    +0.000 NA
ATOM     23  C   UNL     1       7.093   3.271  12.454  0.00  0.00    +0.000 A 
ENDBRANCH   6  18
TORSDOF 2
ENDMDL
