MODEL 1
REMARK VINA RESULT:      -8.0      0.000      0.000
REMARK  Name = 
REMARK  2 active torsions:
REMARK  status: ('A' for Active; 'I' for Inactive)
REMARK    1  A    between atoms: N_1  and  C_2
REMARK    2  A    between atoms: N_5  and  C_6
REMARK                            x       y       z     vdW  Elec       q    Type
REMARK                         _______ _______ _______ _____ _____    ______ ____
ROOT
ATOM      1  C   UNL     1       4.939   4.435  16.606  0.00  0.00    +0.000 C 
ATOM      2  C   UNL     1       4.994   5.933  16.346  0.00  0.00    +0.000 C 
ATOM      3  C   UNL     1       4.616   6.686  17.611  0.00  0.00    +0.000 C 
ATOM      4  N   UNL     1       3.210   6.408  17.962  0.00  0.00    +0.000 N 
ATOM      5  C   UNL     1       2.864   5.022  17.981  0.00  0.00    +0.000 A 
ATOM      6  C   UNL     1       1.713   4.560  18.648  0.00  0.00    +0.000 A 
ATOM      7  C   UNL     1       1.342   3.212  18.651  0.00  0.00    +0.000 A 
ATOM      8  C   UNL     1       2.134   2.276  18.005  0.00  0.00    +0.000 A 
ATOM      9  C   UNL     1       3.292   2.694  17.357  0.00  0.00    +0.000 A 
ATOM     10  C   UNL     1       3.665   4.055  17.335  0.00  0.00    +0.000 A 
ENDROOT
BRANCH   4  11
ATOM     11  C   UNL     1       2.465   7.492  18.483  0.00  0.00    +0.000 A 
ATOM     12  C   UNL     1       1.990   8.505  17.633  0.00  0.00    +0.000 A 
ATOM     13  C   UNL     1       1.177   9.540  18.104  0.00  0.00    +0.000 A 
ATOM     14  C   UNL     1       0.855   9.610  19.457  0.00  0.00    +0.000 A 
ATOM     15 CL   UNL     1      -0.169  10.899  19.977  0.00  0.00    +0.000 Cl
ATOM     16  C   UNL     1       1.359   8.647  20.335  0.00  0.00    +0.000 A 
ATOM     17 CL   UNL     1       1.019   8.673  22.031  0.00  0.00    +0.000 Cl
ATOM     18  C   UNL     1       2.154   7.602  19.848  0.00  0.00    +0.000 A 
ENDBRANCH   4  11
BRANCH   1  19
ATOM     19  N   UNL     1       6.129   4.017  17.356  0.00  0.00    +0.000 NA
ATOM     20  H   UNL     1       5.852   3.715  18.288  0.00  0.00    +0.000 HD
ATOM     21  H   UNL     1       6.743   4.819  17.486  0.00  0.00    +0.000 HD
ENDBRANCH   1  19
TORSDOF 2
ENDMDL
MODEL 2
REMARK VINA RESULT:      -7.8      1.039      1.154
REMARK  Name = 
REMARK  2 active torsions:
REMARK  status: ('A' for Active; 'I' for Inactive)
REMARK    1  A    between atoms: N_1  and  C_2
REMARK    2  A    between atoms: N_5  and  C_6
REMARK                            x       y       z     vdW  Elec       q    Type
REMARK                         _______ _______ _______ _____ _____    ______ ____
ROOT
ATOM      1  C   UNL     1       4.480   3.831  17.821  0.00  0.00    +0.000 C 
ATOM      2  C   UNL     1       4.538   5.182  17.124  0.00  0.00    +0.000 C 
ATOM      3  C   UNL     1       4.313   6.291  18.138  0.00  0.00    +0.000 C 
ATOM      4  N   UNL     1       2.948   6.202  18.688  0.00  0.00    +0.000 N 
ATOM      5  C   UNL     1       2.576   4.902  19.152  0.00  0.00    +0.000 A 
ATOM      6  C   UNL     1       1.494   4.716  20.033  0.00  0.00    +0.000 A 
ATOM      7  C   UNL     1       1.098   3.450  20.472  0.00  0.00    +0.000 A 
ATOM      8  C   UNL     1       1.796   2.326  20.061  0.00  0.00    +0.000 A 
ATOM      9  C   UNL     1       2.886   2.475  19.210  0.00  0.00    +0.000 A 
ATOM     10  C   UNL     1       3.284   3.749  18.749  0.00  0.00    +0.000 A 
ENDROOT
BRANCH   4  11
ATOM     11  C   UNL     1       2.286   7.428  18.932  0.00  0.00    +0.000 A 
ATOM     12  C   UNL     1       2.030   8.323  17.880  0.00  0.00    +0.000 A 
ATOM     13  C   UNL     1       1.301   9.499  18.075  0.00  0.00    +0.000 A 
ATOM     14  C   UNL     1       0.844   9.831  19.347  0.00  0.00    +0.000 A 
ATOM     15 CL   UNL     1      -0.069  11.286  19.522  0.00  0.00    +0.000 Cl
ATOM     16  C   UNL     1       1.129   8.987  20.423  0.00  0.00    +0.000 A 
ATOM     17 CL   UNL     1       0.612   9.336  22.036  0.00  0.00    +0.000 Cl
ATOM     18  C   UNL     1       1.842   7.800  20.212  0.00  0.00    +0.000 A 
ENDBRANCH   4  11
BRANCH   1  19
ATOM     19  N   UNL     1       5.735   3.590  18.544  0.00  0.00    +0.000 NA
ATOM     20  H   UNL     1       6.399   3.132  17.923  0.00  0.00    +0.000 HD
ATOM     21  H   UNL     1       5.563   2.940  19.308  0.00  0.00    +0.000 HD
ENDBRANCH   1  19
TORSDOF 2
ENDMDL
MODEL 3
REMARK VINA RESULT:      -7.3      4.084      6.153
REMARK  Name = 
REMARK  2 active torsions:
REMARK  status: ('A' for Active; 'I' for Inactive)
REMARK    1  A    between atoms: N_1  and  C_2
REMARK    2  A    between atoms: N_5  and  C_6
REMARK                            x       y       z     vdW  Elec       q    Type
REMARK                         _______ _______ _______ _____ _____    ______ ____
ROOT
ATOM      1  C   UNL     1       2.311   2.838  20.422  0.00  0.00    +0.000 C 
ATOM      2  C   UNL     1       2.981   2.006  19.337  0.00  0.00    +0.000 C 
ATOM      3  C   UNL     1       4.321   2.624  18.972  0.00  0.00    +0.000 C 
ATOM      4  N   UNL     1       4.115   3.952  18.365  0.00  0.00    +0.000 N 
ATOM      5  C   UNL     1       3.254   4.819  19.107  0.00  0.00    +0.000 A 
ATOM      6  C   UNL     1       3.249   6.211  18.893  0.00  0.00    +0.000 A 
ATOM      7  C   UNL     1       2.392   7.070  19.587  0.00  0.00    +0.000 A 
ATOM      8  C   UNL     1       1.529   6.560  20.544  0.00  0.00    +0.000 A 
ATOM      9  C   UNL     1       1.525   5.193  20.798  0.00  0.00    +0.000 A 
ATOM     10  C   UNL     1       2.375   4.316  20.091  0.00  0.00    +0.000 A 
ENDROOT
BRANCH   4  11
ATOM     11  C   UNL     1       4.976   4.297  17.297  0.00  0.00    +0.000 A 
ATOM     12  C   UNL     1       6.194   4.951  17.545  0.00  0.00    +0.000 A 
ATOM     13  C   UNL     1       7.105   5.225  16.521  0.00  0.00    +0.000 A 
ATOM     14  C   UNL     1       6.795   4.886  15.207  0.00  0.00    +0.000 A 
ATOM     15 CL   UNL     1       7.968   5.230  13.987  0.00  0.00    +0.000 Cl
ATOM     16  C   UNL     1       5.567   4.283  14.923  0.00  0.00    +0.000 A 
ATOM     17 CL   UNL     1       5.100   3.848  13.315  0.00  0.00    +0.000 Cl
ATOM     18  C   UNL     1       4.671   3.994  15.960  0.00  0.00    +0.000 A 
ENDBRANCH   4  11
BRANCH   1  19
ATOM     19  N   UNL     1       2.933   2.554  21.720  0.00  0.00    +0.000 NA
ATOM     20  H   UNL     1       3.892   2.898  21.718  0.00  0.00    +0.000 HD
ATOM     21  H   UNL     1       2.993   1.545  21.851  0.00  0.00    +0.000 HD
ENDBRANCH   1  19
TORSDOF 2
ENDMDL
MODEL 4
REMARK VINA RESULT:      -7.2      0.789      1.625
REMARK  Name = 
REMARK  2 active torsions:
REMARK  status: ('A' for Active; 'I' for Inactive)
REMARK    1  A    between atoms: N_1  and  C_2
REMARK    2  A    between atoms: N_5  and  C_6
REMARK                            x       y       z     vdW  Elec       q    Type
REMARK                         _______ _______ _______ _____ _____    ______ ____
ROOT
ATOM      1  C   UNL     1       4.707   4.436  16.731  0.00  0.00    +0.000 C 
ATOM      2  C   UNL     1       4.717   5.953  16.620  0.00  0.00    +0.000 C 
ATOM      3  C   UNL     1       4.409   6.568  17.976  0.00  0.00    +0.000 C 
ATOM      4  N   UNL     1       3.035   6.223  18.385  0.00  0.00    +0.000 N 
ATOM      5  C   UNL     1       2.717   4.833  18.288  0.00  0.00    +0.000 A 
ATOM      6  C   UNL     1       1.621   4.279  18.977  0.00  0.00    +0.000 A 
ATOM      7  C   UNL     1       1.276   2.929  18.869  0.00  0.00    +0.000 A 
ATOM      8  C   UNL     1       2.041   2.081  18.084  0.00  0.00    +0.000 A 
ATOM      9  C   UNL     1       3.145   2.589  17.408  0.00  0.00    +0.000 A 
ATOM     10  C   UNL     1       3.492   3.955  17.499  0.00  0.00    +0.000 A 
ENDROOT
BRANCH   4  11
ATOM     11  C   UNL     1       2.306   7.231  19.058  0.00  0.00    +0.000 A 
ATOM     12  C   UNL     1       1.918   7.058  20.396  0.00  0.00    +0.000 A 
ATOM     13  C   UNL     1       1.275   8.071  21.114  0.00  0.00    +0.000 A 
ATOM     14  C   UNL     1       0.965   9.276  20.488  0.00  0.00    +0.000 A 
ATOM     15 CL   UNL     1       0.189  10.497  21.430  0.00  0.00    +0.000 Cl
ATOM     16  C   UNL     1       1.291   9.456  19.142  0.00  0.00    +0.000 A 
ATOM     17 CL   UNL     1       0.924  10.915  18.289  0.00  0.00    +0.000 Cl
ATOM     18  C   UNL     1       1.954   8.442  18.439  0.00  0.00    +0.000 A 
ENDBRANCH   4  11
BRANCH   1  19
ATOM     19  N   UNL     1       5.952   3.976  17.359  0.00  0.00    +0.000 NA
ATOM     20  H   UNL     1       6.093   4.475  18.235  0.00  0.00    +0.000 HD
ATOM     21  H   UNL     1       6.740   4.220  16.762  0.00  0.00    +0.000 HD
ENDBRANCH   1  19
TORSDOF 2
ENDMDL
MODEL 5
REMARK VINA RESULT:      -7.1      1.399      2.924
REMARK  Name = 
REMARK  2 active torsions:
REMARK  status: ('A' for Active; 'I' for Inactive)
REMARK    1  A    between atoms: N_1  and  C_2
REMARK    2  A    between atoms: N_5  and  C_6
REMARK                            x       y       z     vdW  Elec       q    Type
REMARK                         _______ _______ _______ _____ _____    ______ ____
ROOT
ATOM      1  C   UNL     1       4.513   3.418  18.902  0.00  0.00    +0.000 C 
ATOM      2  C   UNL     1       3.346   3.807  19.799  0.00  0.00    +0.000 C 
ATOM      3  C   UNL     1       2.460   4.810  19.079  0.00  0.00    +0.000 C 
ATOM      4  N   UNL     1       3.202   6.064  18.849  0.00  0.00    +0.000 N 
ATOM      5  C   UNL     1       4.491   5.892  18.256  0.00  0.00    +0.000 A 
ATOM      6  C   UNL     1       5.160   6.960  17.627  0.00  0.00    +0.000 A 
ATOM      7  C   UNL     1       6.434   6.818  17.070  0.00  0.00    +0.000 A 
ATOM      8  C   UNL     1       7.069   5.587  17.101  0.00  0.00    +0.000 A 
ATOM      9  C   UNL     1       6.427   4.504  17.693  0.00  0.00    +0.000 A 
ATOM     10  C   UNL     1       5.147   4.642  18.272  0.00  0.00    +0.000 A 
ENDROOT
BRANCH   4  11
ATOM     11  C   UNL     1       2.468   7.265  18.987  0.00  0.00    +0.000 A 
ATOM     12  C   UNL     1       2.238   8.093  17.876  0.00  0.00    +0.000 A 
ATOM     13  C   UNL     1       1.442   9.239  17.963  0.00  0.00    +0.000 A 
ATOM     14  C   UNL     1       0.889   9.609  19.186  0.00  0.00    +0.000 A 
ATOM     15 CL   UNL     1      -0.102  11.022  19.228  0.00  0.00    +0.000 Cl
ATOM     16  C   UNL     1       1.145   8.834  20.320  0.00  0.00    +0.000 A 
ATOM     17 CL   UNL     1       0.510   9.236  21.877  0.00  0.00    +0.000 Cl
ATOM     18  C   UNL     1       1.926   7.676  20.216  0.00  0.00    +0.000 A 
ENDBRANCH   4  11
BRANCH   1  19
ATOM     19  N   UNL     1       4.058   2.467  17.881  0.00  0.00    +0.000 NA
ATOM     20  H   UNL     1       4.636   2.563  17.048  0.00  0.00    +0.000 HD
ATOM     21  H   UNL     1       3.109   2.705  17.598  0.00  0.00    +0.000 HD
ENDBRANCH   1  19
TORSDOF 2
ENDMDL
MODEL 6
REMARK VINA RESULT:      -7.0      3.750      5.880
REMARK  Name = 
REMARK  2 active torsions:
REMARK  status: ('A' for Active; 'I' for Inactive)
REMARK    1  A    between atoms: N_1  and  C_2
REMARK    2  A    between atoms: N_5  and  C_6
REMARK                            x       y       z     vdW  Elec       q    Type
REMARK                         _______ _______ _______ _____ _____    ______ ____
ROOT
ATOM      1  C   UNL     1       2.031   3.021  20.598  0.00  0.00    +0.000 C 
ATOM      2  C   UNL     1       2.725   2.161  19.552  0.00  0.00    +0.000 C 
ATOM      3  C   UNL     1       4.101   2.733  19.251  0.00  0.00    +0.000 C 
ATOM      4  N   UNL     1       3.968   4.062  18.627  0.00  0.00    +0.000 N 
ATOM      5  C   UNL     1       3.100   4.962  19.321  0.00  0.00    +0.000 A 
ATOM      6  C   UNL     1       3.150   6.351  19.099  0.00  0.00    +0.000 A 
ATOM      7  C   UNL     1       2.288   7.241  19.745  0.00  0.00    +0.000 A 
ATOM      8  C   UNL     1       1.363   6.767  20.661  0.00  0.00    +0.000 A 
ATOM      9  C   UNL     1       1.302   5.402  20.922  0.00  0.00    +0.000 A 
ATOM     10  C   UNL     1       2.158   4.493  20.263  0.00  0.00    +0.000 A 
ENDROOT
BRANCH   4  11
ATOM     11  C   UNL     1       4.891   4.372  17.601  0.00  0.00    +0.000 A 
ATOM     12  C   UNL     1       4.921   3.617  16.416  0.00  0.00    +0.000 A 
ATOM     13  C   UNL     1       5.760   3.953  15.350  0.00  0.00    +0.000 A 
ATOM     14  C   UNL     1       6.627   5.036  15.463  0.00  0.00    +0.000 A 
ATOM     15 CL   UNL     1       7.625   5.416  14.106  0.00  0.00    +0.000 Cl
ATOM     16  C   UNL     1       6.658   5.772  16.650  0.00  0.00    +0.000 A 
ATOM     17 CL   UNL     1       7.718   7.120  16.875  0.00  0.00    +0.000 Cl
ATOM     18  C   UNL     1       5.797   5.440  17.704  0.00  0.00    +0.000 A 
ENDBRANCH   4  11
BRANCH   1  19
ATOM     19  N   UNL     1       2.579   2.726  21.927  0.00  0.00    +0.000 NA
ATOM     20  H   UNL     1       2.062   1.952  22.341  0.00  0.00    +0.000 HD
ATOM     21  H   UNL     1       2.429   3.527  22.538  0.00  0.00    +0.000 HD
ENDBRANCH   1  19
TORSDOF 2
ENDMDL
MODEL 7
REMARK VINA RESULT:      -6.8      3.185      6.222
REMARK  Name = 
REMARK  2 active torsions:
REMARK  status: ('A' for Active; 'I' for Inactive)
REMARK    1  A    between atoms: N_1  and  C_2
REMARK    2  A    between atoms: N_5  and  C_6
REMARK                            x       y       z     vdW  Elec       q    Type
REMARK                         _______ _______ _______ _____ _____    ______ ____
ROOT
ATOM      1  C   UNL     1       1.130  10.725  18.701  0.00  0.00    +0.000 C 
ATOM      2  C   UNL     1       2.137   9.923  17.890  0.00  0.00    +0.000 C 
ATOM      3  C   UNL     1       1.783   8.447  17.950  0.00  0.00    +0.000 C 
ATOM      4  N   UNL     1       1.921   7.951  19.331  0.00  0.00    +0.000 N 
ATOM      5  C   UNL     1       1.266   8.749  20.320  0.00  0.00    +0.000 A 
ATOM      6  C   UNL     1       0.971   8.241  21.599  0.00  0.00    +0.000 A 
ATOM      7  C   UNL     1       0.360   9.018  22.587  0.00  0.00    +0.000 A 
ATOM      8  C   UNL     1      -0.003  10.326  22.312  0.00  0.00    +0.000 A 
ATOM      9  C   UNL     1       0.251  10.853  21.050  0.00  0.00    +0.000 A 
ATOM     10  C   UNL     1       0.883  10.081  20.051  0.00  0.00    +0.000 A 
ENDROOT
BRANCH   4  11
ATOM     11  C   UNL     1       2.440   6.643  19.482  0.00  0.00    +0.000 A 
ATOM     12  C   UNL     1       3.669   6.291  18.900  0.00  0.00    +0.000 A 
ATOM     13  C   UNL     1       4.248   5.036  19.105  0.00  0.00    +0.000 A 
ATOM     14  C   UNL     1       3.584   4.080  19.869  0.00  0.00    +0.000 A 
ATOM     15 CL   UNL     1       4.358   2.555  20.105  0.00  0.00    +0.000 Cl
ATOM     16  C   UNL     1       2.334   4.384  20.416  0.00  0.00    +0.000 A 
ATOM     17 CL   UNL     1       1.438   3.246  21.361  0.00  0.00    +0.000 Cl
ATOM     18  C   UNL     1       1.773   5.652  20.221  0.00  0.00    +0.000 A 
ENDBRANCH   4  11
BRANCH   1  19
ATOM     19  N   UNL     1      -0.118  10.869  17.942  0.00  0.00    +0.000 NA
ATOM     20  H   UNL     1      -0.580  11.735  18.213  0.00  0.00    +0.000 HD
ATOM     21  H   UNL     1      -0.755  10.115  18.194  0.00  0.00    +0.000 HD
ENDBRANCH   1  19
TORSDOF 2
ENDMDL
MODEL 8
REMARK VINA RESULT:      -6.8      3.505      6.362
REMARK  Name = 
REMARK  2 active torsions:
REMARK  status: ('A' for Active; 'I' for Inactive)
REMARK    1  A    between atoms: N_1  and  C_2
REMARK    2  A    between atoms: N_5  and  C_6
REMARK                            x       y       z     vdW  Elec       q    Type
REMARK                         _______ _______ _______ _____ _____    ______ ____
ROOT
ATOM      1  C   UNL     1       1.048  10.540  18.556  0.00  0.00    +0.000 C 
ATOM      2  C   UNL     1       2.064   9.695  17.801  0.00  0.00    +0.000 C 
ATOM      3  C   UNL     1       1.744   8.221  17.989  0.00  0.00    +0.000 C 
ATOM      4  N   UNL     1       1.909   7.846  19.406  0.00  0.00    +0.000 N 
ATOM      5  C   UNL     1       1.247   8.711  20.332  0.00  0.00    +0.000 A 
ATOM      6  C   UNL     1       0.978   8.306  21.654  0.00  0.00    +0.000 A 
ATOM      7  C   UNL     1       0.360   9.149  22.581  0.00  0.00    +0.000 A 
ATOM      8  C   UNL     1      -0.036  10.422  22.202  0.00  0.00    +0.000 A 
ATOM      9  C   UNL     1       0.193  10.846  20.897  0.00  0.00    +0.000 A 
ATOM     10  C   UNL     1       0.830  10.007  19.958  0.00  0.00    +0.000 A 
ENDROOT
BRANCH   4  11
ATOM     11  C   UNL     1       2.459   6.568  19.659  0.00  0.00    +0.000 A 
ATOM     12  C   UNL     1       1.776   5.645  20.469  0.00  0.00    +0.000 A 
ATOM     13  C   UNL     1       2.250   4.345  20.665  0.00  0.00    +0.000 A 
ATOM     14  C   UNL     1       3.452   3.949  20.085  0.00  0.00    +0.000 A 
ATOM     15 CL   UNL     1       3.977   2.325  20.346  0.00  0.00    +0.000 Cl
ATOM     16  C   UNL     1       4.180   4.862  19.319  0.00  0.00    +0.000 A 
ATOM     17 CL   UNL     1       5.689   4.454  18.579  0.00  0.00    +0.000 Cl
ATOM     18  C   UNL     1       3.685   6.156  19.111  0.00  0.00    +0.000 A 
ENDBRANCH   4  11
BRANCH   1  19
ATOM     19  N   UNL     1      -0.211  10.592  17.803  0.00  0.00    +0.000 NA
ATOM     20  H   UNL     1      -0.469  11.565  17.642  0.00  0.00    +0.000 HD
ATOM     21  H   UNL     1      -0.957  10.189  18.366  0.00  0.00    +0.000 HD
ENDBRANCH   1  19
TORSDOF 2
ENDMDL
MODEL 9
REMARK VINA RESULT:      -6.7      1.728      2.328
REMARK  Name = 
REMARK  2 active torsions:
REMARK  status: ('A' for Active; 'I' for Inactive)
REMARK    1  A    between atoms: N_1  and  C_2
REMARK    2  A    between atoms: N_5  and  C_6
REMARK                            x       y       z     vdW  Elec       q    Type
REMARK                         _______ _______ _______ _____ _____    ______ ____
ROOT
ATOM      1  C   UNL     1       4.425   3.909  18.122  0.00  0.00    +0.000 C 
ATOM      2  C   UNL     1       4.075   5.185  17.370  0.00  0.00    +0.000 C 
ATOM      3  C   UNL     1       3.991   6.348  18.346  0.00  0.00    +0.000 C 
ATOM      4  N   UNL     1       2.875   6.137  19.286  0.00  0.00    +0.000 N 
ATOM      5  C   UNL     1       2.855   4.850  19.908  0.00  0.00    +0.000 A 
ATOM      6  C   UNL     1       2.116   4.612  21.083  0.00  0.00    +0.000 A 
ATOM      7  C   UNL     1       2.060   3.352  21.686  0.00  0.00    +0.000 A 
ATOM      8  C   UNL     1       2.769   2.293  21.143  0.00  0.00    +0.000 A 
ATOM      9  C   UNL     1       3.528   2.499  19.995  0.00  0.00    +0.000 A 
ATOM     10  C   UNL     1       3.579   3.763  19.370  0.00  0.00    +0.000 A 
ENDROOT
BRANCH   4  11
ATOM     11  C   UNL     1       2.137   7.286  19.655  0.00  0.00    +0.000 A 
ATOM     12  C   UNL     1       1.599   7.405  20.947  0.00  0.00    +0.000 A 
ATOM     13  C   UNL     1       0.942   8.565  21.367  0.00  0.00    +0.000 A 
ATOM     14  C   UNL     1       0.768   9.625  20.482  0.00  0.00    +0.000 A 
ATOM     15 CL   UNL     1      -0.033  11.039  21.063  0.00  0.00    +0.000 Cl
ATOM     16  C   UNL     1       1.244   9.513  19.173  0.00  0.00    +0.000 A 
ATOM     17 CL   UNL     1       1.053  10.777  18.008  0.00  0.00    +0.000 Cl
ATOM     18  C   UNL     1       1.920   8.355  18.769  0.00  0.00    +0.000 A 
ENDBRANCH   4  11
BRANCH   1  19
ATOM     19  N   UNL     1       5.857   3.900  18.443  0.00  0.00    +0.000 NA
ATOM     20  H   UNL     1       6.065   3.099  19.037  0.00  0.00    +0.000 HD
ATOM     21  H   UNL     1       6.084   4.728  18.992  0.00  0.00    +0.000 HD
ENDBRANCH   1  19
TORSDOF 2
ENDMDL
