MODEL 1
REMARK VINA RESULT:      -8.1      0.000      0.000
REMARK  Name = 
REMARK  7 active torsions:
REMARK  status: ('A' for Active; 'I' for Inactive)
REMARK    1  A    between atoms: C_1  and  C_2
REMARK    2  A    between atoms: C_4  and  C_5
REMARK    3  A    between atoms: C_10  and  C_12
REMARK    4  A    between atoms: N_17  and  C_18
REMARK    5  A    between atoms: C_21  and  C_22
REMARK    6  A    between atoms: N_23  and  C_24
REMARK    7  A    between atoms: C_24  and  C_25
REMARK                            x       y       z     vdW  Elec       q    Type
REMARK                         _______ _______ _______ _____ _____    ______ ____
ROOT
ATOM      1  C   UNL     1       0.744   9.377  18.796  0.00  0.00    +0.000 A 
ATOM      2  C   UNL     1      -0.040   9.791  17.735  0.00  0.00    +0.000 A 
ATOM      3  S   UNL     1      -1.255  10.874  18.296  0.00  0.00    +0.000 S 
ATOM      4  C   UNL     1      -0.599  10.746  19.862  0.00  0.00    +0.000 A 
ATOM      5  N   UNL     1      -1.186  11.522  20.812  0.00  0.00    +0.000 N 
ATOM      6  C   UNL     1      -0.631  11.630  22.068  0.00  0.00    +0.000 C 
ATOM      7  O   UNL     1       0.383  11.109  22.513  0.00  0.00    +0.000 OA
ATOM      8  N   UNL     1       0.407   9.930  20.010  0.00  0.00    +0.000 NA
ATOM      9  H   UNL     1      -2.006  12.067  20.581  0.00  0.00    +0.000 HD
ENDROOT
BRANCH   6  10
ATOM     10  C   UNL     1      -1.417  12.571  22.973  0.00  0.00    +0.000 A 
ATOM     11  C   UNL     1      -2.814  12.185  23.254  0.00  0.00    +0.000 A 
ATOM     12  C   UNL     1      -3.522  13.010  24.024  0.00  0.00    +0.000 A 
ATOM     13  C   UNL     1      -2.920  14.246  24.563  0.00  0.00    +0.000 A 
ATOM     14  O   UNL     1      -3.614  14.983  25.260  0.00  0.00    +0.000 OA
ATOM     15  N   UNL     1      -1.588  14.473  24.232  0.00  0.00    +0.000 N 
ATOM     16  C   UNL     1      -0.918  15.669  24.708  0.00  0.00    +0.000 C 
ATOM     17  N   UNL     1      -0.829  13.637  23.433  0.00  0.00    +0.000 NA
ENDBRANCH   6  10
BRANCH   1  21
ATOM     18  C   UNL     1       4.525   6.641  16.914  0.00  0.00    +0.000 C 
ATOM     19  C   UNL     1       3.538   7.200  17.875  0.00  0.00    +0.000 A 
ATOM     20  C   UNL     1       2.738   8.306  17.676  0.00  0.00    +0.000 A 
ATOM     21  C   UNL     1       1.836   8.396  18.754  0.00  0.00    +0.000 A 
ATOM     22  C   UNL     1       2.142   7.373  19.642  0.00  0.00    +0.000 A 
ATOM     23  C   UNL     1       1.470   6.996  20.923  0.00  0.00    +0.000 C 
ATOM     24  N   UNL     1       3.219   6.661  19.112  0.00  0.00    +0.000 N 
BRANCH  24  25
ATOM     25  C   UNL     1       3.739   5.409  19.665  0.00  0.00    +0.000 C 
BRANCH  25  26
ATOM     26  C   UNL     1       2.987   4.099  19.375  0.00  0.00    +0.000 C 
ATOM     27  C   UNL     1       2.039   4.095  18.191  0.00  0.00    +0.000 C 
ATOM     28  C   UNL     1       0.974   3.096  18.577  0.00  0.00    +0.000 C 
ATOM     29  C   UNL     1       1.060   2.989  20.084  0.00  0.00    +0.000 C 
ATOM     30  O   UNL     1       2.261   3.630  20.515  0.00  0.00    +0.000 OA
ENDBRANCH  25  26
ENDBRANCH  24  25
ENDBRANCH   1  21
TORSDOF 4
ENDMDL
MODEL 2
REMARK VINA RESULT:      -8.0      0.787      1.290
REMARK  Name = 
REMARK  7 active torsions:
REMARK  status: ('A' for Active; 'I' for Inactive)
REMARK    1  A    between atoms: C_1  and  C_2
REMARK    2  A    between atoms: C_4  and  C_5
REMARK    3  A    between atoms: C_10  and  C_12
REMARK    4  A    between atoms: N_17  and  C_18
REMARK    5  A    between atoms: C_21  and  C_22
REMARK    6  A    between atoms: N_23  and  C_24
REMARK    7  A    between atoms: C_24  and  C_25
REMARK                            x       y       z     vdW  Elec       q    Type
REMARK                         _______ _______ _______ _____ _____    ______ ____
ROOT
ATOM      1  C   UNL     1       0.849   9.227  18.694  0.00  0.00    +0.000 A 
ATOM      2  C   UNL     1       0.088   9.634  17.613  0.00  0.00    +0.000 A 
ATOM      3  S   UNL     1      -1.143  10.715  18.142  0.00  0.00    +0.000 S 
ATOM      4  C   UNL     1      -0.522  10.596  19.722  0.00  0.00    +0.000 A 
ATOM      5  N   UNL     1      -1.134  11.374  20.655  0.00  0.00    +0.000 N 
ATOM      6  C   UNL     1      -0.608  11.490  21.923  0.00  0.00    +0.000 C 
ATOM      7  O   UNL     1       0.398  10.976  22.393  0.00  0.00    +0.000 OA
ATOM      8  N   UNL     1       0.482   9.785  19.897  0.00  0.00    +0.000 NA
ATOM      9  H   UNL     1      -1.950  11.916  20.403  0.00  0.00    +0.000 HD
ENDROOT
BRANCH   6  10
ATOM     10  C   UNL     1      -1.418  12.433  22.806  0.00  0.00    +0.000 A 
ATOM     11  C   UNL     1      -0.828  13.765  23.044  0.00  0.00    +0.000 A 
ATOM     12  C   UNL     1      -1.512  14.592  23.833  0.00  0.00    +0.000 A 
ATOM     13  C   UNL     1      -2.798  14.180  24.430  0.00  0.00    +0.000 A 
ATOM     14  O   UNL     1      -3.389  14.971  25.161  0.00  0.00    +0.000 OA
ATOM     15  N   UNL     1      -3.242  12.903  24.103  0.00  0.00    +0.000 N 
ATOM     16  C   UNL     1      -4.491  12.408  24.654  0.00  0.00    +0.000 C 
ATOM     17  N   UNL     1      -2.553  12.021  23.290  0.00  0.00    +0.000 NA
ENDBRANCH   6  10
BRANCH   1  21
ATOM     18  C   UNL     1       4.694   6.510  16.917  0.00  0.00    +0.000 C 
ATOM     19  C   UNL     1       3.677   7.063  17.850  0.00  0.00    +0.000 A 
ATOM     20  C   UNL     1       2.880   8.167  17.631  0.00  0.00    +0.000 A 
ATOM     21  C   UNL     1       1.946   8.250  18.682  0.00  0.00    +0.000 A 
ATOM     22  C   UNL     1       2.230   7.226  19.576  0.00  0.00    +0.000 A 
ATOM     23  C   UNL     1       1.521   6.843  20.836  0.00  0.00    +0.000 C 
ATOM     24  N   UNL     1       3.324   6.519  19.076  0.00  0.00    +0.000 N 
BRANCH  24  25
ATOM     25  C   UNL     1       3.832   5.268  19.640  0.00  0.00    +0.000 C 
BRANCH  25  26
ATOM     26  C   UNL     1       3.061   3.964  19.373  0.00  0.00    +0.000 C 
ATOM     27  C   UNL     1       2.059   3.976  18.234  0.00  0.00    +0.000 C 
ATOM     28  C   UNL     1       1.008   2.978  18.660  0.00  0.00    +0.000 C 
ATOM     29  C   UNL     1       1.163   2.857  20.160  0.00  0.00    +0.000 C 
ATOM     30  O   UNL     1       2.386   3.488  20.541  0.00  0.00    +0.000 OA
ENDBRANCH  25  26
ENDBRANCH  24  25
ENDBRANCH   1  21
TORSDOF 4
ENDMDL
MODEL 3
REMARK VINA RESULT:      -8.0      1.174      1.895
REMARK  Name = 
REMARK  7 active torsions:
REMARK  status: ('A' for Active; 'I' for Inactive)
REMARK    1  A    between atoms: C_1  and  C_2
REMARK    2  A    between atoms: C_4  and  C_5
REMARK    3  A    between atoms: C_10  and  C_12
REMARK    4  A    between atoms: N_17  and  C_18
REMARK    5  A    between atoms: C_21  and  C_22
REMARK    6  A    between atoms: N_23  and  C_24
REMARK    7  A    between atoms: C_24  and  C_25
REMARK                            x       y       z     vdW  Elec       q    Type
REMARK                         _______ _______ _______ _____ _____    ______ ____
ROOT
ATOM      1  C   UNL     1       1.184   8.969  19.406  0.00  0.00    +0.000 A 
ATOM      2  C   UNL     1       1.096   9.736  18.258  0.00  0.00    +0.000 A 
ATOM      3  S   UNL     1       0.168  11.151  18.573  0.00  0.00    +0.000 S 
ATOM      4  C   UNL     1       0.024  10.655  20.196  0.00  0.00    +0.000 A 
ATOM      5  N   UNL     1      -0.631  11.517  21.019  0.00  0.00    +0.000 N 
ATOM      6  C   UNL     1      -0.656  11.302  22.379  0.00  0.00    +0.000 C 
ATOM      7  O   UNL     1      -0.145  10.400  23.029  0.00  0.00    +0.000 OA
ATOM      8  N   UNL     1       0.560   9.508  20.507  0.00  0.00    +0.000 NA
ATOM      9  H   UNL     1      -1.059  12.350  20.638  0.00  0.00    +0.000 HD
ENDROOT
BRANCH   6  10
ATOM     10  C   UNL     1      -1.410  12.396  23.128  0.00  0.00    +0.000 A 
ATOM     11  C   UNL     1      -2.823  12.109  23.444  0.00  0.00    +0.000 A 
ATOM     12  C   UNL     1      -3.503  13.064  24.076  0.00  0.00    +0.000 A 
ATOM     13  C   UNL     1      -2.855  14.341  24.439  0.00  0.00    +0.000 A 
ATOM     14  O   UNL     1      -3.523  15.198  25.012  0.00  0.00    +0.000 OA
ATOM     15  N   UNL     1      -1.513  14.465  24.096  0.00  0.00    +0.000 N 
ATOM     16  C   UNL     1      -0.798  15.691  24.402  0.00  0.00    +0.000 C 
ATOM     17  N   UNL     1      -0.783  13.493  23.437  0.00  0.00    +0.000 NA
ENDBRANCH   6  10
BRANCH   1  21
ATOM     18  C   UNL     1       2.407   4.530  21.436  0.00  0.00    +0.000 C 
ATOM     19  C   UNL     1       2.332   5.663  20.477  0.00  0.00    +0.000 A 
ATOM     20  C   UNL     1       1.451   6.723  20.530  0.00  0.00    +0.000 A 
ATOM     21  C   UNL     1       1.822   7.653  19.539  0.00  0.00    +0.000 A 
ATOM     22  C   UNL     1       2.894   7.114  18.840  0.00  0.00    +0.000 A 
ATOM     23  C   UNL     1       3.689   7.704  17.720  0.00  0.00    +0.000 C 
ATOM     24  N   UNL     1       3.180   5.868  19.400  0.00  0.00    +0.000 N 
BRANCH  24  25
ATOM     25  C   UNL     1       4.344   5.050  19.053  0.00  0.00    +0.000 C 
BRANCH  25  26
ATOM     26  C   UNL     1       4.127   3.738  18.281  0.00  0.00    +0.000 C 
ATOM     27  C   UNL     1       2.832   3.601  17.502  0.00  0.00    +0.000 C 
ATOM     28  C   UNL     1       2.551   2.117  17.516  0.00  0.00    +0.000 C 
ATOM     29  C   UNL     1       3.347   1.575  18.683  0.00  0.00    +0.000 C 
ATOM     30  O   UNL     1       4.251   2.589  19.124  0.00  0.00    +0.000 OA
ENDBRANCH  25  26
ENDBRANCH  24  25
ENDBRANCH   1  21
TORSDOF 4
ENDMDL
MODEL 4
REMARK VINA RESULT:      -8.0      1.469      2.338
REMARK  Name = 
REMARK  7 active torsions:
REMARK  status: ('A' for Active; 'I' for Inactive)
REMARK    1  A    between atoms: C_1  and  C_2
REMARK    2  A    between atoms: C_4  and  C_5
REMARK    3  A    between atoms: C_10  and  C_12
REMARK    4  A    between atoms: N_17  and  C_18
REMARK    5  A    between atoms: C_21  and  C_22
REMARK    6  A    between atoms: N_23  and  C_24
REMARK    7  A    between atoms: C_24  and  C_25
REMARK                            x       y       z     vdW  Elec       q    Type
REMARK                         _______ _______ _______ _____ _____    ______ ____
ROOT
ATOM      1  C   UNL     1       1.255   8.942  19.432  0.00  0.00    +0.000 A 
ATOM      2  C   UNL     1       1.302   9.786  18.337  0.00  0.00    +0.000 A 
ATOM      3  S   UNL     1       0.350  11.187  18.641  0.00  0.00    +0.000 S 
ATOM      4  C   UNL     1       0.021  10.586  20.199  0.00  0.00    +0.000 A 
ATOM      5  N   UNL     1      -0.720  11.398  20.999  0.00  0.00    +0.000 N 
ATOM      6  C   UNL     1      -0.900  11.093  22.330  0.00  0.00    +0.000 C 
ATOM      7  O   UNL     1      -0.471  10.143  22.971  0.00  0.00    +0.000 OA
ATOM      8  N   UNL     1       0.512   9.414  20.490  0.00  0.00    +0.000 NA
ATOM      9  H   UNL     1      -1.098  12.261  20.630  0.00  0.00    +0.000 HD
ENDROOT
BRANCH   6  10
ATOM     10  C   UNL     1      -1.729  12.143  23.062  0.00  0.00    +0.000 A 
ATOM     11  C   UNL     1      -1.099  13.468  23.225  0.00  0.00    +0.000 A 
ATOM     12  C   UNL     1      -1.801  14.389  23.884  0.00  0.00    +0.000 A 
ATOM     13  C   UNL     1      -3.144  14.082  24.415  0.00  0.00    +0.000 A 
ATOM     14  O   UNL     1      -3.750  14.959  25.025  0.00  0.00    +0.000 OA
ATOM     15  N   UNL     1      -3.620  12.798  24.170  0.00  0.00    +0.000 N 
ATOM     16  C   UNL     1      -4.926  12.403  24.665  0.00  0.00    +0.000 C 
ATOM     17  N   UNL     1      -2.914  11.820  23.492  0.00  0.00    +0.000 NA
ENDBRANCH   6  10
BRANCH   1  21
ATOM     18  C   UNL     1       2.393   4.452  21.401  0.00  0.00    +0.000 C 
ATOM     19  C   UNL     1       2.340   5.600  20.458  0.00  0.00    +0.000 A 
ATOM     20  C   UNL     1       1.479   6.676  20.525  0.00  0.00    +0.000 A 
ATOM     21  C   UNL     1       1.867   7.612  19.547  0.00  0.00    +0.000 A 
ATOM     22  C   UNL     1       2.928   7.062  18.839  0.00  0.00    +0.000 A 
ATOM     23  C   UNL     1       3.733   7.652  17.726  0.00  0.00    +0.000 C 
ATOM     24  N   UNL     1       3.191   5.803  19.382  0.00  0.00    +0.000 N 
BRANCH  24  25
ATOM     25  C   UNL     1       4.338   4.968  19.023  0.00  0.00    +0.000 C 
BRANCH  25  26
ATOM     26  C   UNL     1       4.094   3.666  18.240  0.00  0.00    +0.000 C 
ATOM     27  C   UNL     1       2.779   3.546  17.493  0.00  0.00    +0.000 C 
ATOM     28  C   UNL     1       2.490   2.064  17.496  0.00  0.00    +0.000 C 
ATOM     29  C   UNL     1       3.313   1.503  18.635  0.00  0.00    +0.000 C 
ATOM     30  O   UNL     1       4.234   2.506  19.065  0.00  0.00    +0.000 OA
ENDBRANCH  25  26
ENDBRANCH  24  25
ENDBRANCH   1  21
TORSDOF 4
ENDMDL
MODEL 5
REMARK VINA RESULT:      -7.7      3.466      5.409
REMARK  Name = 
REMARK  7 active torsions:
REMARK  status: ('A' for Active; 'I' for Inactive)
REMARK    1  A    between atoms: C_1  and  C_2
REMARK    2  A    between atoms: C_4  and  C_5
REMARK    3  A    between atoms: C_10  and  C_12
REMARK    4  A    between atoms: N_17  and  C_18
REMARK    5  A    between atoms: C_21  and  C_22
REMARK    6  A    between atoms: N_23  and  C_24
REMARK    7  A    between atoms: C_24  and  C_25
REMARK                            x       y       z     vdW  Elec       q    Type
REMARK                         _______ _______ _______ _____ _____    ______ ____
ROOT
ATOM      1  C   UNL     1       3.347   5.262  19.317  0.00  0.00    +0.000 A 
ATOM      2  C   UNL     1       2.612   4.201  19.815  0.00  0.00    +0.000 A 
ATOM      3  S   UNL     1       1.327   4.793  20.797  0.00  0.00    +0.000 S 
ATOM      4  C   UNL     1       1.819   6.380  20.424  0.00  0.00    +0.000 A 
ATOM      5  N   UNL     1       1.041   7.372  20.934  0.00  0.00    +0.000 N 
ATOM      6  C   UNL     1       1.240   8.681  20.556  0.00  0.00    +0.000 C 
ATOM      7  O   UNL     1       2.060   9.145  19.773  0.00  0.00    +0.000 OA
ATOM      8  N   UNL     1       2.881   6.504  19.680  0.00  0.00    +0.000 NA
ATOM      9  H   UNL     1       0.275   7.144  21.554  0.00  0.00    +0.000 HD
ENDROOT
BRANCH   6  10
ATOM     10  C   UNL     1       0.247   9.635  21.210  0.00  0.00    +0.000 A 
ATOM     11  C   UNL     1      -0.003   9.424  22.650  0.00  0.00    +0.000 A 
ATOM     12  C   UNL     1      -0.888  10.233  23.231  0.00  0.00    +0.000 A 
ATOM     13  C   UNL     1      -1.573  11.287  22.456  0.00  0.00    +0.000 A 
ATOM     14  O   UNL     1      -2.389  12.004  23.031  0.00  0.00    +0.000 OA
ATOM     15  N   UNL     1      -1.225  11.383  21.113  0.00  0.00    +0.000 N 
ATOM     16  C   UNL     1      -1.857  12.383  20.271  0.00  0.00    +0.000 C 
ATOM     17  N   UNL     1      -0.313  10.556  20.482  0.00  0.00    +0.000 NA
ENDBRANCH   6  10
BRANCH   1  21
ATOM     18  C   UNL     1       7.625   6.737  17.116  0.00  0.00    +0.000 C 
ATOM     19  C   UNL     1       6.490   5.880  17.546  0.00  0.00    +0.000 A 
ATOM     20  C   UNL     1       5.562   6.179  18.522  0.00  0.00    +0.000 A 
ATOM     21  C   UNL     1       4.566   5.182  18.503  0.00  0.00    +0.000 A 
ATOM     22  C   UNL     1       4.937   4.240  17.552  0.00  0.00    +0.000 A 
ATOM     23  C   UNL     1       4.216   3.008  17.108  0.00  0.00    +0.000 C 
ATOM     24  N   UNL     1       6.145   4.657  16.991  0.00  0.00    +0.000 N 
BRANCH  24  25
ATOM     25  C   UNL     1       6.787   4.023  15.838  0.00  0.00    +0.000 C 
BRANCH  25  26
ATOM     26  C   UNL     1       6.571   4.630  14.441  0.00  0.00    +0.000 C 
ATOM     27  C   UNL     1       6.204   3.674  13.322  0.00  0.00    +0.000 C 
ATOM     28  C   UNL     1       6.780   4.320  12.084  0.00  0.00    +0.000 C 
ATOM     29  C   UNL     1       7.844   5.268  12.591  0.00  0.00    +0.000 C 
ATOM     30  O   UNL     1       7.699   5.397  14.006  0.00  0.00    +0.000 OA
ENDBRANCH  25  26
ENDBRANCH  24  25
ENDBRANCH   1  21
TORSDOF 4
ENDMDL
MODEL 6
REMARK VINA RESULT:      -7.6      1.909      3.129
REMARK  Name = 
REMARK  7 active torsions:
REMARK  status: ('A' for Active; 'I' for Inactive)
REMARK    1  A    between atoms: C_1  and  C_2
REMARK    2  A    between atoms: C_4  and  C_5
REMARK    3  A    between atoms: C_10  and  C_12
REMARK    4  A    between atoms: N_17  and  C_18
REMARK    5  A    between atoms: C_21  and  C_22
REMARK    6  A    between atoms: N_23  and  C_24
REMARK    7  A    between atoms: C_24  and  C_25
REMARK                            x       y       z     vdW  Elec       q    Type
REMARK                         _______ _______ _______ _____ _____    ______ ____
ROOT
ATOM      1  C   UNL     1       1.354   8.923  19.494  0.00  0.00    +0.000 A 
ATOM      2  C   UNL     1       1.556   9.827  18.467  0.00  0.00    +0.000 A 
ATOM      3  S   UNL     1       0.676  11.272  18.782  0.00  0.00    +0.000 S 
ATOM      4  C   UNL     1       0.167  10.601  20.261  0.00  0.00    +0.000 A 
ATOM      5  N   UNL     1      -0.588  11.414  21.048  0.00  0.00    +0.000 N 
ATOM      6  C   UNL     1      -0.908  11.041  22.334  0.00  0.00    +0.000 C 
ATOM      7  O   UNL     1      -0.602  10.024  22.944  0.00  0.00    +0.000 OA
ATOM      8  N   UNL     1       0.551   9.381  20.513  0.00  0.00    +0.000 NA
ATOM      9  H   UNL     1      -0.873  12.322  20.707  0.00  0.00    +0.000 HD
ENDROOT
BRANCH   6  10
ATOM     10  C   UNL     1      -1.728  12.100  23.061  0.00  0.00    +0.000 A 
ATOM     11  C   UNL     1      -1.102  13.431  23.188  0.00  0.00    +0.000 A 
ATOM     12  C   UNL     1      -1.795  14.361  23.843  0.00  0.00    +0.000 A 
ATOM     13  C   UNL     1      -3.127  14.058  24.404  0.00  0.00    +0.000 A 
ATOM     14  O   UNL     1      -3.727  14.944  25.009  0.00  0.00    +0.000 OA
ATOM     15  N   UNL     1      -3.601  12.768  24.191  0.00  0.00    +0.000 N 
ATOM     16  C   UNL     1      -4.896  12.376  24.718  0.00  0.00    +0.000 C 
ATOM     17  N   UNL     1      -2.903  11.781  23.520  0.00  0.00    +0.000 NA
ENDBRANCH   6  10
BRANCH   1  21
ATOM     18  C   UNL     1       2.281   4.360  21.403  0.00  0.00    +0.000 C 
ATOM     19  C   UNL     1       2.245   5.507  20.458  0.00  0.00    +0.000 A 
ATOM     20  C   UNL     1       1.482   6.649  20.585  0.00  0.00    +0.000 A 
ATOM     21  C   UNL     1       1.864   7.548  19.570  0.00  0.00    +0.000 A 
ATOM     22  C   UNL     1       2.816   6.912  18.785  0.00  0.00    +0.000 A 
ATOM     23  C   UNL     1       3.574   7.432  17.605  0.00  0.00    +0.000 C 
ATOM     24  N   UNL     1       3.020   5.637  19.315  0.00  0.00    +0.000 N 
BRANCH  24  25
ATOM     25  C   UNL     1       4.063   4.710  18.873  0.00  0.00    +0.000 C 
BRANCH  25  26
ATOM     26  C   UNL     1       5.433   5.275  18.461  0.00  0.00    +0.000 C 
ATOM     27  C   UNL     1       6.249   4.459  17.476  0.00  0.00    +0.000 C 
ATOM     28  C   UNL     1       7.681   4.780  17.832  0.00  0.00    +0.000 C 
ATOM     29  C   UNL     1       7.629   5.300  19.252  0.00  0.00    +0.000 C 
ATOM     30  O   UNL     1       6.265   5.551  19.592  0.00  0.00    +0.000 OA
ENDBRANCH  25  26
ENDBRANCH  24  25
ENDBRANCH   1  21
TORSDOF 4
ENDMDL
MODEL 7
REMARK VINA RESULT:      -7.5      3.830      5.077
REMARK  Name = 
REMARK  7 active torsions:
REMARK  status: ('A' for Active; 'I' for Inactive)
REMARK    1  A    between atoms: C_1  and  C_2
REMARK    2  A    between atoms: C_4  and  C_5
REMARK    3  A    between atoms: C_10  and  C_12
REMARK    4  A    between atoms: N_17  and  C_18
REMARK    5  A    between atoms: C_21  and  C_22
REMARK    6  A    between atoms: N_23  and  C_24
REMARK    7  A    between atoms: C_24  and  C_25
REMARK                            x       y       z     vdW  Elec       q    Type
REMARK                         _______ _______ _______ _____ _____    ______ ____
ROOT
ATOM      1  C   UNL     1       1.284   8.394  20.412  0.00  0.00    +0.000 A 
ATOM      2  C   UNL     1       0.419   8.569  21.477  0.00  0.00    +0.000 A 
ATOM      3  S   UNL     1       0.141  10.248  21.732  0.00  0.00    +0.000 S 
ATOM      4  C   UNL     1       1.128  10.582  20.386  0.00  0.00    +0.000 A 
ATOM      5  N   UNL     1       1.231  11.894  20.043  0.00  0.00    +0.000 N 
ATOM      6  C   UNL     1       1.858  12.263  18.873  0.00  0.00    +0.000 C 
ATOM      7  O   UNL     1       2.377  11.559  18.018  0.00  0.00    +0.000 OA
ATOM      8  N   UNL     1       1.684   9.560  19.800  0.00  0.00    +0.000 NA
ATOM      9  H   UNL     1       0.798  12.602  20.621  0.00  0.00    +0.000 HD
ENDROOT
BRANCH   6  10
ATOM     10  C   UNL     1       1.839  13.772  18.653  0.00  0.00    +0.000 A 
ATOM     11  C   UNL     1       3.100  14.374  18.178  0.00  0.00    +0.000 A 
ATOM     12  C   UNL     1       3.107  15.694  18.004  0.00  0.00    +0.000 A 
ATOM     13  C   UNL     1       1.900  16.501  18.275  0.00  0.00    +0.000 A 
ATOM     14  O   UNL     1       1.955  17.717  18.111  0.00  0.00    +0.000 OA
ATOM     15  N   UNL     1       0.777  15.797  18.699  0.00  0.00    +0.000 N 
ATOM     16  C   UNL     1      -0.451  16.508  19.001  0.00  0.00    +0.000 C 
ATOM     17  N   UNL     1       0.741  14.428  18.892  0.00  0.00    +0.000 NA
ENDBRANCH   6  10
BRANCH   1  21
ATOM     18  C   UNL     1       2.754   3.582  20.475  0.00  0.00    +0.000 C 
ATOM     19  C   UNL     1       2.465   4.956  19.988  0.00  0.00    +0.000 A 
ATOM     20  C   UNL     1       1.725   5.918  20.644  0.00  0.00    +0.000 A 
ATOM     21  C   UNL     1       1.832   7.123  19.922  0.00  0.00    +0.000 A 
ATOM     22  C   UNL     1       2.585   6.864  18.785  0.00  0.00    +0.000 A 
ATOM     23  C   UNL     1       3.027   7.800  17.706  0.00  0.00    +0.000 C 
ATOM     24  N   UNL     1       2.941   5.515  18.812  0.00  0.00    +0.000 N 
BRANCH  24  25
ATOM     25  C   UNL     1       3.872   4.882  17.875  0.00  0.00    +0.000 C 
BRANCH  25  26
ATOM     26  C   UNL     1       5.306   4.580  18.343  0.00  0.00    +0.000 C 
ATOM     27  C   UNL     1       6.008   5.653  19.154  0.00  0.00    +0.000 C 
ATOM     28  C   UNL     1       7.470   5.465  18.823  0.00  0.00    +0.000 C 
ATOM     29  C   UNL     1       7.484   4.708  17.514  0.00  0.00    +0.000 C 
ATOM     30  O   UNL     1       6.165   4.226  17.254  0.00  0.00    +0.000 OA
ENDBRANCH  25  26
ENDBRANCH  24  25
ENDBRANCH   1  21
TORSDOF 4
ENDMDL
MODEL 8
REMARK VINA RESULT:      -7.5      3.679      4.684
REMARK  Name = 
REMARK  7 active torsions:
REMARK  status: ('A' for Active; 'I' for Inactive)
REMARK    1  A    between atoms: C_1  and  C_2
REMARK    2  A    between atoms: C_4  and  C_5
REMARK    3  A    between atoms: C_10  and  C_12
REMARK    4  A    between atoms: N_17  and  C_18
REMARK    5  A    between atoms: C_21  and  C_22
REMARK    6  A    between atoms: N_23  and  C_24
REMARK    7  A    between atoms: C_24  and  C_25
REMARK                            x       y       z     vdW  Elec       q    Type
REMARK                         _______ _______ _______ _____ _____    ______ ____
ROOT
ATOM      1  C   UNL     1       1.341   8.694  19.806  0.00  0.00    +0.000 A 
ATOM      2  C   UNL     1       1.380   9.098  21.129  0.00  0.00    +0.000 A 
ATOM      3  S   UNL     1       0.102  10.208  21.436  0.00  0.00    +0.000 S 
ATOM      4  C   UNL     1      -0.417  10.004  19.827  0.00  0.00    +0.000 A 
ATOM      5  N   UNL     1      -1.553  10.670  19.486  0.00  0.00    +0.000 N 
ATOM      6  C   UNL     1      -2.158  10.443  18.270  0.00  0.00    +0.000 C 
ATOM      7  O   UNL     1      -1.827   9.681  17.372  0.00  0.00    +0.000 OA
ATOM      8  N   UNL     1       0.307   9.227  19.073  0.00  0.00    +0.000 NA
ATOM      9  H   UNL     1      -1.989  11.297  20.150  0.00  0.00    +0.000 HD
ENDROOT
BRANCH   6  10
ATOM     10  C   UNL     1      -3.435  11.257  18.093  0.00  0.00    +0.000 A 
ATOM     11  C   UNL     1      -4.043  11.226  16.748  0.00  0.00    +0.000 A 
ATOM     12  C   UNL     1      -5.145  11.953  16.570  0.00  0.00    +0.000 A 
ATOM     13  C   UNL     1      -5.718  12.743  17.678  0.00  0.00    +0.000 A 
ATOM     14  O   UNL     1      -6.730  13.407  17.466  0.00  0.00    +0.000 OA
ATOM     15  N   UNL     1      -5.051  12.663  18.896  0.00  0.00    +0.000 N 
ATOM     16  C   UNL     1      -5.536  13.415  20.038  0.00  0.00    +0.000 C 
ATOM     17  N   UNL     1      -3.904  11.920  19.110  0.00  0.00    +0.000 NA
ENDBRANCH   6  10
BRANCH   1  21
ATOM     18  C   UNL     1       4.488   7.046  16.241  0.00  0.00    +0.000 C 
ATOM     19  C   UNL     1       3.715   7.118  17.509  0.00  0.00    +0.000 A 
ATOM     20  C   UNL     1       3.025   8.213  17.986  0.00  0.00    +0.000 A 
ATOM     21  C   UNL     1       2.300   7.814  19.126  0.00  0.00    +0.000 A 
ATOM     22  C   UNL     1       2.613   6.484  19.375  0.00  0.00    +0.000 A 
ATOM     23  C   UNL     1       2.090   5.570  20.437  0.00  0.00    +0.000 C 
ATOM     24  N   UNL     1       3.517   6.071  18.396  0.00  0.00    +0.000 N 
BRANCH  24  25
ATOM     25  C   UNL     1       3.967   4.690  18.211  0.00  0.00    +0.000 C 
BRANCH  25  26
ATOM     26  C   UNL     1       5.461   4.366  18.381  0.00  0.00    +0.000 C 
ATOM     27  C   UNL     1       6.284   5.325  19.220  0.00  0.00    +0.000 C 
ATOM     28  C   UNL     1       7.670   5.236  18.625  0.00  0.00    +0.000 C 
ATOM     29  C   UNL     1       7.467   4.686  17.231  0.00  0.00    +0.000 C 
ATOM     30  O   UNL     1       6.125   4.208  17.123  0.00  0.00    +0.000 OA
ENDBRANCH  25  26
ENDBRANCH  24  25
ENDBRANCH   1  21
TORSDOF 4
ENDMDL
MODEL 9
REMARK VINA RESULT:      -7.5      1.176      1.333
REMARK  Name = 
REMARK  7 active torsions:
REMARK  status: ('A' for Active; 'I' for Inactive)
REMARK    1  A    between atoms: C_1  and  C_2
REMARK    2  A    between atoms: C_4  and  C_5
REMARK    3  A    between atoms: C_10  and  C_12
REMARK    4  A    between atoms: N_17  and  C_18
REMARK    5  A    between atoms: C_21  and  C_22
REMARK    6  A    between atoms: N_23  and  C_24
REMARK    7  A    between atoms: C_24  and  C_25
REMARK                            x       y       z     vdW  Elec       q    Type
REMARK                         _______ _______ _______ _____ _____    ______ ____
ROOT
ATOM      1  C   UNL     1       0.024  10.180  19.048  0.00  0.00    +0.000 A 
ATOM      2  C   UNL     1      -0.809  10.549  18.008  0.00  0.00    +0.000 A 
ATOM      3  S   UNL     1      -1.967  11.694  18.567  0.00  0.00    +0.000 S 
ATOM      4  C   UNL     1      -1.227  11.644  20.099  0.00  0.00    +0.000 A 
ATOM      5  N   UNL     1      -1.743  12.490  21.030  0.00  0.00    +0.000 N 
ATOM      6  C   UNL     1      -1.116  12.660  22.244  0.00  0.00    +0.000 C 
ATOM      7  O   UNL     1      -0.089  12.143  22.664  0.00  0.00    +0.000 OA
ATOM      8  N   UNL     1      -0.232  10.814  20.242  0.00  0.00    +0.000 NA
ATOM      9  H   UNL     1      -2.563  13.041  20.811  0.00  0.00    +0.000 HD
ENDROOT
BRANCH   6  10
ATOM     10  C   UNL     1      -1.830  13.674  23.132  0.00  0.00    +0.000 A 
ATOM     11  C   UNL     1      -3.246  13.935  22.809  0.00  0.00    +0.000 A 
ATOM     12  C   UNL     1      -3.877  14.837  23.559  0.00  0.00    +0.000 A 
ATOM     13  C   UNL     1      -3.177  15.529  24.660  0.00  0.00    +0.000 A 
ATOM     14  O   UNL     1      -3.796  16.361  25.320  0.00  0.00    +0.000 OA
ATOM     15  N   UNL     1      -1.849  15.169  24.863  0.00  0.00    +0.000 N 
ATOM     16  C   UNL     1      -1.079  15.807  25.914  0.00  0.00    +0.000 C 
ATOM     17  N   UNL     1      -1.167  14.240  24.098  0.00  0.00    +0.000 NA
ENDBRANCH   6  10
BRANCH   1  21
ATOM     18  C   UNL     1       3.604   7.212  17.125  0.00  0.00    +0.000 C 
ATOM     19  C   UNL     1       2.700   7.868  18.106  0.00  0.00    +0.000 A 
ATOM     20  C   UNL     1       1.910   8.976  17.877  0.00  0.00    +0.000 A 
ATOM     21  C   UNL     1       1.091   9.172  19.007  0.00  0.00    +0.000 A 
ATOM     22  C   UNL     1       1.442   8.215  19.950  0.00  0.00    +0.000 A 
ATOM     23  C   UNL     1       0.858   7.957  21.302  0.00  0.00    +0.000 C 
ATOM     24  N   UNL     1       2.463   7.437  19.402  0.00  0.00    +0.000 N 
BRANCH  24  25
ATOM     25  C   UNL     1       2.998   6.220  20.015  0.00  0.00    +0.000 C 
BRANCH  25  26
ATOM     26  C   UNL     1       2.341   4.869  19.683  0.00  0.00    +0.000 C 
ATOM     27  C   UNL     1       1.141   4.462  20.516  0.00  0.00    +0.000 C 
ATOM     28  C   UNL     1       1.197   2.953  20.528  0.00  0.00    +0.000 C 
ATOM     29  C   UNL     1       2.630   2.608  20.185  0.00  0.00    +0.000 C 
ATOM     30  O   UNL     1       3.280   3.790  19.716  0.00  0.00    +0.000 OA
ENDBRANCH  25  26
ENDBRANCH  24  25
ENDBRANCH   1  21
TORSDOF 4
ENDMDL
