MODEL 1
REMARK VINA RESULT:      -8.4      0.000      0.000
REMARK  Name = 
REMARK  3 active torsions:
REMARK  status: ('A' for Active; 'I' for Inactive)
REMARK    1  A    between atoms: C_4  and  C_5
REMARK    2  A    between atoms: N_16  and  C_17
REMARK    3  A    between atoms: C_17  and  C_18
REMARK                            x       y       z     vdW  Elec       q    Type
REMARK                         _______ _______ _______ _____ _____    ______ ____
ROOT
ATOM      1  O   UNL     1       3.615   2.357  19.073  0.00  0.00    +0.000 OA
ATOM      2  C   UNL     1       3.727   3.346  18.371  0.00  0.00    +0.000 C 
ATOM      3  C   UNL     1       4.288   3.296  16.968  0.00  0.00    +0.000 C 
ATOM      4  C   UNL     1       5.132   4.547  16.694  0.00  0.00    +0.000 C 
ATOM      5  C   UNL     1       4.272   5.823  16.867  0.00  0.00    +0.000 C 
ATOM      6  C   UNL     1       3.493   5.828  18.163  0.00  0.00    +0.000 A 
ATOM      7  N   UNL     1       3.023   7.031  18.612  0.00  0.00    +0.000 NA
ATOM      8  C   UNL     1       2.265   7.040  19.721  0.00  0.00    +0.000 A 
ATOM      9  N   UNL     1       1.750   8.260  20.156  0.00  0.00    +0.000 N 
ATOM     10  N   UNL     1       1.968   5.927  20.414  0.00  0.00    +0.000 NA
ATOM     11  C   UNL     1       2.475   4.764  19.971  0.00  0.00    +0.000 A 
ATOM     12  C   UNL     1       3.230   4.652  18.835  0.00  0.00    +0.000 A 
ATOM     13  H   UNL     1       2.451   8.983  20.073  0.00  0.00    +0.000 HD
ENDROOT
BRANCH   4  14
ATOM     14  C   UNL     1       5.782   4.484  15.320  0.00  0.00    +0.000 A 
ATOM     15  C   UNL     1       5.166   3.786  14.267  0.00  0.00    +0.000 A 
ATOM     16  C   UNL     1       5.755   3.726  13.003  0.00  0.00    +0.000 A 
ATOM     17  C   UNL     1       6.967   4.364  12.784  0.00  0.00    +0.000 A 
ATOM     18  F   UNL     1       7.528   4.312  11.569  0.00  0.00    +0.000 F 
ATOM     19  C   UNL     1       7.602   5.056  13.807  0.00  0.00    +0.000 A 
ATOM     20  C   UNL     1       7.013   5.117  15.074  0.00  0.00    +0.000 A 
ENDBRANCH   4  14
BRANCH   9  21
ATOM     21  C   UNL     1       0.970   8.205  21.397  0.00  0.00    +0.000 C 
BRANCH  21  22
ATOM     22  C   UNL     1       0.605   9.582  21.984  0.00  0.00    +0.000 C 
ATOM     23  C   UNL     1      -0.506   9.659  23.024  0.00  0.00    +0.000 C 
ATOM     24  C   UNL     1      -0.932  11.107  22.907  0.00  0.00    +0.000 C 
ATOM     25  C   UNL     1      -0.803  11.353  21.420  0.00  0.00    +0.000 C 
ATOM     26  O   UNL     1       0.250  10.508  20.937  0.00  0.00    +0.000 OA
ENDBRANCH  21  22
ENDBRANCH   9  21
TORSDOF 3
ENDMDL
MODEL 2
REMARK VINA RESULT:      -8.2      3.821      9.068
REMARK  Name = 
REMARK  3 active torsions:
REMARK  status: ('A' for Active; 'I' for Inactive)
REMARK    1  A    between atoms: C_4  and  C_5
REMARK    2  A    between atoms: N_16  and  C_17
REMARK    3  A    between atoms: C_17  and  C_18
REMARK                            x       y       z     vdW  Elec       q    Type
REMARK                         _______ _______ _______ _____ _____    ______ ____
ROOT
ATOM      1  O   UNL     1       2.553   3.435  19.233  0.00  0.00    +0.000 OA
ATOM      2  C   UNL     1       2.869   4.573  18.934  0.00  0.00    +0.000 C 
ATOM      3  C   UNL     1       2.471   5.778  19.756  0.00  0.00    +0.000 C 
ATOM      4  C   UNL     1       2.157   6.963  18.836  0.00  0.00    +0.000 C 
ATOM      5  C   UNL     1       3.391   7.309  17.966  0.00  0.00    +0.000 C 
ATOM      6  C   UNL     1       3.987   6.094  17.292  0.00  0.00    +0.000 A 
ATOM      7  N   UNL     1       4.804   6.306  16.216  0.00  0.00    +0.000 NA
ATOM      8  C   UNL     1       5.400   5.241  15.654  0.00  0.00    +0.000 A 
ATOM      9  N   UNL     1       6.267   5.461  14.585  0.00  0.00    +0.000 N 
ATOM     10  N   UNL     1       5.212   3.983  16.089  0.00  0.00    +0.000 NA
ATOM     11  C   UNL     1       4.374   3.801  17.124  0.00  0.00    +0.000 A 
ATOM     12  C   UNL     1       3.748   4.825  17.779  0.00  0.00    +0.000 A 
ATOM     13  H   UNL     1       5.879   6.153  13.959  0.00  0.00    +0.000 HD
ENDROOT
BRANCH   4  14
ATOM     14  C   UNL     1       1.669   8.165  19.629  0.00  0.00    +0.000 A 
ATOM     15  C   UNL     1       1.358   9.373  18.980  0.00  0.00    +0.000 A 
ATOM     16  C   UNL     1       0.907  10.480  19.700  0.00  0.00    +0.000 A 
ATOM     17  C   UNL     1       0.765  10.387  21.077  0.00  0.00    +0.000 A 
ATOM     18  F   UNL     1       0.325  11.447  21.767  0.00  0.00    +0.000 F 
ATOM     19  C   UNL     1       1.070   9.209  21.746  0.00  0.00    +0.000 A 
ATOM     20  C   UNL     1       1.523   8.098  21.026  0.00  0.00    +0.000 A 
ENDBRANCH   4  14
BRANCH   9  21
ATOM     21  C   UNL     1       6.848   4.252  13.990  0.00  0.00    +0.000 C 
BRANCH  21  22
ATOM     22  C   UNL     1       6.267   3.876  12.614  0.00  0.00    +0.000 C 
ATOM     23  C   UNL     1       4.760   3.684  12.487  0.00  0.00    +0.000 C 
ATOM     24  C   UNL     1       4.668   2.812  11.253  0.00  0.00    +0.000 C 
ATOM     25  C   UNL     1       5.878   1.917  11.409  0.00  0.00    +0.000 C 
ATOM     26  O   UNL     1       6.876   2.669  12.112  0.00  0.00    +0.000 OA
ENDBRANCH  21  22
ENDBRANCH   9  21
TORSDOF 3
ENDMDL
MODEL 3
REMARK VINA RESULT:      -7.9      4.097      5.807
REMARK  Name = 
REMARK  3 active torsions:
REMARK  status: ('A' for Active; 'I' for Inactive)
REMARK    1  A    between atoms: C_4  and  C_5
REMARK    2  A    between atoms: N_16  and  C_17
REMARK    3  A    between atoms: C_17  and  C_18
REMARK                            x       y       z     vdW  Elec       q    Type
REMARK                         _______ _______ _______ _____ _____    ______ ____
ROOT
ATOM      1  O   UNL     1       1.851   9.471  17.439  0.00  0.00    +0.000 OA
ATOM      2  C   UNL     1       1.869   8.849  18.486  0.00  0.00    +0.000 C 
ATOM      3  C   UNL     1       2.682   7.589  18.677  0.00  0.00    +0.000 C 
ATOM      4  C   UNL     1       1.914   6.595  19.555  0.00  0.00    +0.000 C 
ATOM      5  C   UNL     1       1.600   7.227  20.934  0.00  0.00    +0.000 C 
ATOM      6  C   UNL     1       0.991   8.606  20.816  0.00  0.00    +0.000 A 
ATOM      7  N   UNL     1       0.320   9.094  21.903  0.00  0.00    +0.000 NA
ATOM      8  C   UNL     1      -0.160  10.348  21.839  0.00  0.00    +0.000 A 
ATOM      9  N   UNL     1      -0.808  10.861  22.962  0.00  0.00    +0.000 N 
ATOM     10  N   UNL     1      -0.028  11.128  20.752  0.00  0.00    +0.000 NA
ATOM     11  C   UNL     1       0.603  10.608  19.686  0.00  0.00    +0.000 A 
ATOM     12  C   UNL     1       1.153   9.355  19.669  0.00  0.00    +0.000 A 
ATOM     13  H   UNL     1      -1.409  10.159  23.368  0.00  0.00    +0.000 HD
ENDROOT
BRANCH   4  14
ATOM     14  C   UNL     1       2.668   5.281  19.694  0.00  0.00    +0.000 A 
ATOM     15  C   UNL     1       2.182   4.261  20.531  0.00  0.00    +0.000 A 
ATOM     16  C   UNL     1       2.867   3.052  20.662  0.00  0.00    +0.000 A 
ATOM     17  C   UNL     1       4.045   2.854  19.956  0.00  0.00    +0.000 A 
ATOM     18  F   UNL     1       4.697   1.692  20.076  0.00  0.00    +0.000 F 
ATOM     19  C   UNL     1       4.552   3.846  19.127  0.00  0.00    +0.000 A 
ATOM     20  C   UNL     1       3.867   5.059  18.994  0.00  0.00    +0.000 A 
ENDBRANCH   4  14
BRANCH   9  21
ATOM     21  C   UNL     1      -1.347  12.217  22.809  0.00  0.00    +0.000 C 
BRANCH  21  22
ATOM     22  C   UNL     1      -2.885  12.296  22.816  0.00  0.00    +0.000 C 
ATOM     23  C   UNL     1      -3.545  13.655  22.612  0.00  0.00    +0.000 C 
ATOM     24  C   UNL     1      -4.906  13.429  23.235  0.00  0.00    +0.000 C 
ATOM     25  C   UNL     1      -4.569  12.539  24.412  0.00  0.00    +0.000 C 
ATOM     26  O   UNL     1      -3.421  11.762  24.044  0.00  0.00    +0.000 OA
ENDBRANCH  21  22
ENDBRANCH   9  21
TORSDOF 3
ENDMDL
MODEL 4
REMARK VINA RESULT:      -7.8      0.983      1.220
REMARK  Name = 
REMARK  3 active torsions:
REMARK  status: ('A' for Active; 'I' for Inactive)
REMARK    1  A    between atoms: C_4  and  C_5
REMARK    2  A    between atoms: N_16  and  C_17
REMARK    3  A    between atoms: C_17  and  C_18
REMARK                            x       y       z     vdW  Elec       q    Type
REMARK                         _______ _______ _______ _____ _____    ______ ____
ROOT
ATOM      1  O   UNL     1       2.960   2.847  19.788  0.00  0.00    +0.000 OA
ATOM      2  C   UNL     1       3.165   3.810  19.071  0.00  0.00    +0.000 C 
ATOM      3  C   UNL     1       3.808   3.696  17.707  0.00  0.00    +0.000 C 
ATOM      4  C   UNL     1       4.729   4.896  17.457  0.00  0.00    +0.000 C 
ATOM      5  C   UNL     1       3.925   6.217  17.545  0.00  0.00    +0.000 C 
ATOM      6  C   UNL     1       3.069   6.294  18.789  0.00  0.00    +0.000 A 
ATOM      7  N   UNL     1       2.634   7.531  19.179  0.00  0.00    +0.000 NA
ATOM      8  C   UNL     1       1.810   7.606  20.238  0.00  0.00    +0.000 A 
ATOM      9  N   UNL     1       1.332   8.861  20.611  0.00  0.00    +0.000 N 
ATOM     10  N   UNL     1       1.416   6.528  20.938  0.00  0.00    +0.000 NA
ATOM     11  C   UNL     1       1.890   5.330  20.555  0.00  0.00    +0.000 A 
ATOM     12  C   UNL     1       2.706   5.151  19.471  0.00  0.00    +0.000 A 
ATOM     13  H   UNL     1       2.072   9.546  20.555  0.00  0.00    +0.000 HD
ENDROOT
BRANCH   4  14
ATOM     14  C   UNL     1       5.458   4.765  16.129  0.00  0.00    +0.000 A 
ATOM     15  C   UNL     1       4.843   4.135  15.032  0.00  0.00    +0.000 A 
ATOM     16  C   UNL     1       5.505   4.013  13.809  0.00  0.00    +0.000 A 
ATOM     17  C   UNL     1       6.789   4.520  13.675  0.00  0.00    +0.000 A 
ATOM     18  F   UNL     1       7.421   4.409  12.500  0.00  0.00    +0.000 F 
ATOM     19  C   UNL     1       7.424   5.141  14.742  0.00  0.00    +0.000 A 
ATOM     20  C   UNL     1       6.763   5.264  15.968  0.00  0.00    +0.000 A 
ENDBRANCH   4  14
BRANCH   9  21
ATOM     21  C   UNL     1       0.475   8.877  21.801  0.00  0.00    +0.000 C 
BRANCH  21  22
ATOM     22  C   UNL     1      -0.563  10.016  21.825  0.00  0.00    +0.000 C 
ATOM     23  C   UNL     1      -0.744  10.862  20.570  0.00  0.00    +0.000 C 
ATOM     24  C   UNL     1      -1.348  12.127  21.142  0.00  0.00    +0.000 C 
ATOM     25  C   UNL     1      -0.613  12.260  22.458  0.00  0.00    +0.000 C 
ATOM     26  O   UNL     1      -0.293  10.935  22.903  0.00  0.00    +0.000 OA
ENDBRANCH  21  22
ENDBRANCH   9  21
TORSDOF 3
ENDMDL
MODEL 5
REMARK VINA RESULT:      -7.8      3.934      9.183
REMARK  Name = 
REMARK  3 active torsions:
REMARK  status: ('A' for Active; 'I' for Inactive)
REMARK    1  A    between atoms: C_4  and  C_5
REMARK    2  A    between atoms: N_16  and  C_17
REMARK    3  A    between atoms: C_17  and  C_18
REMARK                            x       y       z     vdW  Elec       q    Type
REMARK                         _______ _______ _______ _____ _____    ______ ____
ROOT
ATOM      1  O   UNL     1       4.173   3.365  19.165  0.00  0.00    +0.000 OA
ATOM      2  C   UNL     1       4.134   4.494  18.709  0.00  0.00    +0.000 C 
ATOM      3  C   UNL     1       3.528   5.660  19.458  0.00  0.00    +0.000 C 
ATOM      4  C   UNL     1       2.799   6.590  18.482  0.00  0.00    +0.000 C 
ATOM      5  C   UNL     1       3.780   7.115  17.405  0.00  0.00    +0.000 C 
ATOM      6  C   UNL     1       4.595   6.010  16.773  0.00  0.00    +0.000 A 
ATOM      7  N   UNL     1       5.190   6.273  15.570  0.00  0.00    +0.000 NA
ATOM      8  C   UNL     1       5.979   5.326  15.034  0.00  0.00    +0.000 A 
ATOM      9  N   UNL     1       6.620   5.610  13.829  0.00  0.00    +0.000 N 
ATOM     10  N   UNL     1       6.190   4.133  15.616  0.00  0.00    +0.000 NA
ATOM     11  C   UNL     1       5.562   3.888  16.778  0.00  0.00    +0.000 A 
ATOM     12  C   UNL     1       4.766   4.800  17.416  0.00  0.00    +0.000 A 
ATOM     13  H   UNL     1       5.988   6.090  13.203  0.00  0.00    +0.000 HD
ENDROOT
BRANCH   4  14
ATOM     14  C   UNL     1       2.104   7.727  19.217  0.00  0.00    +0.000 A 
ATOM     15  C   UNL     1       1.818   7.623  20.590  0.00  0.00    +0.000 A 
ATOM     16  C   UNL     1       1.182   8.662  21.272  0.00  0.00    +0.000 A 
ATOM     17  C   UNL     1       0.827   9.813  20.584  0.00  0.00    +0.000 A 
ATOM     18  F   UNL     1       0.225  10.813  21.240  0.00  0.00    +0.000 F 
ATOM     19  C   UNL     1       1.092   9.942  19.227  0.00  0.00    +0.000 A 
ATOM     20  C   UNL     1       1.729   8.901  18.541  0.00  0.00    +0.000 A 
ENDBRANCH   4  14
BRANCH   9  21
ATOM     21  C   UNL     1       7.429   4.518  13.277  0.00  0.00    +0.000 C 
BRANCH  21  22
ATOM     22  C   UNL     1       6.780   3.780  12.090  0.00  0.00    +0.000 C 
ATOM     23  C   UNL     1       5.367   3.231  12.259  0.00  0.00    +0.000 C 
ATOM     24  C   UNL     1       5.331   2.155  11.195  0.00  0.00    +0.000 C 
ATOM     25  C   UNL     1       6.738   1.601  11.258  0.00  0.00    +0.000 C 
ATOM     26  O   UNL     1       7.600   2.674  11.663  0.00  0.00    +0.000 OA
ENDBRANCH  21  22
ENDBRANCH   9  21
TORSDOF 3
ENDMDL
MODEL 6
REMARK VINA RESULT:      -7.8      2.497      3.632
REMARK  Name = 
REMARK  3 active torsions:
REMARK  status: ('A' for Active; 'I' for Inactive)
REMARK    1  A    between atoms: C_4  and  C_5
REMARK    2  A    between atoms: N_16  and  C_17
REMARK    3  A    between atoms: C_17  and  C_18
REMARK                            x       y       z     vdW  Elec       q    Type
REMARK                         _______ _______ _______ _____ _____    ______ ____
ROOT
ATOM      1  O   UNL     1       1.944   6.153  20.942  0.00  0.00    +0.000 OA
ATOM      2  C   UNL     1       2.223   6.586  19.838  0.00  0.00    +0.000 C 
ATOM      3  C   UNL     1       2.850   5.734  18.758  0.00  0.00    +0.000 C 
ATOM      4  C   UNL     1       3.862   6.561  17.957  0.00  0.00    +0.000 C 
ATOM      5  C   UNL     1       3.168   7.788  17.317  0.00  0.00    +0.000 C 
ATOM      6  C   UNL     1       2.325   8.561  18.307  0.00  0.00    +0.000 A 
ATOM      7  N   UNL     1       1.992   9.848  17.982  0.00  0.00    +0.000 NA
ATOM      8  C   UNL     1       1.181  10.520  18.817  0.00  0.00    +0.000 A 
ATOM      9  N   UNL     1       0.807  11.816  18.466  0.00  0.00    +0.000 N 
ATOM     10  N   UNL     1       0.705   9.993  19.958  0.00  0.00    +0.000 NA
ATOM     11  C   UNL     1       1.080   8.741  20.269  0.00  0.00    +0.000 A 
ATOM     12  C   UNL     1       1.875   7.968  19.468  0.00  0.00    +0.000 A 
ATOM     13  H   UNL     1       1.599  12.318  18.092  0.00  0.00    +0.000 HD
ENDROOT
BRANCH   4  14
ATOM     14  C   UNL     1       4.574   5.708  16.918  0.00  0.00    +0.000 A 
ATOM     15  C   UNL     1       4.614   4.308  17.047  0.00  0.00    +0.000 A 
ATOM     16  C   UNL     1       5.264   3.518  16.096  0.00  0.00    +0.000 A 
ATOM     17  C   UNL     1       5.879   4.124  15.010  0.00  0.00    +0.000 A 
ATOM     18  F   UNL     1       6.495   3.365  14.096  0.00  0.00    +0.000 F 
ATOM     19  C   UNL     1       5.861   5.504  14.861  0.00  0.00    +0.000 A 
ATOM     20  C   UNL     1       5.211   6.298  15.812  0.00  0.00    +0.000 A 
ENDBRANCH   4  14
BRANCH   9  21
ATOM     21  C   UNL     1      -0.042  12.509  19.442  0.00  0.00    +0.000 C 
BRANCH  21  22
ATOM     22  C   UNL     1      -1.508  12.685  19.002  0.00  0.00    +0.000 C 
ATOM     23  C   UNL     1      -2.612  12.359  20.001  0.00  0.00    +0.000 C 
ATOM     24  C   UNL     1      -3.786  12.099  19.082  0.00  0.00    +0.000 C 
ATOM     25  C   UNL     1      -3.123  11.402  17.914  0.00  0.00    +0.000 C 
ATOM     26  O   UNL     1      -1.785  11.909  17.819  0.00  0.00    +0.000 OA
ENDBRANCH  21  22
ENDBRANCH   9  21
TORSDOF 3
ENDMDL
MODEL 7
REMARK VINA RESULT:      -7.8      0.790      1.435
REMARK  Name = 
REMARK  3 active torsions:
REMARK  status: ('A' for Active; 'I' for Inactive)
REMARK    1  A    between atoms: C_4  and  C_5
REMARK    2  A    between atoms: N_16  and  C_17
REMARK    3  A    between atoms: C_17  and  C_18
REMARK                            x       y       z     vdW  Elec       q    Type
REMARK                         _______ _______ _______ _____ _____    ______ ____
ROOT
ATOM      1  O   UNL     1       4.132   2.919  19.307  0.00  0.00    +0.000 OA
ATOM      2  C   UNL     1       4.111   3.798  18.464  0.00  0.00    +0.000 C 
ATOM      3  C   UNL     1       4.623   3.597  17.056  0.00  0.00    +0.000 C 
ATOM      4  C   UNL     1       5.315   4.872  16.561  0.00  0.00    +0.000 C 
ATOM      5  C   UNL     1       4.329   6.065  16.591  0.00  0.00    +0.000 C 
ATOM      6  C   UNL     1       3.601   6.184  17.911  0.00  0.00    +0.000 A 
ATOM      7  N   UNL     1       3.019   7.387  18.205  0.00  0.00    +0.000 NA
ATOM      8  C   UNL     1       2.305   7.483  19.339  0.00  0.00    +0.000 A 
ATOM      9  N   UNL     1       1.676   8.696  19.618  0.00  0.00    +0.000 N 
ATOM     10  N   UNL     1       2.156   6.462  20.200  0.00  0.00    +0.000 NA
ATOM     11  C   UNL     1       2.770   5.304  19.904  0.00  0.00    +0.000 A 
ATOM     12  C   UNL     1       3.491   5.101  18.759  0.00  0.00    +0.000 A 
ATOM     13  H   UNL     1       2.291   9.466  19.396  0.00  0.00    +0.000 HD
ENDROOT
BRANCH   4  14
ATOM     14  C   UNL     1       5.919   4.672  15.179  0.00  0.00    +0.000 A 
ATOM     15  C   UNL     1       7.133   5.292  14.832  0.00  0.00    +0.000 A 
ATOM     16  C   UNL     1       7.695   5.112  13.566  0.00  0.00    +0.000 A 
ATOM     17  C   UNL     1       7.045   4.311  12.639  0.00  0.00    +0.000 A 
ATOM     18  F   UNL     1       7.589   4.132  11.428  0.00  0.00    +0.000 F 
ATOM     19  C   UNL     1       5.843   3.691  12.952  0.00  0.00    +0.000 A 
ATOM     20  C   UNL     1       5.278   3.870  14.219  0.00  0.00    +0.000 A 
ENDBRANCH   4  14
BRANCH   9  21
ATOM     21  C   UNL     1       0.952   8.748  20.893  0.00  0.00    +0.000 C 
BRANCH  21  22
ATOM     22  C   UNL     1      -0.238   9.726  20.911  0.00  0.00    +0.000 C 
ATOM     23  C   UNL     1      -0.557  10.509  19.642  0.00  0.00    +0.000 C 
ATOM     24  C   UNL     1      -1.328  11.687  20.198  0.00  0.00    +0.000 C 
ATOM     25  C   UNL     1      -0.601  11.954  21.498  0.00  0.00    +0.000 C 
ATOM     26  O   UNL     1      -0.087  10.699  21.965  0.00  0.00    +0.000 OA
ENDBRANCH  21  22
ENDBRANCH   9  21
TORSDOF 3
ENDMDL
MODEL 8
REMARK VINA RESULT:      -7.8      3.793      8.981
REMARK  Name = 
REMARK  3 active torsions:
REMARK  status: ('A' for Active; 'I' for Inactive)
REMARK    1  A    between atoms: C_4  and  C_5
REMARK    2  A    between atoms: N_16  and  C_17
REMARK    3  A    between atoms: C_17  and  C_18
REMARK                            x       y       z     vdW  Elec       q    Type
REMARK                         _______ _______ _______ _____ _____    ______ ____
ROOT
ATOM      1  O   UNL     1       3.511   3.928  19.970  0.00  0.00    +0.000 OA
ATOM      2  C   UNL     1       3.516   5.020  19.431  0.00  0.00    +0.000 C 
ATOM      3  C   UNL     1       2.910   6.251  20.067  0.00  0.00    +0.000 C 
ATOM      4  C   UNL     1       2.241   7.121  18.998  0.00  0.00    +0.000 C 
ATOM      5  C   UNL     1       3.274   7.544  17.925  0.00  0.00    +0.000 C 
ATOM      6  C   UNL     1       4.086   6.378  17.408  0.00  0.00    +0.000 A 
ATOM      7  N   UNL     1       4.733   6.538  16.214  0.00  0.00    +0.000 NA
ATOM      8  C   UNL     1       5.519   5.538  15.780  0.00  0.00    +0.000 A 
ATOM      9  N   UNL     1       6.211   5.718  14.584  0.00  0.00    +0.000 N 
ATOM     10  N   UNL     1       5.679   4.387  16.456  0.00  0.00    +0.000 NA
ATOM     11  C   UNL     1       5.001   4.242  17.608  0.00  0.00    +0.000 A 
ATOM     12  C   UNL     1       4.204   5.216  18.144  0.00  0.00    +0.000 A 
ATOM     13  H   UNL     1       5.615   6.163  13.900  0.00  0.00    +0.000 HD
ENDROOT
BRANCH   4  14
ATOM     14  C   UNL     1       1.546   8.323  19.618  0.00  0.00    +0.000 A 
ATOM     15  C   UNL     1       1.205   8.328  20.983  0.00  0.00    +0.000 A 
ATOM     16  C   UNL     1       0.569   9.428  21.561  0.00  0.00    +0.000 A 
ATOM     17  C   UNL     1       0.267  10.532  20.776  0.00  0.00    +0.000 A 
ATOM     18  F   UNL     1      -0.336  11.590  21.333  0.00  0.00    +0.000 F 
ATOM     19  C   UNL     1       0.586  10.553  19.425  0.00  0.00    +0.000 A 
ATOM     20  C   UNL     1       1.224   9.452  18.844  0.00  0.00    +0.000 A 
ENDBRANCH   4  14
BRANCH   9  21
ATOM     21  C   UNL     1       7.014   4.571  14.146  0.00  0.00    +0.000 C 
BRANCH  21  22
ATOM     22  C   UNL     1       6.228   3.505  13.360  0.00  0.00    +0.000 C 
ATOM     23  C   UNL     1       6.795   3.015  12.032  0.00  0.00    +0.000 C 
ATOM     24  C   UNL     1       5.553   2.483  11.350  0.00  0.00    +0.000 C 
ATOM     25  C   UNL     1       4.500   3.475  11.794  0.00  0.00    +0.000 C 
ATOM     26  O   UNL     1       4.884   3.952  13.090  0.00  0.00    +0.000 OA
ENDBRANCH  21  22
ENDBRANCH   9  21
TORSDOF 3
ENDMDL
MODEL 9
REMARK VINA RESULT:      -7.7      5.420     10.587
REMARK  Name = 
REMARK  3 active torsions:
REMARK  status: ('A' for Active; 'I' for Inactive)
REMARK    1  A    between atoms: C_4  and  C_5
REMARK    2  A    between atoms: N_16  and  C_17
REMARK    3  A    between atoms: C_17  and  C_18
REMARK                            x       y       z     vdW  Elec       q    Type
REMARK                         _______ _______ _______ _____ _____    ______ ____
ROOT
ATOM      1  O   UNL     1       0.907  11.785  18.291  0.00  0.00    +0.000 OA
ATOM      2  C   UNL     1       0.498  11.307  19.334  0.00  0.00    +0.000 C 
ATOM      3  C   UNL     1      -0.529  11.996  20.204  0.00  0.00    +0.000 C 
ATOM      4  C   UNL     1      -0.207  11.762  21.684  0.00  0.00    +0.000 C 
ATOM      5  C   UNL     1      -0.191  10.245  21.997  0.00  0.00    +0.000 C 
ATOM      6  C   UNL     1       0.642   9.457  21.012  0.00  0.00    +0.000 A 
ATOM      7  N   UNL     1       1.055   8.209  21.390  0.00  0.00    +0.000 NA
ATOM      8  C   UNL     1       1.730   7.468  20.496  0.00  0.00    +0.000 A 
ATOM      9  N   UNL     1       2.114   6.180  20.866  0.00  0.00    +0.000 N 
ATOM     10  N   UNL     1       2.034   7.906  19.262  0.00  0.00    +0.000 NA
ATOM     11  C   UNL     1       1.649   9.151  18.931  0.00  0.00    +0.000 A 
ATOM     12  C   UNL     1       0.929   9.966  19.762  0.00  0.00    +0.000 A 
ATOM     13  H   UNL     1       2.457   6.178  21.816  0.00  0.00    +0.000 HD
ENDROOT
BRANCH   4  14
ATOM     14  C   UNL     1      -1.172  12.515  22.586  0.00  0.00    +0.000 A 
ATOM     15  C   UNL     1      -0.865  13.810  23.041  0.00  0.00    +0.000 A 
ATOM     16  C   UNL     1      -1.746  14.509  23.867  0.00  0.00    +0.000 A 
ATOM     17  C   UNL     1      -2.943  13.917  24.245  0.00  0.00    +0.000 A 
ATOM     18  F   UNL     1      -3.791  14.592  25.031  0.00  0.00    +0.000 F 
ATOM     19  C   UNL     1      -3.271  12.638  23.816  0.00  0.00    +0.000 A 
ATOM     20  C   UNL     1      -2.388  11.936  22.988  0.00  0.00    +0.000 A 
ENDBRANCH   4  14
BRANCH   9  21
ATOM     21  C   UNL     1       2.887   5.443  19.860  0.00  0.00    +0.000 C 
BRANCH  21  22
ATOM     22  C   UNL     1       2.068   4.423  19.047  0.00  0.00    +0.000 C 
ATOM     23  C   UNL     1       0.996   3.611  19.767  0.00  0.00    +0.000 C 
ATOM     24  C   UNL     1       0.857   2.414  18.851  0.00  0.00    +0.000 C 
ATOM     25  C   UNL     1       2.285   2.191  18.404  0.00  0.00    +0.000 C 
ATOM     26  O   UNL     1       2.933   3.471  18.396  0.00  0.00    +0.000 OA
ENDBRANCH  21  22
ENDBRANCH   9  21
TORSDOF 3
ENDMDL
