MODEL 1
REMARK VINA RESULT:      -7.7      0.000      0.000
REMARK  Name = 
REMARK  4 active torsions:
REMARK  status: ('A' for Active; 'I' for Inactive)
REMARK    1  A    between atoms: S_2  and  C_4
REMARK    2  A    between atoms: S_2  and  N_10
REMARK    3  A    between atoms: N_13  and  C_14
REMARK    4  A    between atoms: C_14  and  C_15
REMARK                            x       y       z     vdW  Elec       q    Type
REMARK                         _______ _______ _______ _____ _____    ______ ____
ROOT
ATOM      1  N   UNL     1       5.327   5.059  16.508  0.00  0.00    +0.000 NA
ATOM      2  C   UNL     1       4.929   4.277  17.719  0.00  0.00    +0.000 C 
ATOM      3  C   UNL     1       5.004   5.094  19.025  0.00  0.00    +0.000 C 
ATOM      4  N   UNL     1       4.337   6.414  19.003  0.00  0.00    +0.000 NA
ATOM      5  C   UNL     1       4.776   7.153  17.797  0.00  0.00    +0.000 C 
ATOM      6  C   UNL     1       4.618   6.376  16.471  0.00  0.00    +0.000 C 
ENDROOT
BRANCH   1   8
ATOM      7  O   UNL     1       7.673   4.119  16.869  0.00  0.00    +0.000 OA
ATOM      8  S   UNL     1       6.992   5.165  16.136  0.00  0.00    +0.000 S 
ATOM      9  O   UNL     1       7.393   6.547  16.263  0.00  0.00    +0.000 OA
BRANCH   8  10
ATOM     10  C   UNL     1       7.058   4.753  14.410  0.00  0.00    +0.000 A 
ATOM     11  C   UNL     1       7.899   5.482  13.564  0.00  0.00    +0.000 A 
ATOM     12  C   UNL     1       7.880   5.220  12.194  0.00  0.00    +0.000 A 
ATOM     13  C   UNL     1       7.035   4.232  11.682  0.00  0.00    +0.000 A 
ATOM     14  C   UNL     1       6.225   3.483  12.537  0.00  0.00    +0.000 A 
ATOM     15  C   UNL     1       6.237   3.739  13.908  0.00  0.00    +0.000 A 
ENDBRANCH   8  10
ENDBRANCH   1   8
BRANCH   4  16
ATOM     16  C   UNL     1       2.870   6.342  19.079  0.00  0.00    +0.000 C 
BRANCH  16  17
ATOM     17  C   UNL     1       2.356   5.070  19.720  0.00  0.00    +0.000 A 
ATOM     18  C   UNL     1       2.547   4.823  21.091  0.00  0.00    +0.000 A 
ATOM     19  C   UNL     1       2.074   3.644  21.674  0.00  0.00    +0.000 A 
ATOM     20  C   UNL     1       1.405   2.700  20.896  0.00  0.00    +0.000 A 
ATOM     21  C   UNL     1       1.207   2.941  19.537  0.00  0.00    +0.000 A 
ATOM     22 CL   UNL     1       0.383   1.777  18.574  0.00  0.00    +0.000 Cl
ATOM     23  C   UNL     1       1.673   4.116  18.950  0.00  0.00    +0.000 A 
ENDBRANCH  16  17
ENDBRANCH   4  16
TORSDOF 4
ENDMDL
MODEL 2
REMARK VINA RESULT:      -7.6      2.497      3.306
REMARK  Name = 
REMARK  4 active torsions:
REMARK  status: ('A' for Active; 'I' for Inactive)
REMARK    1  A    between atoms: S_2  and  C_4
REMARK    2  A    between atoms: S_2  and  N_10
REMARK    3  A    between atoms: N_13  and  C_14
REMARK    4  A    between atoms: C_14  and  C_15
REMARK                            x       y       z     vdW  Elec       q    Type
REMARK                         _______ _______ _______ _____ _____    ______ ____
ROOT
ATOM      1  N   UNL     1       5.560   4.700  16.854  0.00  0.00    +0.000 NA
ATOM      2  C   UNL     1       5.418   4.297  18.287  0.00  0.00    +0.000 C 
ATOM      3  C   UNL     1       5.322   5.497  19.252  0.00  0.00    +0.000 C 
ATOM      4  N   UNL     1       4.337   6.540  18.892  0.00  0.00    +0.000 NA
ATOM      5  C   UNL     1       4.530   6.914  17.473  0.00  0.00    +0.000 C 
ATOM      6  C   UNL     1       4.535   5.725  16.487  0.00  0.00    +0.000 C 
ENDROOT
BRANCH   1   8
ATOM      7  O   UNL     1       8.040   4.092  16.848  0.00  0.00    +0.000 OA
ATOM      8  S   UNL     1       7.128   5.060  16.277  0.00  0.00    +0.000 S 
ATOM      9  O   UNL     1       7.351   6.479  16.437  0.00  0.00    +0.000 OA
BRANCH   8  10
ATOM     10  C   UNL     1       7.013   4.739  14.534  0.00  0.00    +0.000 A 
ATOM     11  C   UNL     1       6.154   3.735  14.078  0.00  0.00    +0.000 A 
ATOM     12  C   UNL     1       6.134   3.422  12.719  0.00  0.00    +0.000 A 
ATOM     13  C   UNL     1       6.960   4.113  11.829  0.00  0.00    +0.000 A 
ATOM     14  C   UNL     1       7.789   5.138  12.286  0.00  0.00    +0.000 A 
ATOM     15  C   UNL     1       7.815   5.458  13.643  0.00  0.00    +0.000 A 
ENDBRANCH   8  10
ENDBRANCH   1   8
BRANCH   4  16
ATOM     16  C   UNL     1       2.942   6.158  19.157  0.00  0.00    +0.000 C 
BRANCH  16  17
ATOM     17  C   UNL     1       2.091   7.291  19.691  0.00  0.00    +0.000 A 
ATOM     18  C   UNL     1       1.503   7.215  20.965  0.00  0.00    +0.000 A 
ATOM     19  C   UNL     1       0.714   8.264  21.448  0.00  0.00    +0.000 A 
ATOM     20  C   UNL     1       0.504   9.398  20.664  0.00  0.00    +0.000 A 
ATOM     21  C   UNL     1       1.089   9.483  19.402  0.00  0.00    +0.000 A 
ATOM     22 CL   UNL     1       0.832  10.880  18.432  0.00  0.00    +0.000 Cl
ATOM     23  C   UNL     1       1.880   8.442  18.916  0.00  0.00    +0.000 A 
ENDBRANCH  16  17
ENDBRANCH   4  16
TORSDOF 4
ENDMDL
MODEL 3
REMARK VINA RESULT:      -7.6      0.108      1.018
REMARK  Name = 
REMARK  4 active torsions:
REMARK  status: ('A' for Active; 'I' for Inactive)
REMARK    1  A    between atoms: S_2  and  C_4
REMARK    2  A    between atoms: S_2  and  N_10
REMARK    3  A    between atoms: N_13  and  C_14
REMARK    4  A    between atoms: C_14  and  C_15
REMARK                            x       y       z     vdW  Elec       q    Type
REMARK                         _______ _______ _______ _____ _____    ______ ____
ROOT
ATOM      1  N   UNL     1       5.236   5.085  16.554  0.00  0.00    +0.000 NA
ATOM      2  C   UNL     1       4.864   4.290  17.764  0.00  0.00    +0.000 C 
ATOM      3  C   UNL     1       4.982   5.089  19.079  0.00  0.00    +0.000 C 
ATOM      4  N   UNL     1       4.327   6.415  19.092  0.00  0.00    +0.000 NA
ATOM      5  C   UNL     1       4.739   7.166  17.884  0.00  0.00    +0.000 C 
ATOM      6  C   UNL     1       4.538   6.408  16.553  0.00  0.00    +0.000 C 
ENDROOT
BRANCH   1   8
ATOM      7  O   UNL     1       7.583   4.121  16.839  0.00  0.00    +0.000 OA
ATOM      8  S   UNL     1       6.891   5.181  16.138  0.00  0.00    +0.000 S 
ATOM      9  O   UNL     1       7.307   6.559  16.270  0.00  0.00    +0.000 OA
BRANCH   8  10
ATOM     10  C   UNL     1       6.907   4.791  14.405  0.00  0.00    +0.000 A 
ATOM     11  C   UNL     1       6.052   3.797  13.919  0.00  0.00    +0.000 A 
ATOM     12  C   UNL     1       6.132   3.428  12.577  0.00  0.00    +0.000 A 
ATOM     13  C   UNL     1       7.052   4.054  11.732  0.00  0.00    +0.000 A 
ATOM     14  C   UNL     1       7.877   5.070  12.216  0.00  0.00    +0.000 A 
ATOM     15  C   UNL     1       7.803   5.447  13.556  0.00  0.00    +0.000 A 
ENDBRANCH   8  10
ENDBRANCH   1   8
BRANCH   4  16
ATOM     16  C   UNL     1       2.862   6.355  19.207  0.00  0.00    +0.000 C 
BRANCH  16  17
ATOM     17  C   UNL     1       2.351   5.059  19.803  0.00  0.00    +0.000 A 
ATOM     18  C   UNL     1       2.547   4.763  21.163  0.00  0.00    +0.000 A 
ATOM     19  C   UNL     1       2.077   3.563  21.704  0.00  0.00    +0.000 A 
ATOM     20  C   UNL     1       1.408   2.646  20.894  0.00  0.00    +0.000 A 
ATOM     21  C   UNL     1       1.205   2.936  19.546  0.00  0.00    +0.000 A 
ATOM     22 CL   UNL     1       0.380   1.807  18.543  0.00  0.00    +0.000 Cl
ATOM     23  C   UNL     1       1.667   4.133  19.001  0.00  0.00    +0.000 A 
ENDBRANCH  16  17
ENDBRANCH   4  16
TORSDOF 4
ENDMDL
MODEL 4
REMARK VINA RESULT:      -7.6      2.507      3.161
REMARK  Name = 
REMARK  4 active torsions:
REMARK  status: ('A' for Active; 'I' for Inactive)
REMARK    1  A    between atoms: S_2  and  C_4
REMARK    2  A    between atoms: S_2  and  N_10
REMARK    3  A    between atoms: N_13  and  C_14
REMARK    4  A    between atoms: C_14  and  C_15
REMARK                            x       y       z     vdW  Elec       q    Type
REMARK                         _______ _______ _______ _____ _____    ______ ____
ROOT
ATOM      1  N   UNL     1       5.525   4.750  16.774  0.00  0.00    +0.000 NA
ATOM      2  C   UNL     1       5.328   4.280  18.179  0.00  0.00    +0.000 C 
ATOM      3  C   UNL     1       5.251   5.432  19.203  0.00  0.00    +0.000 C 
ATOM      4  N   UNL     1       4.315   6.529  18.873  0.00  0.00    +0.000 NA
ATOM      5  C   UNL     1       4.562   6.968  17.481  0.00  0.00    +0.000 C 
ATOM      6  C   UNL     1       4.549   5.832  16.435  0.00  0.00    +0.000 C 
ENDROOT
BRANCH   1   8
ATOM      7  O   UNL     1       7.999   4.131  16.910  0.00  0.00    +0.000 OA
ATOM      8  S   UNL     1       7.121   5.078  16.257  0.00  0.00    +0.000 S 
ATOM      9  O   UNL     1       7.345   6.502  16.369  0.00  0.00    +0.000 OA
BRANCH   8  10
ATOM     10  C   UNL     1       7.086   4.686  14.525  0.00  0.00    +0.000 A 
ATOM     11  C   UNL     1       7.892   5.409  13.642  0.00  0.00    +0.000 A 
ATOM     12  C   UNL     1       7.794   5.163  12.273  0.00  0.00    +0.000 A 
ATOM     13  C   UNL     1       6.904   4.196  11.798  0.00  0.00    +0.000 A 
ATOM     14  C   UNL     1       6.129   3.452  12.688  0.00  0.00    +0.000 A 
ATOM     15  C   UNL     1       6.220   3.692  14.058  0.00  0.00    +0.000 A 
ENDBRANCH   8  10
ENDBRANCH   1   8
BRANCH   4  16
ATOM     16  C   UNL     1       2.900   6.188  19.082  0.00  0.00    +0.000 C 
BRANCH  16  17
ATOM     17  C   UNL     1       2.078   7.325  19.654  0.00  0.00    +0.000 A 
ATOM     18  C   UNL     1       1.533   7.243  20.946  0.00  0.00    +0.000 A 
ATOM     19  C   UNL     1       0.770   8.294  21.464  0.00  0.00    +0.000 A 
ATOM     20  C   UNL     1       0.544   9.437  20.698  0.00  0.00    +0.000 A 
ATOM     21  C   UNL     1       1.088   9.527  19.417  0.00  0.00    +0.000 A 
ATOM     22 CL   UNL     1       0.810  10.936  18.468  0.00  0.00    +0.000 Cl
ATOM     23  C   UNL     1       1.852   8.484  18.896  0.00  0.00    +0.000 A 
ENDBRANCH  16  17
ENDBRANCH   4  16
TORSDOF 4
ENDMDL
MODEL 5
REMARK VINA RESULT:      -7.6      0.946      1.410
REMARK  Name = 
REMARK  4 active torsions:
REMARK  status: ('A' for Active; 'I' for Inactive)
REMARK    1  A    between atoms: S_2  and  C_4
REMARK    2  A    between atoms: S_2  and  N_10
REMARK    3  A    between atoms: N_13  and  C_14
REMARK    4  A    between atoms: C_14  and  C_15
REMARK                            x       y       z     vdW  Elec       q    Type
REMARK                         _______ _______ _______ _____ _____    ______ ____
ROOT
ATOM      1  N   UNL     1       5.300   5.168  16.259  0.00  0.00    +0.000 NA
ATOM      2  C   UNL     1       4.745   4.198  17.252  0.00  0.00    +0.000 C 
ATOM      3  C   UNL     1       4.847   4.691  18.710  0.00  0.00    +0.000 C 
ATOM      4  N   UNL     1       4.348   6.060  18.967  0.00  0.00    +0.000 NA
ATOM      5  C   UNL     1       4.938   6.981  17.970  0.00  0.00    +0.000 C 
ATOM      6  C   UNL     1       4.760   6.542  16.500  0.00  0.00    +0.000 C 
ENDROOT
BRANCH   1   8
ATOM      7  O   UNL     1       7.537   4.018  16.699  0.00  0.00    +0.000 OA
ATOM      8  S   UNL     1       6.983   5.135  15.963  0.00  0.00    +0.000 S 
ATOM      9  O   UNL     1       7.497   6.473  16.143  0.00  0.00    +0.000 OA
BRANCH   8  10
ATOM     10  C   UNL     1       7.093   4.756  14.231  0.00  0.00    +0.000 A 
ATOM     11  C   UNL     1       7.935   5.519  13.416  0.00  0.00    +0.000 A 
ATOM     12  C   UNL     1       7.949   5.281  12.042  0.00  0.00    +0.000 A 
ATOM     13  C   UNL     1       7.136   4.284  11.495  0.00  0.00    +0.000 A 
ATOM     14  C   UNL     1       6.326   3.503  12.320  0.00  0.00    +0.000 A 
ATOM     15  C   UNL     1       6.305   3.734  13.695  0.00  0.00    +0.000 A 
ENDBRANCH   8  10
ENDBRANCH   1   8
BRANCH   4  16
ATOM     16  C   UNL     1       2.882   6.165  18.988  0.00  0.00    +0.000 C 
BRANCH  16  17
ATOM     17  C   UNL     1       2.180   4.841  19.210  0.00  0.00    +0.000 A 
ATOM     18  C   UNL     1       1.570   4.159  18.144  0.00  0.00    +0.000 A 
ATOM     19  C   UNL     1       0.919   2.940  18.359  0.00  0.00    +0.000 A 
ATOM     20  C   UNL     1       0.870   2.391  19.640  0.00  0.00    +0.000 A 
ATOM     21  C   UNL     1       1.479   3.059  20.701  0.00  0.00    +0.000 A 
ATOM     22 CL   UNL     1       1.420   2.385  22.283  0.00  0.00    +0.000 Cl
ATOM     23  C   UNL     1       2.133   4.273  20.493  0.00  0.00    +0.000 A 
ENDBRANCH  16  17
ENDBRANCH   4  16
TORSDOF 4
ENDMDL
MODEL 6
REMARK VINA RESULT:      -7.5      0.959      1.741
REMARK  Name = 
REMARK  4 active torsions:
REMARK  status: ('A' for Active; 'I' for Inactive)
REMARK    1  A    between atoms: S_2  and  C_4
REMARK    2  A    between atoms: S_2  and  N_10
REMARK    3  A    between atoms: N_13  and  C_14
REMARK    4  A    between atoms: C_14  and  C_15
REMARK                            x       y       z     vdW  Elec       q    Type
REMARK                         _______ _______ _______ _____ _____    ______ ____
ROOT
ATOM      1  N   UNL     1       5.195   5.200  16.291  0.00  0.00    +0.000 NA
ATOM      2  C   UNL     1       4.618   4.182  17.221  0.00  0.00    +0.000 C 
ATOM      3  C   UNL     1       4.805   4.539  18.710  0.00  0.00    +0.000 C 
ATOM      4  N   UNL     1       4.402   5.907  19.104  0.00  0.00    +0.000 NA
ATOM      5  C   UNL     1       5.011   6.875  18.164  0.00  0.00    +0.000 C 
ATOM      6  C   UNL     1       4.751   6.577  16.671  0.00  0.00    +0.000 C 
ENDROOT
BRANCH   1   8
ATOM      7  O   UNL     1       7.397   3.954  16.636  0.00  0.00    +0.000 OA
ATOM      8  S   UNL     1       6.860   5.093  15.923  0.00  0.00    +0.000 S 
ATOM      9  O   UNL     1       7.439   6.409  16.076  0.00  0.00    +0.000 OA
BRANCH   8  10
ATOM     10  C   UNL     1       6.878   4.709  14.189  0.00  0.00    +0.000 A 
ATOM     11  C   UNL     1       6.035   3.707  13.701  0.00  0.00    +0.000 A 
ATOM     12  C   UNL     1       6.117   3.343  12.357  0.00  0.00    +0.000 A 
ATOM     13  C   UNL     1       7.028   3.984  11.512  0.00  0.00    +0.000 A 
ATOM     14  C   UNL     1       7.840   5.009  11.999  0.00  0.00    +0.000 A 
ATOM     15  C   UNL     1       7.765   5.379  13.341  0.00  0.00    +0.000 A 
ENDBRANCH   8  10
ENDBRANCH   1   8
BRANCH   4  16
ATOM     16  C   UNL     1       2.947   6.096  19.195  0.00  0.00    +0.000 C 
BRANCH  16  17
ATOM     17  C   UNL     1       2.174   4.804  19.365  0.00  0.00    +0.000 A 
ATOM     18  C   UNL     1       1.541   4.192  18.270  0.00  0.00    +0.000 A 
ATOM     19  C   UNL     1       0.825   3.002  18.436  0.00  0.00    +0.000 A 
ATOM     20  C   UNL     1       0.735   2.412  19.697  0.00  0.00    +0.000 A 
ATOM     21  C   UNL     1       1.366   3.011  20.786  0.00  0.00    +0.000 A 
ATOM     22 CL   UNL     1       1.255   2.287  22.343  0.00  0.00    +0.000 Cl
ATOM     23  C   UNL     1       2.084   4.195  20.626  0.00  0.00    +0.000 A 
ENDBRANCH  16  17
ENDBRANCH   4  16
TORSDOF 4
ENDMDL
MODEL 7
REMARK VINA RESULT:      -7.5      2.384      3.420
REMARK  Name = 
REMARK  4 active torsions:
REMARK  status: ('A' for Active; 'I' for Inactive)
REMARK    1  A    between atoms: S_2  and  C_4
REMARK    2  A    between atoms: S_2  and  N_10
REMARK    3  A    between atoms: N_13  and  C_14
REMARK    4  A    between atoms: C_14  and  C_15
REMARK                            x       y       z     vdW  Elec       q    Type
REMARK                         _______ _______ _______ _____ _____    ______ ____
ROOT
ATOM      1  N   UNL     1       5.153   5.071  16.555  0.00  0.00    +0.000 NA
ATOM      2  C   UNL     1       4.796   4.128  17.659  0.00  0.00    +0.000 C 
ATOM      3  C   UNL     1       4.909   4.761  19.062  0.00  0.00    +0.000 C 
ATOM      4  N   UNL     1       4.237   6.067  19.239  0.00  0.00    +0.000 NA
ATOM      5  C   UNL     1       4.634   6.965  18.132  0.00  0.00    +0.000 C 
ATOM      6  C   UNL     1       4.438   6.375  16.719  0.00  0.00    +0.000 C 
ENDROOT
BRANCH   1   8
ATOM      7  O   UNL     1       7.541   4.227  16.876  0.00  0.00    +0.000 OA
ATOM      8  S   UNL     1       6.805   5.240  16.150  0.00  0.00    +0.000 S 
ATOM      9  O   UNL     1       7.153   6.638  16.261  0.00  0.00    +0.000 OA
BRANCH   8  10
ATOM     10  C   UNL     1       6.854   4.820  14.425  0.00  0.00    +0.000 A 
ATOM     11  C   UNL     1       6.007   3.821  13.939  0.00  0.00    +0.000 A 
ATOM     12  C   UNL     1       6.113   3.428  12.604  0.00  0.00    +0.000 A 
ATOM     13  C   UNL     1       7.051   4.038  11.767  0.00  0.00    +0.000 A 
ATOM     14  C   UNL     1       7.868   5.060  12.251  0.00  0.00    +0.000 A 
ATOM     15  C   UNL     1       7.769   5.459  13.583  0.00  0.00    +0.000 A 
ENDBRANCH   8  10
ENDBRANCH   1   8
BRANCH   4  16
ATOM     16  C   UNL     1       2.773   5.972  19.350  0.00  0.00    +0.000 C 
BRANCH  16  17
ATOM     17  C   UNL     1       2.095   7.303  19.603  0.00  0.00    +0.000 A 
ATOM     18  C   UNL     1       1.886   8.217  18.557  0.00  0.00    +0.000 A 
ATOM     19  C   UNL     1       1.264   9.446  18.799  0.00  0.00    +0.000 A 
ATOM     20  C   UNL     1       0.844   9.773  20.088  0.00  0.00    +0.000 A 
ATOM     21  C   UNL     1       1.042   8.868  21.129  0.00  0.00    +0.000 A 
ATOM     22 CL   UNL     1       0.526   9.269  22.721  0.00  0.00    +0.000 Cl
ATOM     23  C   UNL     1       1.659   7.640  20.894  0.00  0.00    +0.000 A 
ENDBRANCH  16  17
ENDBRANCH   4  16
TORSDOF 4
ENDMDL
MODEL 8
REMARK VINA RESULT:      -7.5      1.587      2.165
REMARK  Name = 
REMARK  4 active torsions:
REMARK  status: ('A' for Active; 'I' for Inactive)
REMARK    1  A    between atoms: S_2  and  C_4
REMARK    2  A    between atoms: S_2  and  N_10
REMARK    3  A    between atoms: N_13  and  C_14
REMARK    4  A    between atoms: C_14  and  C_15
REMARK                            x       y       z     vdW  Elec       q    Type
REMARK                         _______ _______ _______ _____ _____    ______ ____
ROOT
ATOM      1  N   UNL     1       6.385   4.185  15.798  0.00  0.00    +0.000 NA
ATOM      2  C   UNL     1       7.271   4.423  16.979  0.00  0.00    +0.000 C 
ATOM      3  C   UNL     1       6.795   5.587  17.874  0.00  0.00    +0.000 C 
ATOM      4  N   UNL     1       5.371   5.557  18.273  0.00  0.00    +0.000 NA
ATOM      5  C   UNL     1       4.539   5.335  17.069  0.00  0.00    +0.000 C 
ATOM      6  C   UNL     1       4.951   4.116  16.215  0.00  0.00    +0.000 C 
ENDROOT
BRANCH   1   8
ATOM      7  O   UNL     1       8.064   5.422  14.324  0.00  0.00    +0.000 OA
ATOM      8  S   UNL     1       6.648   5.131  14.399  0.00  0.00    +0.000 S 
ATOM      9  O   UNL     1       5.668   6.193  14.384  0.00  0.00    +0.000 OA
BRANCH   8  10
ATOM     10  C   UNL     1       6.247   4.025  13.068  0.00  0.00    +0.000 A 
ATOM     11  C   UNL     1       4.908   3.841  12.712  0.00  0.00    +0.000 A 
ATOM     12  C   UNL     1       4.588   2.903  11.730  0.00  0.00    +0.000 A 
ATOM     13  C   UNL     1       5.600   2.167  11.108  0.00  0.00    +0.000 A 
ATOM     14  C   UNL     1       6.937   2.383  11.444  0.00  0.00    +0.000 A 
ATOM     15  C   UNL     1       7.266   3.319  12.424  0.00  0.00    +0.000 A 
ENDBRANCH   8  10
ENDBRANCH   1   8
BRANCH   4  16
ATOM     16  C   UNL     1       5.067   4.569  19.320  0.00  0.00    +0.000 C 
BRANCH  16  17
ATOM     17  C   UNL     1       3.591   4.450  19.634  0.00  0.00    +0.000 A 
ATOM     18  C   UNL     1       2.938   5.420  20.414  0.00  0.00    +0.000 A 
ATOM     19  C   UNL     1       1.576   5.299  20.705  0.00  0.00    +0.000 A 
ATOM     20  C   UNL     1       0.852   4.210  20.220  0.00  0.00    +0.000 A 
ATOM     21  C   UNL     1       1.492   3.248  19.441  0.00  0.00    +0.000 A 
ATOM     22 CL   UNL     1       0.602   1.902  18.842  0.00  0.00    +0.000 Cl
ATOM     23  C   UNL     1       2.849   3.364  19.144  0.00  0.00    +0.000 A 
ENDBRANCH  16  17
ENDBRANCH   4  16
TORSDOF 4
ENDMDL
MODEL 9
REMARK VINA RESULT:      -7.4      2.863      7.305
REMARK  Name = 
REMARK  4 active torsions:
REMARK  status: ('A' for Active; 'I' for Inactive)
REMARK    1  A    between atoms: S_2  and  C_4
REMARK    2  A    between atoms: S_2  and  N_10
REMARK    3  A    between atoms: N_13  and  C_14
REMARK    4  A    between atoms: C_14  and  C_15
REMARK                            x       y       z     vdW  Elec       q    Type
REMARK                         _______ _______ _______ _____ _____    ______ ____
ROOT
ATOM      1  N   UNL     1       4.229   6.324  18.694  0.00  0.00    +0.000 NA
ATOM      2  C   UNL     1       4.892   5.029  19.034  0.00  0.00    +0.000 C 
ATOM      3  C   UNL     1       4.680   3.935  17.966  0.00  0.00    +0.000 C 
ATOM      4  N   UNL     1       4.966   4.330  16.570  0.00  0.00    +0.000 NA
ATOM      5  C   UNL     1       4.275   5.606  16.280  0.00  0.00    +0.000 C 
ATOM      6  C   UNL     1       4.556   6.737  17.294  0.00  0.00    +0.000 C 
ENDROOT
BRANCH   1   8
ATOM      7  O   UNL     1       1.843   6.699  17.863  0.00  0.00    +0.000 OA
ATOM      8  S   UNL     1       2.577   6.506  19.096  0.00  0.00    +0.000 S 
ATOM      9  O   UNL     1       2.481   7.460  20.177  0.00  0.00    +0.000 OA
BRANCH   8  10
ATOM     10  C   UNL     1       2.133   4.917  19.754  0.00  0.00    +0.000 A 
ATOM     11  C   UNL     1       1.458   4.004  18.940  0.00  0.00    +0.000 A 
ATOM     12  C   UNL     1       1.027   2.794  19.485  0.00  0.00    +0.000 A 
ATOM     13  C   UNL     1       1.280   2.503  20.828  0.00  0.00    +0.000 A 
ATOM     14  C   UNL     1       1.986   3.405  21.625  0.00  0.00    +0.000 A 
ATOM     15  C   UNL     1       2.420   4.616  21.088  0.00  0.00    +0.000 A 
ENDBRANCH   8  10
ENDBRANCH   1   8
BRANCH   4  16
ATOM     16  C   UNL     1       6.400   4.418  16.258  0.00  0.00    +0.000 C 
BRANCH  16  17
ATOM     17  C   UNL     1       6.703   4.411  14.774  0.00  0.00    +0.000 A 
ATOM     18  C   UNL     1       7.645   5.297  14.225  0.00  0.00    +0.000 A 
ATOM     19  C   UNL     1       7.915   5.289  12.853  0.00  0.00    +0.000 A 
ATOM     20  C   UNL     1       7.247   4.396  12.016  0.00  0.00    +0.000 A 
ATOM     21  C   UNL     1       6.316   3.509  12.555  0.00  0.00    +0.000 A 
ATOM     22 CL   UNL     1       5.489   2.407  11.525  0.00  0.00    +0.000 Cl
ATOM     23  C   UNL     1       6.045   3.510  13.922  0.00  0.00    +0.000 A 
ENDBRANCH  16  17
ENDBRANCH   4  16
TORSDOF 4
ENDMDL
