MODEL 1
REMARK VINA RESULT:      -7.4      0.000      0.000
REMARK  Name = 
REMARK  5 active torsions:
REMARK  status: ('A' for Active; 'I' for Inactive)
REMARK    1  A    between atoms: C_1  and  O_2
REMARK    2  A    between atoms: O_2  and  C_3
REMARK    3  A    between atoms: C_6  and  C_7
REMARK    4  A    between atoms: C_14  and  O_15
REMARK    5  A    between atoms: O_15  and  C_16
REMARK                            x       y       z     vdW  Elec       q    Type
REMARK                         _______ _______ _______ _____ _____    ______ ____
ROOT
ATOM      1  C   UNL     1       2.276   6.546  18.529  0.00  0.00    +0.000 C 
ATOM      2  C   UNL     1       1.795   5.267  19.233  0.00  0.00    +0.000 C 
ATOM      3  C   UNL     1       2.025   4.126  18.311  0.00  0.00    +0.000 C 
ATOM      4  O   UNL     1       1.179   3.562  17.641  0.00  0.00    +0.000 OA
ATOM      5  O   UNL     1       3.354   3.811  18.357  0.00  0.00    +0.000 OA
ATOM      6  C   UNL     1       4.057   4.872  17.777  0.00  0.00    +0.000 A 
ATOM      7  C   UNL     1       5.126   4.388  16.995  0.00  0.00    +0.000 A 
ATOM      8  C   UNL     1       5.729   5.184  16.039  0.00  0.00    +0.000 A 
ATOM      9  C   UNL     1       5.284   6.500  15.932  0.00  0.00    +0.000 A 
ATOM     10  C   UNL     1       4.262   7.023  16.811  0.00  0.00    +0.000 A 
ATOM     11  C   UNL     1       3.600   6.217  17.795  0.00  0.00    +0.000 A 
ENDROOT
BRANCH   1  15
ATOM     12  C   UNL     1       0.889   9.812  21.174  0.00  0.00    +0.000 A 
ATOM     13  C   UNL     1       1.225   8.567  21.730  0.00  0.00    +0.000 A 
ATOM     14  C   UNL     1       1.745   7.492  20.948  0.00  0.00    +0.000 A 
ATOM     15  C   UNL     1       1.953   7.646  19.576  0.00  0.00    +0.000 A 
ATOM     16  C   UNL     1       1.562   8.914  19.038  0.00  0.00    +0.000 A 
ATOM     17  C   UNL     1       1.028   9.968  19.807  0.00  0.00    +0.000 A 
BRANCH  12  19
ATOM     18  C   UNL     1      -0.691  10.363  22.883  0.00  0.00    +0.000 C 
ATOM     19  O   UNL     1       0.390  10.757  22.032  0.00  0.00    +0.000 OA
ENDBRANCH  12  19
ENDBRANCH   1  15
BRANCH   8  20
ATOM     20  O   UNL     1       6.686   4.486  15.370  0.00  0.00    +0.000 OA
ATOM     21  C   UNL     1       6.555   4.036  14.032  0.00  0.00    +0.000 C 
ENDBRANCH   8  20
TORSDOF 3
ENDMDL
MODEL 2
REMARK VINA RESULT:      -7.3      4.169      7.965
REMARK  Name = 
REMARK  5 active torsions:
REMARK  status: ('A' for Active; 'I' for Inactive)
REMARK    1  A    between atoms: C_1  and  O_2
REMARK    2  A    between atoms: O_2  and  C_3
REMARK    3  A    between atoms: C_6  and  C_7
REMARK    4  A    between atoms: C_14  and  O_15
REMARK    5  A    between atoms: O_15  and  C_16
REMARK                            x       y       z     vdW  Elec       q    Type
REMARK                         _______ _______ _______ _____ _____    ______ ____
ROOT
ATOM      1  C   UNL     1       5.009   4.762  16.782  0.00  0.00    +0.000 C 
ATOM      2  C   UNL     1       6.313   4.504  17.555  0.00  0.00    +0.000 C 
ATOM      3  C   UNL     1       6.025   4.669  19.002  0.00  0.00    +0.000 C 
ATOM      4  O   UNL     1       6.315   5.634  19.686  0.00  0.00    +0.000 OA
ATOM      5  O   UNL     1       5.388   3.541  19.435  0.00  0.00    +0.000 OA
ATOM      6  C   UNL     1       4.126   3.513  18.832  0.00  0.00    +0.000 A 
ATOM      7  C   UNL     1       3.154   3.049  19.741  0.00  0.00    +0.000 A 
ATOM      8  C   UNL     1       1.807   3.277  19.525  0.00  0.00    +0.000 A 
ATOM      9  C   UNL     1       1.451   3.919  18.340  0.00  0.00    +0.000 A 
ATOM     10  C   UNL     1       2.446   4.295  17.359  0.00  0.00    +0.000 A 
ATOM     11  C   UNL     1       3.851   4.096  17.565  0.00  0.00    +0.000 A 
ENDROOT
BRANCH   1  15
ATOM     12  C   UNL     1       6.793   4.068  12.791  0.00  0.00    +0.000 A 
ATOM     13  C   UNL     1       5.500   3.594  13.063  0.00  0.00    +0.000 A 
ATOM     14  C   UNL     1       4.835   3.842  14.302  0.00  0.00    +0.000 A 
ATOM     15  C   UNL     1       5.456   4.588  15.305  0.00  0.00    +0.000 A 
ATOM     16  C   UNL     1       6.788   5.021  15.008  0.00  0.00    +0.000 A 
ATOM     17  C   UNL     1       7.452   4.758  13.793  0.00  0.00    +0.000 A 
BRANCH  12  19
ATOM     18  C   UNL     1       7.324   2.372  11.191  0.00  0.00    +0.000 C 
ATOM     19  O   UNL     1       7.322   3.753  11.567  0.00  0.00    +0.000 OA
ENDBRANCH  12  19
ENDBRANCH   1  15
BRANCH   8  20
ATOM     20  O   UNL     1       1.069   2.797  20.561  0.00  0.00    +0.000 OA
ATOM     21  C   UNL     1       1.580   2.570  21.865  0.00  0.00    +0.000 C 
ENDBRANCH   8  20
TORSDOF 3
ENDMDL
MODEL 3
REMARK VINA RESULT:      -7.2      1.020      1.058
REMARK  Name = 
REMARK  5 active torsions:
REMARK  status: ('A' for Active; 'I' for Inactive)
REMARK    1  A    between atoms: C_1  and  O_2
REMARK    2  A    between atoms: O_2  and  C_3
REMARK    3  A    between atoms: C_6  and  C_7
REMARK    4  A    between atoms: C_14  and  O_15
REMARK    5  A    between atoms: O_15  and  C_16
REMARK                            x       y       z     vdW  Elec       q    Type
REMARK                         _______ _______ _______ _____ _____    ______ ____
ROOT
ATOM      1  C   UNL     1       2.739   6.297  18.976  0.00  0.00    +0.000 C 
ATOM      2  C   UNL     1       2.900   5.276  20.115  0.00  0.00    +0.000 C 
ATOM      3  C   UNL     1       3.492   4.042  19.540  0.00  0.00    +0.000 C 
ATOM      4  O   UNL     1       2.894   3.014  19.281  0.00  0.00    +0.000 OA
ATOM      5  O   UNL     1       4.829   4.258  19.365  0.00  0.00    +0.000 OA
ATOM      6  C   UNL     1       4.971   5.215  18.353  0.00  0.00    +0.000 A 
ATOM      7  C   UNL     1       6.063   4.894  17.522  0.00  0.00    +0.000 A 
ATOM      8  C   UNL     1       6.187   5.450  16.261  0.00  0.00    +0.000 A 
ATOM      9  C   UNL     1       5.230   6.388  15.880  0.00  0.00    +0.000 A 
ATOM     10  C   UNL     1       4.173   6.794  16.782  0.00  0.00    +0.000 A 
ATOM     11  C   UNL     1       4.002   6.218  18.083  0.00  0.00    +0.000 A 
ENDROOT
BRANCH   1  15
ATOM     12  C   UNL     1       0.531   9.781  20.581  0.00  0.00    +0.000 A 
ATOM     13  C   UNL     1       0.777   8.676  21.411  0.00  0.00    +0.000 A 
ATOM     14  C   UNL     1       1.542   7.549  20.983  0.00  0.00    +0.000 A 
ATOM     15  C   UNL     1       2.093   7.509  19.702  0.00  0.00    +0.000 A 
ATOM     16  C   UNL     1       1.788   8.634  18.870  0.00  0.00    +0.000 A 
ATOM     17  C   UNL     1       1.015   9.737  19.286  0.00  0.00    +0.000 A 
BRANCH  12  19
ATOM     18  C   UNL     1      -0.583  10.691  22.491  0.00  0.00    +0.000 C 
ATOM     19  O   UNL     1      -0.226  10.794  21.109  0.00  0.00    +0.000 OA
ENDBRANCH  12  19
ENDBRANCH   1  15
BRANCH   8  20
ATOM     20  O   UNL     1       7.278   4.946  15.623  0.00  0.00    +0.000 OA
ATOM     21  C   UNL     1       7.359   4.750  14.220  0.00  0.00    +0.000 C 
ENDBRANCH   8  20
TORSDOF 3
ENDMDL
MODEL 4
REMARK VINA RESULT:      -7.2      1.029      1.072
REMARK  Name = 
REMARK  5 active torsions:
REMARK  status: ('A' for Active; 'I' for Inactive)
REMARK    1  A    between atoms: C_1  and  O_2
REMARK    2  A    between atoms: O_2  and  C_3
REMARK    3  A    between atoms: C_6  and  C_7
REMARK    4  A    between atoms: C_14  and  O_15
REMARK    5  A    between atoms: O_15  and  C_16
REMARK                            x       y       z     vdW  Elec       q    Type
REMARK                         _______ _______ _______ _____ _____    ______ ____
ROOT
ATOM      1  C   UNL     1       2.098   6.694  19.447  0.00  0.00    +0.000 C 
ATOM      2  C   UNL     1       1.835   5.589  20.483  0.00  0.00    +0.000 C 
ATOM      3  C   UNL     1       2.134   4.284  19.841  0.00  0.00    +0.000 C 
ATOM      4  O   UNL     1       1.315   3.488  19.419  0.00  0.00    +0.000 OA
ATOM      5  O   UNL     1       3.490   4.127  19.820  0.00  0.00    +0.000 OA
ATOM      6  C   UNL     1       4.009   5.076  18.933  0.00  0.00    +0.000 A 
ATOM      7  C   UNL     1       5.066   4.522  18.181  0.00  0.00    +0.000 A 
ATOM      8  C   UNL     1       5.490   5.112  17.004  0.00  0.00    +0.000 A 
ATOM      9  C   UNL     1       4.878   6.308  16.633  0.00  0.00    +0.000 A 
ATOM     10  C   UNL     1       3.870   6.927  17.465  0.00  0.00    +0.000 A 
ATOM     11  C   UNL     1       3.391   6.329  18.677  0.00  0.00    +0.000 A 
ENDROOT
BRANCH   1  15
ATOM     12  C   UNL     1       0.594  10.432  21.280  0.00  0.00    +0.000 A 
ATOM     13  C   UNL     1       0.850   9.316  22.094  0.00  0.00    +0.000 A 
ATOM     14  C   UNL     1       1.401   8.103  21.582  0.00  0.00    +0.000 A 
ATOM     15  C   UNL     1       1.722   7.983  20.229  0.00  0.00    +0.000 A 
ATOM     16  C   UNL     1       1.411   9.125  19.424  0.00  0.00    +0.000 A 
ATOM     17  C   UNL     1       0.847  10.315  19.926  0.00  0.00    +0.000 A 
BRANCH  12  19
ATOM     18  C   UNL     1      -0.980  11.304  22.855  0.00  0.00    +0.000 C 
ATOM     19  O   UNL     1       0.055  11.533  21.893  0.00  0.00    +0.000 OA
ENDBRANCH  12  19
ENDBRANCH   1  15
BRANCH   8  20
ATOM     20  O   UNL     1       6.472   4.370  16.425  0.00  0.00    +0.000 OA
ATOM     21  C   UNL     1       7.009   4.627  15.137  0.00  0.00    +0.000 C 
ENDBRANCH   8  20
TORSDOF 3
ENDMDL
MODEL 5
REMARK VINA RESULT:      -7.1      2.068      7.774
REMARK  Name = 
REMARK  5 active torsions:
REMARK  status: ('A' for Active; 'I' for Inactive)
REMARK    1  A    between atoms: C_1  and  O_2
REMARK    2  A    between atoms: O_2  and  C_3
REMARK    3  A    between atoms: C_6  and  C_7
REMARK    4  A    between atoms: C_14  and  O_15
REMARK    5  A    between atoms: O_15  and  C_16
REMARK                            x       y       z     vdW  Elec       q    Type
REMARK                         _______ _______ _______ _____ _____    ______ ____
ROOT
ATOM      1  C   UNL     1       5.527   5.701  17.006  0.00  0.00    +0.000 C 
ATOM      2  C   UNL     1       6.225   4.610  17.833  0.00  0.00    +0.000 C 
ATOM      3  C   UNL     1       6.149   5.003  19.263  0.00  0.00    +0.000 C 
ATOM      4  O   UNL     1       7.053   5.481  19.924  0.00  0.00    +0.000 OA
ATOM      5  O   UNL     1       4.889   4.724  19.710  0.00  0.00    +0.000 OA
ATOM      6  C   UNL     1       4.010   5.599  19.062  0.00  0.00    +0.000 A 
ATOM      7  C   UNL     1       3.008   6.039  19.951  0.00  0.00    +0.000 A 
ATOM      8  C   UNL     1       2.258   7.169  19.678  0.00  0.00    +0.000 A 
ATOM      9  C   UNL     1       2.487   7.808  18.461  0.00  0.00    +0.000 A 
ATOM     10  C   UNL     1       3.440   7.288  17.505  0.00  0.00    +0.000 A 
ATOM     11  C   UNL     1       4.250   6.135  17.768  0.00  0.00    +0.000 A 
ENDROOT
BRANCH   1  15
ATOM     12  C   UNL     1       6.532   3.979  13.055  0.00  0.00    +0.000 A 
ATOM     13  C   UNL     1       5.237   3.814  13.572  0.00  0.00    +0.000 A 
ATOM     14  C   UNL     1       4.822   4.401  14.805  0.00  0.00    +0.000 A 
ATOM     15  C   UNL     1       5.704   5.184  15.552  0.00  0.00    +0.000 A 
ATOM     16  C   UNL     1       7.027   5.297  15.014  0.00  0.00    +0.000 A 
ATOM     17  C   UNL     1       7.442   4.700  13.807  0.00  0.00    +0.000 A 
BRANCH  12  19
ATOM     18  C   UNL     1       5.995   2.229  11.515  0.00  0.00    +0.000 C 
ATOM     19  O   UNL     1       6.806   3.355  11.865  0.00  0.00    +0.000 OA
ENDBRANCH  12  19
ENDBRANCH   1  15
BRANCH   8  20
ATOM     20  O   UNL     1       1.403   7.433  20.703  0.00  0.00    +0.000 OA
ATOM     21  C   UNL     1       1.149   8.732  21.212  0.00  0.00    +0.000 C 
ENDBRANCH   8  20
TORSDOF 3
ENDMDL
MODEL 6
REMARK VINA RESULT:      -7.0      3.392      8.109
REMARK  Name = 
REMARK  5 active torsions:
REMARK  status: ('A' for Active; 'I' for Inactive)
REMARK    1  A    between atoms: C_1  and  O_2
REMARK    2  A    between atoms: O_2  and  C_3
REMARK    3  A    between atoms: C_6  and  C_7
REMARK    4  A    between atoms: C_14  and  O_15
REMARK    5  A    between atoms: O_15  and  C_16
REMARK                            x       y       z     vdW  Elec       q    Type
REMARK                         _______ _______ _______ _____ _____    ______ ____
ROOT
ATOM      1  C   UNL     1       5.844   5.335  16.503  0.00  0.00    +0.000 C 
ATOM      2  C   UNL     1       7.172   4.874  17.127  0.00  0.00    +0.000 C 
ATOM      3  C   UNL     1       7.161   5.264  18.559  0.00  0.00    +0.000 C 
ATOM      4  O   UNL     1       7.753   6.209  19.050  0.00  0.00    +0.000 OA
ATOM      5  O   UNL     1       6.380   4.370  19.233  0.00  0.00    +0.000 OA
ATOM      6  C   UNL     1       5.060   4.564  18.811  0.00  0.00    +0.000 A 
ATOM      7  C   UNL     1       4.171   4.441  19.899  0.00  0.00    +0.000 A 
ATOM      8  C   UNL     1       2.886   4.946  19.830  0.00  0.00    +0.000 A 
ATOM      9  C   UNL     1       2.487   5.513  18.621  0.00  0.00    +0.000 A 
ATOM     10  C   UNL     1       3.367   5.537  17.474  0.00  0.00    +0.000 A 
ATOM     11  C   UNL     1       4.713   5.046  17.521  0.00  0.00    +0.000 A 
ENDROOT
BRANCH   1  15
ATOM     12  C   UNL     1       6.843   3.931  12.425  0.00  0.00    +0.000 A 
ATOM     13  C   UNL     1       5.647   3.510  13.029  0.00  0.00    +0.000 A 
ATOM     14  C   UNL     1       5.227   3.977  14.311  0.00  0.00    +0.000 A 
ATOM     15  C   UNL     1       6.001   4.896  15.021  0.00  0.00    +0.000 A 
ATOM     16  C   UNL     1       7.232   5.272  14.393  0.00  0.00    +0.000 A 
ATOM     17  C   UNL     1       7.656   4.795  13.137  0.00  0.00    +0.000 A 
BRANCH  12  19
ATOM     18  C   UNL     1       7.315   1.983  11.123  0.00  0.00    +0.000 C 
ATOM     19  O   UNL     1       7.135   3.401  11.196  0.00  0.00    +0.000 OA
ENDBRANCH  12  19
ENDBRANCH   1  15
BRANCH   8  20
ATOM     20  O   UNL     1       2.239   4.769  21.014  0.00  0.00    +0.000 OA
ATOM     21  C   UNL     1       2.090   3.515  21.660  0.00  0.00    +0.000 C 
ENDBRANCH   8  20
TORSDOF 3
ENDMDL
MODEL 7
REMARK VINA RESULT:      -7.0      0.976      1.458
REMARK  Name = 
REMARK  5 active torsions:
REMARK  status: ('A' for Active; 'I' for Inactive)
REMARK    1  A    between atoms: C_1  and  O_2
REMARK    2  A    between atoms: O_2  and  C_3
REMARK    3  A    between atoms: C_6  and  C_7
REMARK    4  A    between atoms: C_14  and  O_15
REMARK    5  A    between atoms: O_15  and  C_16
REMARK                            x       y       z     vdW  Elec       q    Type
REMARK                         _______ _______ _______ _____ _____    ______ ____
ROOT
ATOM      1  C   UNL     1       2.489   6.552  18.939  0.00  0.00    +0.000 C 
ATOM      2  C   UNL     1       2.621   5.582  20.124  0.00  0.00    +0.000 C 
ATOM      3  C   UNL     1       3.286   4.349  19.632  0.00  0.00    +0.000 C 
ATOM      4  O   UNL     1       2.738   3.291  19.381  0.00  0.00    +0.000 OA
ATOM      5  O   UNL     1       4.622   4.607  19.521  0.00  0.00    +0.000 OA
ATOM      6  C   UNL     1       4.787   5.529  18.481  0.00  0.00    +0.000 A 
ATOM      7  C   UNL     1       5.935   5.218  17.723  0.00  0.00    +0.000 A 
ATOM      8  C   UNL     1       6.110   5.730  16.451  0.00  0.00    +0.000 A 
ATOM      9  C   UNL     1       5.143   6.618  15.982  0.00  0.00    +0.000 A 
ATOM     10  C   UNL     1       4.025   7.018  16.807  0.00  0.00    +0.000 A 
ATOM     11  C   UNL     1       3.802   6.486  18.120  0.00  0.00    +0.000 A 
ENDROOT
BRANCH   1  15
ATOM     12  C   UNL     1       0.827   9.982  21.189  0.00  0.00    +0.000 A 
ATOM     13  C   UNL     1       1.034  10.097  19.805  0.00  0.00    +0.000 A 
ATOM     14  C   UNL     1       1.500   9.011  19.005  0.00  0.00    +0.000 A 
ATOM     15  C   UNL     1       1.762   7.766  19.579  0.00  0.00    +0.000 A 
ATOM     16  C   UNL     1       1.579   7.697  20.998  0.00  0.00    +0.000 A 
ATOM     17  C   UNL     1       1.139   8.776  21.791  0.00  0.00    +0.000 A 
BRANCH  12  19
ATOM     18  C   UNL     1      -0.695  10.938  22.766  0.00  0.00    +0.000 C 
ATOM     19  O   UNL     1       0.386  11.103  21.844  0.00  0.00    +0.000 OA
ENDBRANCH  12  19
ENDBRANCH   1  15
BRANCH   8  20
ATOM     20  O   UNL     1       7.251   5.243  15.893  0.00  0.00    +0.000 OA
ATOM     21  C   UNL     1       7.345   4.766  14.560  0.00  0.00    +0.000 C 
ENDBRANCH   8  20
TORSDOF 3
ENDMDL
MODEL 8
REMARK VINA RESULT:      -7.0      1.818      7.816
REMARK  Name = 
REMARK  5 active torsions:
REMARK  status: ('A' for Active; 'I' for Inactive)
REMARK    1  A    between atoms: C_1  and  O_2
REMARK    2  A    between atoms: O_2  and  C_3
REMARK    3  A    between atoms: C_6  and  C_7
REMARK    4  A    between atoms: C_14  and  O_15
REMARK    5  A    between atoms: O_15  and  C_16
REMARK                            x       y       z     vdW  Elec       q    Type
REMARK                         _______ _______ _______ _____ _____    ______ ____
ROOT
ATOM      1  C   UNL     1       1.389   8.249  19.111  0.00  0.00    +0.000 C 
ATOM      2  C   UNL     1       1.324   9.214  17.917  0.00  0.00    +0.000 C 
ATOM      3  C   UNL     1       0.117  10.062  18.082  0.00  0.00    +0.000 C 
ATOM      4  O   UNL     1      -0.937   9.934  17.486  0.00  0.00    +0.000 OA
ATOM      5  O   UNL     1       0.401  11.021  19.013  0.00  0.00    +0.000 OA
ATOM      6  C   UNL     1       0.545  10.378  20.247  0.00  0.00    +0.000 A 
ATOM      7  C   UNL     1      -0.029  11.153  21.276  0.00  0.00    +0.000 A 
ATOM      8  C   UNL     1      -0.349  10.590  22.498  0.00  0.00    +0.000 A 
ATOM      9  C   UNL     1      -0.017   9.251  22.691  0.00  0.00    +0.000 A 
ATOM     10  C   UNL     1       0.671   8.491  21.670  0.00  0.00    +0.000 A 
ATOM     11  C   UNL     1       0.994   9.038  20.384  0.00  0.00    +0.000 A 
ENDROOT
BRANCH   1  15
ATOM     12  C   UNL     1       4.670   5.396  18.280  0.00  0.00    +0.000 A 
ATOM     13  C   UNL     1       4.478   6.496  17.430  0.00  0.00    +0.000 A 
ATOM     14  C   UNL     1       3.486   7.493  17.675  0.00  0.00    +0.000 A 
ATOM     15  C   UNL     1       2.662   7.414  18.799  0.00  0.00    +0.000 A 
ATOM     16  C   UNL     1       2.859   6.259  19.621  0.00  0.00    +0.000 A 
ATOM     17  C   UNL     1       3.824   5.264  19.367  0.00  0.00    +0.000 A 
BRANCH  12  19
ATOM     18  C   UNL     1       6.009   4.444  16.542  0.00  0.00    +0.000 C 
ATOM     19  O   UNL     1       5.650   4.506  17.927  0.00  0.00    +0.000 OA
ENDBRANCH  12  19
ENDBRANCH   1  15
BRANCH   8  20
ATOM     20  O   UNL     1      -0.946  11.509  23.305  0.00  0.00    +0.000 OA
ATOM     21  C   UNL     1      -2.236  12.052  23.074  0.00  0.00    +0.000 C 
ENDBRANCH   8  20
TORSDOF 3
ENDMDL
MODEL 9
REMARK VINA RESULT:      -6.9      2.248      3.766
REMARK  Name = 
REMARK  5 active torsions:
REMARK  status: ('A' for Active; 'I' for Inactive)
REMARK    1  A    between atoms: C_1  and  O_2
REMARK    2  A    between atoms: O_2  and  C_3
REMARK    3  A    between atoms: C_6  and  C_7
REMARK    4  A    between atoms: C_14  and  O_15
REMARK    5  A    between atoms: O_15  and  C_16
REMARK                            x       y       z     vdW  Elec       q    Type
REMARK                         _______ _______ _______ _____ _____    ______ ____
ROOT
ATOM      1  C   UNL     1       2.395   7.637  19.271  0.00  0.00    +0.000 C 
ATOM      2  C   UNL     1       2.984   7.938  17.883  0.00  0.00    +0.000 C 
ATOM      3  C   UNL     1       3.987   6.888  17.577  0.00  0.00    +0.000 C 
ATOM      4  O   UNL     1       5.197   7.010  17.644  0.00  0.00    +0.000 OA
ATOM      5  O   UNL     1       3.314   5.762  17.194  0.00  0.00    +0.000 OA
ATOM      6  C   UNL     1       2.636   5.277  18.318  0.00  0.00    +0.000 A 
ATOM      7  C   UNL     1       2.687   3.868  18.354  0.00  0.00    +0.000 A 
ATOM      8  C   UNL     1       2.429   3.175  19.522  0.00  0.00    +0.000 A 
ATOM      9  C   UNL     1       2.050   3.921  20.637  0.00  0.00    +0.000 A 
ATOM     10  C   UNL     1       1.893   5.357  20.563  0.00  0.00    +0.000 A 
ATOM     11  C   UNL     1       2.177   6.107  19.375  0.00  0.00    +0.000 A 
ENDROOT
BRANCH   1  15
ATOM     12  C   UNL     1      -0.749  10.750  19.400  0.00  0.00    +0.000 A 
ATOM     13  C   UNL     1      -0.352  10.118  20.589  0.00  0.00    +0.000 A 
ATOM     14  C   UNL     1       0.702   9.157  20.633  0.00  0.00    +0.000 A 
ATOM     15  C   UNL     1       1.399   8.812  19.474  0.00  0.00    +0.000 A 
ATOM     16  C   UNL     1       0.941   9.446  18.274  0.00  0.00    +0.000 A 
ATOM     17  C   UNL     1      -0.115  10.379  18.228  0.00  0.00    +0.000 A 
BRANCH  12  19
ATOM     18  C   UNL     1      -2.814  11.557  18.505  0.00  0.00    +0.000 C 
ATOM     19  O   UNL     1      -1.781  11.647  19.491  0.00  0.00    +0.000 OA
ENDBRANCH  12  19
ENDBRANCH   1  15
BRANCH   8  20
ATOM     20  O   UNL     1       2.600   1.839  19.332  0.00  0.00    +0.000 OA
ATOM     21  C   UNL     1       3.615   1.274  18.519  0.00  0.00    +0.000 C 
ENDBRANCH   8  20
TORSDOF 3
ENDMDL
