MODEL 1
REMARK VINA RESULT:      -8.5      0.000      0.000
REMARK  Name = 
REMARK  7 active torsions:
REMARK  status: ('A' for Active; 'I' for Inactive)
REMARK    1  A    between atoms: C_1  and  C_2
REMARK    2  A    between atoms: C_2  and  C_3
REMARK    3  A    between atoms: C_5  and  C_6
REMARK    4  A    between atoms: C_5  and  C_16
REMARK    5  A    between atoms: C_6  and  C_7
REMARK    6  A    between atoms: C_7  and  N_8
REMARK    7  A    between atoms: N_8  and  C_9
REMARK                            x       y       z     vdW  Elec       q    Type
REMARK                         _______ _______ _______ _____ _____    ______ ____
ROOT
ATOM      1  C   UNL     1       2.328   2.756  21.570  0.00  0.00    +0.000 C 
ATOM      2  C   UNL     1       2.932   2.983  20.171  0.00  0.00    +0.000 C 
ATOM      3  C   UNL     1       4.326   2.342  20.167  0.00  0.00    +0.000 C 
ATOM      4  C   UNL     1       2.952   4.505  19.900  0.00  0.00    +0.000 C 
ATOM      5  C   UNL     1       3.071   4.946  18.407  0.00  0.00    +0.000 C 
ATOM      6  C   UNL     1       2.025   4.082  17.642  0.00  0.00    +0.000 C 
ATOM      7  C   UNL     1       2.202   2.594  17.901  0.00  0.00    +0.000 C 
ATOM      8  O   UNL     1       2.049   2.297  19.282  0.00  0.00    +0.000 OA
ENDROOT
BRANCH   5   9
ATOM      9  C   UNL     1       4.498   4.845  17.808  0.00  0.00    +0.000 A 
ATOM     10  C   UNL     1       5.641   5.198  18.551  0.00  0.00    +0.000 A 
ATOM     11  C   UNL     1       6.933   5.051  18.033  0.00  0.00    +0.000 A 
ATOM     12  C   UNL     1       7.119   4.528  16.758  0.00  0.00    +0.000 A 
ATOM     13  C   UNL     1       6.015   4.149  16.008  0.00  0.00    +0.000 A 
ATOM     14  C   UNL     1       4.724   4.306  16.525  0.00  0.00    +0.000 A 
ENDBRANCH   5   9
BRANCH   5  15
ATOM     15  C   UNL     1       2.591   6.443  18.280  0.00  0.00    +0.000 C 
BRANCH  15  16
ATOM     16  C   UNL     1       2.276   7.132  19.613  0.00  0.00    +0.000 C 
BRANCH  16  17
ATOM     17  N   UNL     1       1.769   8.490  19.399  0.00  0.00    +0.000 N 
ATOM     18  H   UNL     1       1.291   8.595  18.506  0.00  0.00    +0.000 HD
BRANCH  17  19
ATOM     19  C   UNL     1       1.014   9.054  20.448  0.00  0.00    +0.000 A 
ATOM     20  C   UNL     1       1.218   8.730  21.800  0.00  0.00    +0.000 A 
ATOM     21  C   UNL     1       0.486   9.345  22.822  0.00  0.00    +0.000 A 
ATOM     22  C   UNL     1      -0.446  10.326  22.509  0.00  0.00    +0.000 A 
ATOM     23  C   UNL     1      -0.619  10.694  21.181  0.00  0.00    +0.000 A 
ATOM     24  F   UNL     1      -1.500  11.655  20.878  0.00  0.00    +0.000 F 
ATOM     25  C   UNL     1       0.109  10.083  20.161  0.00  0.00    +0.000 A 
ENDBRANCH  17  19
ENDBRANCH  16  17
ENDBRANCH  15  16
ENDBRANCH   5  15
TORSDOF 5
ENDMDL
MODEL 2
REMARK VINA RESULT:      -8.5      0.952      1.675
REMARK  Name = 
REMARK  7 active torsions:
REMARK  status: ('A' for Active; 'I' for Inactive)
REMARK    1  A    between atoms: C_1  and  C_2
REMARK    2  A    between atoms: C_2  and  C_3
REMARK    3  A    between atoms: C_5  and  C_6
REMARK    4  A    between atoms: C_5  and  C_16
REMARK    5  A    between atoms: C_6  and  C_7
REMARK    6  A    between atoms: C_7  and  N_8
REMARK    7  A    between atoms: N_8  and  C_9
REMARK                            x       y       z     vdW  Elec       q    Type
REMARK                         _______ _______ _______ _____ _____    ______ ____
ROOT
ATOM      1  C   UNL     1       1.852   2.779  21.598  0.00  0.00    +0.000 C 
ATOM      2  C   UNL     1       2.648   2.956  20.291  0.00  0.00    +0.000 C 
ATOM      3  C   UNL     1       4.050   2.381  20.529  0.00  0.00    +0.000 C 
ATOM      4  C   UNL     1       2.650   4.460  19.933  0.00  0.00    +0.000 C 
ATOM      5  C   UNL     1       2.971   4.824  18.449  0.00  0.00    +0.000 C 
ATOM      6  C   UNL     1       2.084   3.871  17.595  0.00  0.00    +0.000 C 
ATOM      7  C   UNL     1       2.276   2.410  17.967  0.00  0.00    +0.000 C 
ATOM      8  O   UNL     1       1.932   2.182  19.326  0.00  0.00    +0.000 OA
ENDROOT
BRANCH   5   9
ATOM      9  C   UNL     1       4.474   4.756  18.072  0.00  0.00    +0.000 A 
ATOM     10  C   UNL     1       4.903   4.315  16.805  0.00  0.00    +0.000 A 
ATOM     11  C   UNL     1       6.255   4.310  16.444  0.00  0.00    +0.000 A 
ATOM     12  C   UNL     1       7.219   4.766  17.337  0.00  0.00    +0.000 A 
ATOM     13  C   UNL     1       6.828   5.228  18.585  0.00  0.00    +0.000 A 
ATOM     14  C   UNL     1       5.476   5.223  18.947  0.00  0.00    +0.000 A 
ENDBRANCH   5   9
BRANCH   5  15
ATOM     15  C   UNL     1       2.459   6.288  18.162  0.00  0.00    +0.000 C 
BRANCH  15  16
ATOM     16  C   UNL     1       2.283   7.163  19.409  0.00  0.00    +0.000 C 
BRANCH  16  17
ATOM     17  N   UNL     1       1.877   8.523  19.047  0.00  0.00    +0.000 N 
ATOM     18  H   UNL     1       1.464   8.576  18.117  0.00  0.00    +0.000 HD
BRANCH  17  19
ATOM     19  C   UNL     1       1.093   9.220  19.990  0.00  0.00    +0.000 A 
ATOM     20  C   UNL     1       0.171  10.217  19.632  0.00  0.00    +0.000 A 
ATOM     21  C   UNL     1      -0.629  10.855  20.588  0.00  0.00    +0.000 A 
ATOM     22  C   UNL     1      -0.542  10.480  21.923  0.00  0.00    +0.000 A 
ATOM     23  C   UNL     1       0.328   9.458  22.280  0.00  0.00    +0.000 A 
ATOM     24  F   UNL     1       0.398   9.078  23.563  0.00  0.00    +0.000 F 
ATOM     25  C   UNL     1       1.125   8.821  21.331  0.00  0.00    +0.000 A 
ENDBRANCH  17  19
ENDBRANCH  16  17
ENDBRANCH  15  16
ENDBRANCH   5  15
TORSDOF 5
ENDMDL
MODEL 3
REMARK VINA RESULT:      -8.4      1.033      1.417
REMARK  Name = 
REMARK  7 active torsions:
REMARK  status: ('A' for Active; 'I' for Inactive)
REMARK    1  A    between atoms: C_1  and  C_2
REMARK    2  A    between atoms: C_2  and  C_3
REMARK    3  A    between atoms: C_5  and  C_6
REMARK    4  A    between atoms: C_5  and  C_16
REMARK    5  A    between atoms: C_6  and  C_7
REMARK    6  A    between atoms: C_7  and  N_8
REMARK    7  A    between atoms: N_8  and  C_9
REMARK                            x       y       z     vdW  Elec       q    Type
REMARK                         _______ _______ _______ _____ _____    ______ ____
ROOT
ATOM      1  C   UNL     1       2.059   3.276  21.612  0.00  0.00    +0.000 C 
ATOM      2  C   UNL     1       2.684   3.483  20.220  0.00  0.00    +0.000 C 
ATOM      3  C   UNL     1       3.964   2.639  20.164  0.00  0.00    +0.000 C 
ATOM      4  C   UNL     1       2.934   4.997  20.027  0.00  0.00    +0.000 C 
ATOM      5  C   UNL     1       3.111   5.493  18.557  0.00  0.00    +0.000 C 
ATOM      6  C   UNL     1       1.942   4.839  17.763  0.00  0.00    +0.000 C 
ATOM      7  C   UNL     1       1.892   3.330  17.942  0.00  0.00    +0.000 C 
ATOM      8  O   UNL     1       1.703   2.986  19.307  0.00  0.00    +0.000 OA
ENDROOT
BRANCH   5   9
ATOM      9  C   UNL     1       4.503   5.209  17.936  0.00  0.00    +0.000 A 
ATOM     10  C   UNL     1       5.690   5.340  18.683  0.00  0.00    +0.000 A 
ATOM     11  C   UNL     1       6.942   5.027  18.141  0.00  0.00    +0.000 A 
ATOM     12  C   UNL     1       7.040   4.555  16.836  0.00  0.00    +0.000 A 
ATOM     13  C   UNL     1       5.888   4.393  16.081  0.00  0.00    +0.000 A 
ATOM     14  C   UNL     1       4.639   4.716  16.622  0.00  0.00    +0.000 A 
ENDBRANCH   5   9
BRANCH   5  15
ATOM     15  C   UNL     1       2.863   7.050  18.514  0.00  0.00    +0.000 C 
BRANCH  15  16
ATOM     16  C   UNL     1       2.102   7.614  19.720  0.00  0.00    +0.000 C 
BRANCH  16  17
ATOM     17  N   UNL     1       1.292   8.774  19.339  0.00  0.00    +0.000 N 
ATOM     18  H   UNL     1       0.615   8.558  18.609  0.00  0.00    +0.000 HD
BRANCH  17  19
ATOM     19  C   UNL     1       0.691   9.496  20.390  0.00  0.00    +0.000 A 
ATOM     20  C   UNL     1      -0.097  10.641  20.181  0.00  0.00    +0.000 A 
ATOM     21  C   UNL     1      -0.721  11.307  21.242  0.00  0.00    +0.000 A 
ATOM     22  C   UNL     1      -0.594  10.816  22.536  0.00  0.00    +0.000 A 
ATOM     23  C   UNL     1       0.137   9.655  22.748  0.00  0.00    +0.000 A 
ATOM     24  F   UNL     1       0.243   9.166  23.991  0.00  0.00    +0.000 F 
ATOM     25  C   UNL     1       0.761   8.990  21.693  0.00  0.00    +0.000 A 
ENDBRANCH  17  19
ENDBRANCH  16  17
ENDBRANCH  15  16
ENDBRANCH   5  15
TORSDOF 5
ENDMDL
MODEL 4
REMARK VINA RESULT:      -8.3      1.101      1.716
REMARK  Name = 
REMARK  7 active torsions:
REMARK  status: ('A' for Active; 'I' for Inactive)
REMARK    1  A    between atoms: C_1  and  C_2
REMARK    2  A    between atoms: C_2  and  C_3
REMARK    3  A    between atoms: C_5  and  C_6
REMARK    4  A    between atoms: C_5  and  C_16
REMARK    5  A    between atoms: C_6  and  C_7
REMARK    6  A    between atoms: C_7  and  N_8
REMARK    7  A    between atoms: N_8  and  C_9
REMARK                            x       y       z     vdW  Elec       q    Type
REMARK                         _______ _______ _______ _____ _____    ______ ____
ROOT
ATOM      1  C   UNL     1       2.214   2.717  21.565  0.00  0.00    +0.000 C 
ATOM      2  C   UNL     1       2.892   2.839  20.188  0.00  0.00    +0.000 C 
ATOM      3  C   UNL     1       4.321   2.300  20.332  0.00  0.00    +0.000 C 
ATOM      4  C   UNL     1       2.834   4.323  19.756  0.00  0.00    +0.000 C 
ATOM      5  C   UNL     1       3.020   4.614  18.233  0.00  0.00    +0.000 C 
ATOM      6  C   UNL     1       2.082   3.605  17.508  0.00  0.00    +0.000 C 
ATOM      7  C   UNL     1       2.336   2.168  17.935  0.00  0.00    +0.000 C 
ATOM      8  O   UNL     1       2.113   2.005  19.328  0.00  0.00    +0.000 OA
ENDROOT
BRANCH   5   9
ATOM      9  C   UNL     1       4.486   4.552  17.732  0.00  0.00    +0.000 A 
ATOM     10  C   UNL     1       4.808   4.123  16.430  0.00  0.00    +0.000 A 
ATOM     11  C   UNL     1       6.126   4.123  15.957  0.00  0.00    +0.000 A 
ATOM     12  C   UNL     1       7.161   4.570  16.772  0.00  0.00    +0.000 A 
ATOM     13  C   UNL     1       6.875   5.020  18.052  0.00  0.00    +0.000 A 
ATOM     14  C   UNL     1       5.558   5.010  18.526  0.00  0.00    +0.000 A 
ENDBRANCH   5   9
BRANCH   5  15
ATOM     15  C   UNL     1       2.456   6.054  17.919  0.00  0.00    +0.000 C 
BRANCH  15  16
ATOM     16  C   UNL     1       2.522   7.040  19.091  0.00  0.00    +0.000 C 
BRANCH  16  17
ATOM     17  N   UNL     1       2.406   8.424  18.625  0.00  0.00    +0.000 N 
ATOM     18  H   UNL     1       2.584   8.518  17.626  0.00  0.00    +0.000 HD
BRANCH  17  19
ATOM     19  C   UNL     1       1.239   9.120  19.000  0.00  0.00    +0.000 A 
ATOM     20  C   UNL     1       0.912   9.405  20.336  0.00  0.00    +0.000 A 
ATOM     21  C   UNL     1      -0.230  10.142  20.672  0.00  0.00    +0.000 A 
ATOM     22  C   UNL     1      -1.051  10.640  19.668  0.00  0.00    +0.000 A 
ATOM     23  C   UNL     1      -0.709  10.411  18.342  0.00  0.00    +0.000 A 
ATOM     24  F   UNL     1      -1.486  10.908  17.371  0.00  0.00    +0.000 F 
ATOM     25  C   UNL     1       0.427   9.677  18.004  0.00  0.00    +0.000 A 
ENDBRANCH  17  19
ENDBRANCH  16  17
ENDBRANCH  15  16
ENDBRANCH   5  15
TORSDOF 5
ENDMDL
MODEL 5
REMARK VINA RESULT:      -8.2      1.119      1.644
REMARK  Name = 
REMARK  7 active torsions:
REMARK  status: ('A' for Active; 'I' for Inactive)
REMARK    1  A    between atoms: C_1  and  C_2
REMARK    2  A    between atoms: C_2  and  C_3
REMARK    3  A    between atoms: C_5  and  C_6
REMARK    4  A    between atoms: C_5  and  C_16
REMARK    5  A    between atoms: C_6  and  C_7
REMARK    6  A    between atoms: C_7  and  N_8
REMARK    7  A    between atoms: N_8  and  C_9
REMARK                            x       y       z     vdW  Elec       q    Type
REMARK                         _______ _______ _______ _____ _____    ______ ____
ROOT
ATOM      1  C   UNL     1       2.300   2.694  21.488  0.00  0.00    +0.000 C 
ATOM      2  C   UNL     1       2.976   2.836  20.111  0.00  0.00    +0.000 C 
ATOM      3  C   UNL     1       4.429   2.369  20.265  0.00  0.00    +0.000 C 
ATOM      4  C   UNL     1       2.845   4.310  19.664  0.00  0.00    +0.000 C 
ATOM      5  C   UNL     1       3.022   4.595  18.139  0.00  0.00    +0.000 C 
ATOM      6  C   UNL     1       2.138   3.534  17.421  0.00  0.00    +0.000 C 
ATOM      7  C   UNL     1       2.461   2.115  17.863  0.00  0.00    +0.000 C 
ATOM      8  O   UNL     1       2.242   1.955  19.257  0.00  0.00    +0.000 OA
ENDROOT
BRANCH   5   9
ATOM      9  C   UNL     1       4.491   4.600  17.643  0.00  0.00    +0.000 A 
ATOM     10  C   UNL     1       5.562   4.938  18.495  0.00  0.00    +0.000 A 
ATOM     11  C   UNL     1       6.893   4.885  18.064  0.00  0.00    +0.000 A 
ATOM     12  C   UNL     1       7.193   4.474  16.770  0.00  0.00    +0.000 A 
ATOM     13  C   UNL     1       6.164   4.113  15.913  0.00  0.00    +0.000 A 
ATOM     14  C   UNL     1       4.833   4.176  16.342  0.00  0.00    +0.000 A 
ENDBRANCH   5   9
BRANCH   5  15
ATOM     15  C   UNL     1       2.389   6.001  17.809  0.00  0.00    +0.000 C 
BRANCH  15  16
ATOM     16  C   UNL     1       3.041   7.186  18.530  0.00  0.00    +0.000 C 
BRANCH  16  17
ATOM     17  N   UNL     1       2.540   8.462  18.012  0.00  0.00    +0.000 N 
ATOM     18  H   UNL     1       2.317   8.421  17.018  0.00  0.00    +0.000 HD
BRANCH  17  19
ATOM     19  C   UNL     1       1.502   9.076  18.741  0.00  0.00    +0.000 A 
ATOM     20  C   UNL     1       0.524   9.890  18.145  0.00  0.00    +0.000 A 
ATOM     21  C   UNL     1      -0.524  10.444  18.890  0.00  0.00    +0.000 A 
ATOM     22  C   UNL     1      -0.631  10.164  20.246  0.00  0.00    +0.000 A 
ATOM     23  C   UNL     1       0.299   9.318  20.835  0.00  0.00    +0.000 A 
ATOM     24  F   UNL     1       0.186   9.028  22.138  0.00  0.00    +0.000 F 
ATOM     25  C   UNL     1       1.344   8.764  20.096  0.00  0.00    +0.000 A 
ENDBRANCH  17  19
ENDBRANCH  16  17
ENDBRANCH  15  16
ENDBRANCH   5  15
TORSDOF 5
ENDMDL
MODEL 6
REMARK VINA RESULT:      -8.2      0.968      1.452
REMARK  Name = 
REMARK  7 active torsions:
REMARK  status: ('A' for Active; 'I' for Inactive)
REMARK    1  A    between atoms: C_1  and  C_2
REMARK    2  A    between atoms: C_2  and  C_3
REMARK    3  A    between atoms: C_5  and  C_6
REMARK    4  A    between atoms: C_5  and  C_16
REMARK    5  A    between atoms: C_6  and  C_7
REMARK    6  A    between atoms: C_7  and  N_8
REMARK    7  A    between atoms: N_8  and  C_9
REMARK                            x       y       z     vdW  Elec       q    Type
REMARK                         _______ _______ _______ _____ _____    ______ ____
ROOT
ATOM      1  C   UNL     1       2.246   2.507  21.516  0.00  0.00    +0.000 C 
ATOM      2  C   UNL     1       2.803   3.109  20.212  0.00  0.00    +0.000 C 
ATOM      3  C   UNL     1       4.167   2.458  19.954  0.00  0.00    +0.000 C 
ATOM      4  C   UNL     1       2.875   4.644  20.386  0.00  0.00    +0.000 C 
ATOM      5  C   UNL     1       2.951   5.492  19.077  0.00  0.00    +0.000 C 
ATOM      6  C   UNL     1       1.841   4.914  18.152  0.00  0.00    +0.000 C 
ATOM      7  C   UNL     1       1.966   3.410  17.966  0.00  0.00    +0.000 C 
ATOM      8  O   UNL     1       1.857   2.733  19.209  0.00  0.00    +0.000 OA
ENDROOT
BRANCH   5   9
ATOM      9  C   UNL     1       4.347   5.527  18.404  0.00  0.00    +0.000 A 
ATOM     10  C   UNL     1       4.498   5.707  17.015  0.00  0.00    +0.000 A 
ATOM     11  C   UNL     1       5.759   5.798  16.415  0.00  0.00    +0.000 A 
ATOM     12  C   UNL     1       6.910   5.730  17.192  0.00  0.00    +0.000 A 
ATOM     13  C   UNL     1       6.796   5.576  18.566  0.00  0.00    +0.000 A 
ATOM     14  C   UNL     1       5.535   5.475  19.163  0.00  0.00    +0.000 A 
ENDBRANCH   5   9
BRANCH   5  15
ATOM     15  C   UNL     1       2.529   6.975  19.408  0.00  0.00    +0.000 C 
BRANCH  15  16
ATOM     16  C   UNL     1       1.450   7.111  20.489  0.00  0.00    +0.000 C 
BRANCH  16  17
ATOM     17  N   UNL     1       1.800   8.151  21.459  0.00  0.00    +0.000 N 
ATOM     18  H   UNL     1       2.714   8.564  21.279  0.00  0.00    +0.000 HD
BRANCH  17  19
ATOM     19  C   UNL     1       0.831   9.148  21.692  0.00  0.00    +0.000 A 
ATOM     20  C   UNL     1       0.194   9.322  22.933  0.00  0.00    +0.000 A 
ATOM     21  C   UNL     1      -0.727  10.354  23.147  0.00  0.00    +0.000 A 
ATOM     22  C   UNL     1      -1.004  11.256  22.127  0.00  0.00    +0.000 A 
ATOM     23  C   UNL     1      -0.341  11.126  20.914  0.00  0.00    +0.000 A 
ATOM     24  F   UNL     1      -0.588  12.007  19.936  0.00  0.00    +0.000 F 
ATOM     25  C   UNL     1       0.577  10.100  20.698  0.00  0.00    +0.000 A 
ENDBRANCH  17  19
ENDBRANCH  16  17
ENDBRANCH  15  16
ENDBRANCH   5  15
TORSDOF 5
ENDMDL
MODEL 7
REMARK VINA RESULT:      -8.0      1.025      1.196
REMARK  Name = 
REMARK  7 active torsions:
REMARK  status: ('A' for Active; 'I' for Inactive)
REMARK    1  A    between atoms: C_1  and  C_2
REMARK    2  A    between atoms: C_2  and  C_3
REMARK    3  A    between atoms: C_5  and  C_6
REMARK    4  A    between atoms: C_5  and  C_16
REMARK    5  A    between atoms: C_6  and  C_7
REMARK    6  A    between atoms: C_7  and  N_8
REMARK    7  A    between atoms: N_8  and  C_9
REMARK                            x       y       z     vdW  Elec       q    Type
REMARK                         _______ _______ _______ _____ _____    ______ ____
ROOT
ATOM      1  C   UNL     1       2.051   2.357  21.153  0.00  0.00    +0.000 C 
ATOM      2  C   UNL     1       2.714   3.070  19.960  0.00  0.00    +0.000 C 
ATOM      3  C   UNL     1       4.104   2.450  19.772  0.00  0.00    +0.000 C 
ATOM      4  C   UNL     1       2.750   4.585  20.268  0.00  0.00    +0.000 C 
ATOM      5  C   UNL     1       2.931   5.541  19.047  0.00  0.00    +0.000 C 
ATOM      6  C   UNL     1       1.915   5.037  17.980  0.00  0.00    +0.000 C 
ATOM      7  C   UNL     1       2.076   3.555  17.680  0.00  0.00    +0.000 C 
ATOM      8  O   UNL     1       1.866   2.775  18.848  0.00  0.00    +0.000 OA
ENDROOT
BRANCH   5   9
ATOM      9  C   UNL     1       4.381   5.641  18.507  0.00  0.00    +0.000 A 
ATOM     10  C   UNL     1       5.500   5.458  19.344  0.00  0.00    +0.000 A 
ATOM     11  C   UNL     1       6.808   5.490  18.845  0.00  0.00    +0.000 A 
ATOM     12  C   UNL     1       7.034   5.688  17.488  0.00  0.00    +0.000 A 
ATOM     13  C   UNL     1       5.953   5.848  16.633  0.00  0.00    +0.000 A 
ATOM     14  C   UNL     1       4.647   5.826  17.134  0.00  0.00    +0.000 A 
ENDBRANCH   5   9
BRANCH   5  15
ATOM     15  C   UNL     1       2.462   6.989  19.462  0.00  0.00    +0.000 C 
BRANCH  15  16
ATOM     16  C   UNL     1       1.534   7.039  20.681  0.00  0.00    +0.000 C 
BRANCH  16  17
ATOM     17  N   UNL     1       1.867   8.169  21.553  0.00  0.00    +0.000 N 
ATOM     18  H   UNL     1       2.765   8.592  21.322  0.00  0.00    +0.000 HD
BRANCH  17  19
ATOM     19  C   UNL     1       0.871   9.153  21.718  0.00  0.00    +0.000 A 
ATOM     20  C   UNL     1       0.196   9.365  22.932  0.00  0.00    +0.000 A 
ATOM     21  C   UNL     1      -0.752  10.384  23.077  0.00  0.00    +0.000 A 
ATOM     22  C   UNL     1      -1.020  11.235  22.013  0.00  0.00    +0.000 A 
ATOM     23  C   UNL     1      -0.321  11.070  20.825  0.00  0.00    +0.000 A 
ATOM     24  F   UNL     1      -0.560  11.904  19.804  0.00  0.00    +0.000 F 
ATOM     25  C   UNL     1       0.625  10.056  20.677  0.00  0.00    +0.000 A 
ENDBRANCH  17  19
ENDBRANCH  16  17
ENDBRANCH  15  16
ENDBRANCH   5  15
TORSDOF 5
ENDMDL
MODEL 8
REMARK VINA RESULT:      -8.0      0.908      1.057
REMARK  Name = 
REMARK  7 active torsions:
REMARK  status: ('A' for Active; 'I' for Inactive)
REMARK    1  A    between atoms: C_1  and  C_2
REMARK    2  A    between atoms: C_2  and  C_3
REMARK    3  A    between atoms: C_5  and  C_6
REMARK    4  A    between atoms: C_5  and  C_16
REMARK    5  A    between atoms: C_6  and  C_7
REMARK    6  A    between atoms: C_7  and  N_8
REMARK    7  A    between atoms: N_8  and  C_9
REMARK                            x       y       z     vdW  Elec       q    Type
REMARK                         _______ _______ _______ _____ _____    ______ ____
ROOT
ATOM      1  C   UNL     1       1.585   2.702  21.417  0.00  0.00    +0.000 C 
ATOM      2  C   UNL     1       2.475   2.919  20.179  0.00  0.00    +0.000 C 
ATOM      3  C   UNL     1       3.895   2.478  20.555  0.00  0.00    +0.000 C 
ATOM      4  C   UNL     1       2.377   4.408  19.774  0.00  0.00    +0.000 C 
ATOM      5  C   UNL     1       2.796   4.763  18.313  0.00  0.00    +0.000 C 
ATOM      6  C   UNL     1       2.075   3.715  17.416  0.00  0.00    +0.000 C 
ATOM      7  C   UNL     1       2.361   2.286  17.850  0.00  0.00    +0.000 C 
ATOM      8  O   UNL     1       1.919   2.060  19.181  0.00  0.00    +0.000 OA
ENDROOT
BRANCH   5   9
ATOM      9  C   UNL     1       4.326   4.822  18.069  0.00  0.00    +0.000 A 
ATOM     10  C   UNL     1       5.227   5.190  19.088  0.00  0.00    +0.000 A 
ATOM     11  C   UNL     1       6.612   5.186  18.885  0.00  0.00    +0.000 A 
ATOM     12  C   UNL     1       7.139   4.796  17.659  0.00  0.00    +0.000 A 
ATOM     13  C   UNL     1       6.280   4.405  16.642  0.00  0.00    +0.000 A 
ATOM     14  C   UNL     1       4.895   4.419  16.843  0.00  0.00    +0.000 A 
ENDBRANCH   5   9
BRANCH   5  15
ATOM     15  C   UNL     1       2.185   6.168  17.937  0.00  0.00    +0.000 C 
BRANCH  15  16
ATOM     16  C   UNL     1       3.170   7.341  18.021  0.00  0.00    +0.000 C 
BRANCH  16  17
ATOM     17  N   UNL     1       2.463   8.624  18.028  0.00  0.00    +0.000 N 
ATOM     18  H   UNL     1       2.037   8.844  17.129  0.00  0.00    +0.000 HD
BRANCH  17  19
ATOM     19  C   UNL     1       1.556   8.839  19.085  0.00  0.00    +0.000 A 
ATOM     20  C   UNL     1       1.711   8.263  20.357  0.00  0.00    +0.000 A 
ATOM     21  C   UNL     1       0.819   8.536  21.401  0.00  0.00    +0.000 A 
ATOM     22  C   UNL     1      -0.231   9.423  21.198  0.00  0.00    +0.000 A 
ATOM     23  C   UNL     1      -0.363  10.040  19.962  0.00  0.00    +0.000 A 
ATOM     24  F   UNL     1      -1.360  10.913  19.769  0.00  0.00    +0.000 F 
ATOM     25  C   UNL     1       0.524   9.770  18.920  0.00  0.00    +0.000 A 
ENDBRANCH  17  19
ENDBRANCH  16  17
ENDBRANCH  15  16
ENDBRANCH   5  15
TORSDOF 5
ENDMDL
MODEL 9
REMARK VINA RESULT:      -8.0      1.167      1.790
REMARK  Name = 
REMARK  7 active torsions:
REMARK  status: ('A' for Active; 'I' for Inactive)
REMARK    1  A    between atoms: C_1  and  C_2
REMARK    2  A    between atoms: C_2  and  C_3
REMARK    3  A    between atoms: C_5  and  C_6
REMARK    4  A    between atoms: C_5  and  C_16
REMARK    5  A    between atoms: C_6  and  C_7
REMARK    6  A    between atoms: C_7  and  N_8
REMARK    7  A    between atoms: N_8  and  C_9
REMARK                            x       y       z     vdW  Elec       q    Type
REMARK                         _______ _______ _______ _____ _____    ______ ____
ROOT
ATOM      1  C   UNL     1       1.957   2.370  21.108  0.00  0.00    +0.000 C 
ATOM      2  C   UNL     1       2.614   3.073  19.905  0.00  0.00    +0.000 C 
ATOM      3  C   UNL     1       3.967   2.392  19.661  0.00  0.00    +0.000 C 
ATOM      4  C   UNL     1       2.732   4.579  20.237  0.00  0.00    +0.000 C 
ATOM      5  C   UNL     1       2.920   5.547  19.027  0.00  0.00    +0.000 C 
ATOM      6  C   UNL     1       1.847   5.111  17.986  0.00  0.00    +0.000 C 
ATOM      7  C   UNL     1       1.927   3.629  17.657  0.00  0.00    +0.000 C 
ATOM      8  O   UNL     1       1.717   2.838  18.817  0.00  0.00    +0.000 OA
ENDROOT
BRANCH   5   9
ATOM      9  C   UNL     1       4.354   5.589  18.441  0.00  0.00    +0.000 A 
ATOM     10  C   UNL     1       4.599   5.945  17.101  0.00  0.00    +0.000 A 
ATOM     11  C   UNL     1       5.899   6.040  16.587  0.00  0.00    +0.000 A 
ATOM     12  C   UNL     1       6.994   5.798  17.409  0.00  0.00    +0.000 A 
ATOM     13  C   UNL     1       6.788   5.467  18.740  0.00  0.00    +0.000 A 
ATOM     14  C   UNL     1       5.489   5.363  19.249  0.00  0.00    +0.000 A 
ENDBRANCH   5   9
BRANCH   5  15
ATOM     15  C   UNL     1       2.533   7.008  19.482  0.00  0.00    +0.000 C 
BRANCH  15  16
ATOM     16  C   UNL     1       1.487   7.077  20.600  0.00  0.00    +0.000 C 
BRANCH  16  17
ATOM     17  N   UNL     1       1.779   8.170  21.531  0.00  0.00    +0.000 N 
ATOM     18  H   UNL     1       2.758   8.453  21.510  0.00  0.00    +0.000 HD
BRANCH  17  19
ATOM     19  C   UNL     1       0.927   9.292  21.475  0.00  0.00    +0.000 A 
ATOM     20  C   UNL     1       0.759  10.070  20.318  0.00  0.00    +0.000 A 
ATOM     21  C   UNL     1      -0.134  11.148  20.281  0.00  0.00    +0.000 A 
ATOM     22  C   UNL     1      -0.904  11.446  21.398  0.00  0.00    +0.000 A 
ATOM     23  C   UNL     1      -0.786  10.650  22.529  0.00  0.00    +0.000 A 
ATOM     24  F   UNL     1      -1.543  10.921  23.601  0.00  0.00    +0.000 F 
ATOM     25  C   UNL     1       0.102   9.576  22.570  0.00  0.00    +0.000 A 
ENDBRANCH  17  19
ENDBRANCH  16  17
ENDBRANCH  15  16
ENDBRANCH   5  15
TORSDOF 5
ENDMDL
