MODEL 1
REMARK VINA RESULT:      -7.6      0.000      0.000
REMARK  Name = 
REMARK  5 active torsions:
REMARK  status: ('A' for Active; 'I' for Inactive)
REMARK    1  A    between atoms: C_1  and  C_2
REMARK    2  A    between atoms: C_2  and  C_3
REMARK    3  A    between atoms: N_6  and  C_7
REMARK    4  A    between atoms: C_7  and  C_8
REMARK    5  A    between atoms: C_8  and  C_9
REMARK                            x       y       z     vdW  Elec       q    Type
REMARK                         _______ _______ _______ _____ _____    ______ ____
ROOT
ATOM      1  C   UNL     1       7.273   5.935  17.502  0.00  0.00    +0.000 A 
ATOM      2  N   UNL     1       6.346   5.102  18.019  0.00  0.00    +0.000 NA
ATOM      3  C   UNL     1       5.713   4.216  17.216  0.00  0.00    +0.000 A 
ATOM      4  N   UNL     1       4.742   3.378  17.733  0.00  0.00    +0.000 N 
ATOM      5  C   UNL     1       6.047   4.203  15.849  0.00  0.00    +0.000 A 
ATOM      6  C   UNL     1       5.585   3.423  14.734  0.00  0.00    +0.000 A 
ATOM      7  C   UNL     1       6.182   3.788  13.545  0.00  0.00    +0.000 A 
ATOM      8  S   UNL     1       7.309   5.055  13.766  0.00  0.00    +0.000 S 
ATOM      9  C   UNL     1       6.998   5.122  15.442  0.00  0.00    +0.000 A 
ATOM     10  N   UNL     1       7.643   6.007  16.217  0.00  0.00    +0.000 NA
ATOM     11  H   UNL     1       4.382   2.638  17.150  0.00  0.00    +0.000 HD
ENDROOT
BRANCH   1  13
ATOM     12  C   UNL     1       8.048   8.287  17.808  0.00  0.00    +0.000 C 
ATOM     13  C   UNL     1       7.915   6.914  18.447  0.00  0.00    +0.000 C 
ENDBRANCH   1  13
BRANCH   4  14
ATOM     14  C   UNL     1       4.480   3.367  19.162  0.00  0.00    +0.000 C 
BRANCH  14  15
ATOM     15  C   UNL     1       2.990   3.582  19.447  0.00  0.00    +0.000 C 
BRANCH  15  16
ATOM     16  C   UNL     1       2.648   5.030  19.489  0.00  0.00    +0.000 A 
ATOM     17  C   UNL     1       2.185   5.784  20.545  0.00  0.00    +0.000 A 
ATOM     18  N   UNL     1       1.933   7.025  20.029  0.00  0.00    +0.000 N 
ATOM     19  C   UNL     1       1.402   8.153  20.633  0.00  0.00    +0.000 A 
ATOM     20  C   UNL     1       1.220   9.263  19.906  0.00  0.00    +0.000 A 
ATOM     21  C   UNL     1       1.642   9.151  18.479  0.00  0.00    +0.000 A 
ATOM     22  N   UNL     1       2.147   8.106  17.899  0.00  0.00    +0.000 NA
ATOM     23  C   UNL     1       2.297   6.999  18.685  0.00  0.00    +0.000 A 
ATOM     24  N   UNL     1       2.734   5.801  18.355  0.00  0.00    +0.000 NA
ENDBRANCH  15  16
ENDBRANCH  14  15
ENDBRANCH   4  14
TORSDOF 4
ENDMDL
MODEL 2
REMARK VINA RESULT:      -7.4      2.626      4.617
REMARK  Name = 
REMARK  5 active torsions:
REMARK  status: ('A' for Active; 'I' for Inactive)
REMARK    1  A    between atoms: C_1  and  C_2
REMARK    2  A    between atoms: C_2  and  C_3
REMARK    3  A    between atoms: N_6  and  C_7
REMARK    4  A    between atoms: C_7  and  C_8
REMARK    5  A    between atoms: C_8  and  C_9
REMARK                            x       y       z     vdW  Elec       q    Type
REMARK                         _______ _______ _______ _____ _____    ______ ____
ROOT
ATOM      1  C   UNL     1       5.148   5.264  17.065  0.00  0.00    +0.000 A 
ATOM      2  N   UNL     1       4.318   6.282  17.380  0.00  0.00    +0.000 NA
ATOM      3  C   UNL     1       3.092   6.019  17.887  0.00  0.00    +0.000 A 
ATOM      4  N   UNL     1       2.225   7.054  18.186  0.00  0.00    +0.000 N 
ATOM      5  C   UNL     1       2.720   4.673  18.062  0.00  0.00    +0.000 A 
ATOM      6  C   UNL     1       1.528   4.040  18.555  0.00  0.00    +0.000 A 
ATOM      7  C   UNL     1       1.598   2.664  18.511  0.00  0.00    +0.000 A 
ATOM      8  S   UNL     1       3.100   2.126  17.896  0.00  0.00    +0.000 S 
ATOM      9  C   UNL     1       3.654   3.725  17.681  0.00  0.00    +0.000 A 
ATOM     10  N   UNL     1       4.877   3.958  17.180  0.00  0.00    +0.000 NA
ATOM     11  H   UNL     1       1.375   6.845  18.685  0.00  0.00    +0.000 HD
ENDROOT
BRANCH   1  13
ATOM     12  C   UNL     1       7.310   6.444  17.463  0.00  0.00    +0.000 C 
ATOM     13  C   UNL     1       6.485   5.629  16.479  0.00  0.00    +0.000 C 
ENDBRANCH   1  13
BRANCH   4  14
ATOM     14  C   UNL     1       2.673   8.432  18.064  0.00  0.00    +0.000 C 
BRANCH  14  15
ATOM     15  C   UNL     1       1.489   9.373  17.818  0.00  0.00    +0.000 C 
BRANCH  15  16
ATOM     16  C   UNL     1       0.799   9.723  19.089  0.00  0.00    +0.000 A 
ATOM     17  C   UNL     1       0.003  10.810  19.375  0.00  0.00    +0.000 A 
ATOM     18  N   UNL     1      -0.293  10.709  20.706  0.00  0.00    +0.000 N 
ATOM     19  C   UNL     1      -1.011  11.562  21.529  0.00  0.00    +0.000 A 
ATOM     20  C   UNL     1      -1.147  11.262  22.827  0.00  0.00    +0.000 A 
ATOM     21  C   UNL     1      -0.494   9.986  23.245  0.00  0.00    +0.000 A 
ATOM     22  N   UNL     1       0.176   9.173  22.488  0.00  0.00    +0.000 NA
ATOM     23  C   UNL     1       0.294   9.537  21.177  0.00  0.00    +0.000 A 
ATOM     24  N   UNL     1       0.949   8.935  20.205  0.00  0.00    +0.000 NA
ENDBRANCH  15  16
ENDBRANCH  14  15
ENDBRANCH   4  14
TORSDOF 4
ENDMDL
MODEL 3
REMARK VINA RESULT:      -7.3      0.691      1.236
REMARK  Name = 
REMARK  5 active torsions:
REMARK  status: ('A' for Active; 'I' for Inactive)
REMARK    1  A    between atoms: C_1  and  C_2
REMARK    2  A    between atoms: C_2  and  C_3
REMARK    3  A    between atoms: N_6  and  C_7
REMARK    4  A    between atoms: C_7  and  C_8
REMARK    5  A    between atoms: C_8  and  C_9
REMARK                            x       y       z     vdW  Elec       q    Type
REMARK                         _______ _______ _______ _____ _____    ______ ____
ROOT
ATOM      1  C   UNL     1       7.287   6.114  17.464  0.00  0.00    +0.000 A 
ATOM      2  N   UNL     1       6.386   5.285  18.032  0.00  0.00    +0.000 NA
ATOM      3  C   UNL     1       5.759   4.353  17.278  0.00  0.00    +0.000 A 
ATOM      4  N   UNL     1       4.814   3.519  17.845  0.00  0.00    +0.000 N 
ATOM      5  C   UNL     1       6.072   4.288  15.907  0.00  0.00    +0.000 A 
ATOM      6  C   UNL     1       5.609   3.452  14.833  0.00  0.00    +0.000 A 
ATOM      7  C   UNL     1       6.179   3.779  13.621  0.00  0.00    +0.000 A 
ATOM      8  S   UNL     1       7.283   5.076  13.769  0.00  0.00    +0.000 S 
ATOM      9  C   UNL     1       6.997   5.208  15.446  0.00  0.00    +0.000 A 
ATOM     10  N   UNL     1       7.635   6.139  16.171  0.00  0.00    +0.000 NA
ATOM     11  H   UNL     1       4.460   2.747  17.301  0.00  0.00    +0.000 HD
ENDROOT
BRANCH   1  13
ATOM     12  C   UNL     1       7.974   8.503  17.675  0.00  0.00    +0.000 C 
ATOM     13  C   UNL     1       7.924   7.145  18.356  0.00  0.00    +0.000 C 
ENDBRANCH   1  13
BRANCH   4  14
ATOM     14  C   UNL     1       4.574   3.563  19.278  0.00  0.00    +0.000 C 
BRANCH  14  15
ATOM     15  C   UNL     1       3.079   3.716  19.579  0.00  0.00    +0.000 C 
BRANCH  15  16
ATOM     16  C   UNL     1       2.624   5.118  19.373  0.00  0.00    +0.000 A 
ATOM     17  C   UNL     1       2.635   5.876  18.223  0.00  0.00    +0.000 A 
ATOM     18  N   UNL     1       2.207   7.119  18.597  0.00  0.00    +0.000 N 
ATOM     19  C   UNL     1       2.081   8.282  17.854  0.00  0.00    +0.000 A 
ATOM     20  C   UNL     1       1.660   9.403  18.455  0.00  0.00    +0.000 A 
ATOM     21  C   UNL     1       1.351   9.254  19.908  0.00  0.00    +0.000 A 
ATOM     22  N   UNL     1       1.457   8.173  20.617  0.00  0.00    +0.000 NA
ATOM     23  C   UNL     1       1.904   7.065  19.956  0.00  0.00    +0.000 A 
ATOM     24  N   UNL     1       2.148   5.859  20.428  0.00  0.00    +0.000 NA
ENDBRANCH  15  16
ENDBRANCH  14  15
ENDBRANCH   4  14
TORSDOF 4
ENDMDL
MODEL 4
REMARK VINA RESULT:      -7.1      2.728      4.472
REMARK  Name = 
REMARK  5 active torsions:
REMARK  status: ('A' for Active; 'I' for Inactive)
REMARK    1  A    between atoms: C_1  and  C_2
REMARK    2  A    between atoms: C_2  and  C_3
REMARK    3  A    between atoms: N_6  and  C_7
REMARK    4  A    between atoms: C_7  and  C_8
REMARK    5  A    between atoms: C_8  and  C_9
REMARK                            x       y       z     vdW  Elec       q    Type
REMARK                         _______ _______ _______ _____ _____    ______ ____
ROOT
ATOM      1  C   UNL     1       5.462   5.200  17.702  0.00  0.00    +0.000 A 
ATOM      2  N   UNL     1       4.553   6.196  17.769  0.00  0.00    +0.000 NA
ATOM      3  C   UNL     1       3.247   5.904  17.969  0.00  0.00    +0.000 A 
ATOM      4  N   UNL     1       2.306   6.916  18.011  0.00  0.00    +0.000 N 
ATOM      5  C   UNL     1       2.881   4.551  18.094  0.00  0.00    +0.000 A 
ATOM      6  C   UNL     1       1.622   3.890  18.301  0.00  0.00    +0.000 A 
ATOM      7  C   UNL     1       1.738   2.516  18.324  0.00  0.00    +0.000 A 
ATOM      8  S   UNL     1       3.359   2.015  18.113  0.00  0.00    +0.000 S 
ATOM      9  C   UNL     1       3.906   3.626  17.986  0.00  0.00    +0.000 A 
ATOM     10  N   UNL     1       5.206   3.889  17.792  0.00  0.00    +0.000 NA
ATOM     11  H   UNL     1       1.365   6.690  18.294  0.00  0.00    +0.000 HD
ENDROOT
BRANCH   1  13
ATOM     12  C   UNL     1       7.058   7.106  17.496  0.00  0.00    +0.000 C 
ATOM     13  C   UNL     1       6.892   5.596  17.449  0.00  0.00    +0.000 C 
ENDBRANCH   1  13
BRANCH   4  14
ATOM     14  C   UNL     1       2.732   8.305  17.956  0.00  0.00    +0.000 C 
BRANCH  14  15
ATOM     15  C   UNL     1       1.528   9.241  17.804  0.00  0.00    +0.000 C 
BRANCH  15  16
ATOM     16  C   UNL     1       0.974   9.633  19.129  0.00  0.00    +0.000 A 
ATOM     17  C   UNL     1       1.061   8.975  20.337  0.00  0.00    +0.000 A 
ATOM     18  N   UNL     1       0.299   9.703  21.207  0.00  0.00    +0.000 N 
ATOM     19  C   UNL     1      -0.010   9.467  22.537  0.00  0.00    +0.000 A 
ATOM     20  C   UNL     1      -0.811  10.321  23.187  0.00  0.00    +0.000 A 
ATOM     21  C   UNL     1      -1.283  11.479  22.371  0.00  0.00    +0.000 A 
ATOM     22  N   UNL     1      -0.998  11.719  21.128  0.00  0.00    +0.000 NA
ATOM     23  C   UNL     1      -0.189  10.807  20.512  0.00  0.00    +0.000 A 
ATOM     24  N   UNL     1       0.220  10.773  19.260  0.00  0.00    +0.000 NA
ENDBRANCH  15  16
ENDBRANCH  14  15
ENDBRANCH   4  14
TORSDOF 4
ENDMDL
MODEL 5
REMARK VINA RESULT:      -7.1      2.971      5.346
REMARK  Name = 
REMARK  5 active torsions:
REMARK  status: ('A' for Active; 'I' for Inactive)
REMARK    1  A    between atoms: C_1  and  C_2
REMARK    2  A    between atoms: C_2  and  C_3
REMARK    3  A    between atoms: N_6  and  C_7
REMARK    4  A    between atoms: C_7  and  C_8
REMARK    5  A    between atoms: C_8  and  C_9
REMARK                            x       y       z     vdW  Elec       q    Type
REMARK                         _______ _______ _______ _____ _____    ______ ____
ROOT
ATOM      1  C   UNL     1       4.114   4.620  17.286  0.00  0.00    +0.000 A 
ATOM      2  N   UNL     1       3.598   5.820  17.624  0.00  0.00    +0.000 NA
ATOM      3  C   UNL     1       2.642   5.898  18.579  0.00  0.00    +0.000 A 
ATOM      4  N   UNL     1       2.088   7.120  18.912  0.00  0.00    +0.000 N 
ATOM      5  C   UNL     1       2.212   4.703  19.187  0.00  0.00    +0.000 A 
ATOM      6  C   UNL     1       1.239   4.415  20.204  0.00  0.00    +0.000 A 
ATOM      7  C   UNL     1       1.124   3.066  20.464  0.00  0.00    +0.000 A 
ATOM      8  S   UNL     1       2.194   2.142  19.502  0.00  0.00    +0.000 S 
ATOM      9  C   UNL     1       2.806   3.538  18.735  0.00  0.00    +0.000 A 
ATOM     10  N   UNL     1       3.757   3.433  17.794  0.00  0.00    +0.000 NA
ATOM     11  H   UNL     1       1.480   7.174  19.714  0.00  0.00    +0.000 HD
ENDROOT
BRANCH   1  13
ATOM     12  C   UNL     1       5.315   5.983  15.576  0.00  0.00    +0.000 C 
ATOM     13  C   UNL     1       5.152   4.605  16.197  0.00  0.00    +0.000 C 
ENDBRANCH   1  13
BRANCH   4  14
ATOM     14  C   UNL     1       2.613   8.339  18.318  0.00  0.00    +0.000 C 
BRANCH  14  15
ATOM     15  C   UNL     1       1.481   9.205  17.756  0.00  0.00    +0.000 C 
BRANCH  15  16
ATOM     16  C   UNL     1       0.685   9.834  18.845  0.00  0.00    +0.000 A 
ATOM     17  C   UNL     1      -0.395  10.685  18.753  0.00  0.00    +0.000 A 
ATOM     18  N   UNL     1      -0.687  11.050  20.037  0.00  0.00    +0.000 N 
ATOM     19  C   UNL     1      -1.640  11.931  20.521  0.00  0.00    +0.000 A 
ATOM     20  C   UNL     1      -1.721  12.151  21.840  0.00  0.00    +0.000 A 
ATOM     21  C   UNL     1      -0.745  11.378  22.664  0.00  0.00    +0.000 A 
ATOM     22  N   UNL     1       0.149  10.545  22.229  0.00  0.00    +0.000 NA
ATOM     23  C   UNL     1       0.196  10.371  20.875  0.00  0.00    +0.000 A 
ATOM     24  N   UNL     1       1.021   9.632  20.161  0.00  0.00    +0.000 NA
ENDBRANCH  15  16
ENDBRANCH  14  15
ENDBRANCH   4  14
TORSDOF 4
ENDMDL
MODEL 6
REMARK VINA RESULT:      -7.1      4.476      7.886
REMARK  Name = 
REMARK  5 active torsions:
REMARK  status: ('A' for Active; 'I' for Inactive)
REMARK    1  A    between atoms: C_1  and  C_2
REMARK    2  A    between atoms: C_2  and  C_3
REMARK    3  A    between atoms: N_6  and  C_7
REMARK    4  A    between atoms: C_7  and  C_8
REMARK    5  A    between atoms: C_8  and  C_9
REMARK                            x       y       z     vdW  Elec       q    Type
REMARK                         _______ _______ _______ _____ _____    ______ ____
ROOT
ATOM      1  C   UNL     1       0.511  12.153  19.410  0.00  0.00    +0.000 A 
ATOM      2  N   UNL     1       1.041  11.011  18.924  0.00  0.00    +0.000 NA
ATOM      3  C   UNL     1       0.941   9.865  19.635  0.00  0.00    +0.000 A 
ATOM      4  N   UNL     1       1.505   8.696  19.158  0.00  0.00    +0.000 N 
ATOM      5  C   UNL     1       0.283   9.911  20.879  0.00  0.00    +0.000 A 
ATOM      6  C   UNL     1       0.004   8.917  21.879  0.00  0.00    +0.000 A 
ATOM      7  C   UNL     1      -0.649   9.436  22.978  0.00  0.00    +0.000 A 
ATOM      8  S   UNL     1      -0.944  11.112  22.806  0.00  0.00    +0.000 S 
ATOM      9  C   UNL     1      -0.197  11.148  21.272  0.00  0.00    +0.000 A 
ATOM     10  N   UNL     1      -0.115  12.297  20.585  0.00  0.00    +0.000 NA
ATOM     11  H   UNL     1       1.304   7.831  19.635  0.00  0.00    +0.000 HD
ENDROOT
BRANCH   1  13
ATOM     12  C   UNL     1       2.124  13.547  18.115  0.00  0.00    +0.000 C 
ATOM     13  C   UNL     1       0.684  13.395  18.578  0.00  0.00    +0.000 C 
ENDBRANCH   1  13
BRANCH   4  14
ATOM     14  C   UNL     1       2.108   8.671  17.835  0.00  0.00    +0.000 C 
BRANCH  14  15
ATOM     15  C   UNL     1       3.198   7.597  17.751  0.00  0.00    +0.000 C 
BRANCH  15  16
ATOM     16  C   UNL     1       2.773   6.337  18.421  0.00  0.00    +0.000 A 
ATOM     17  C   UNL     1       2.177   5.222  17.876  0.00  0.00    +0.000 A 
ATOM     18  N   UNL     1       1.903   4.398  18.933  0.00  0.00    +0.000 N 
ATOM     19  C   UNL     1       1.258   3.172  18.966  0.00  0.00    +0.000 A 
ATOM     20  C   UNL     1       1.081   2.556  20.142  0.00  0.00    +0.000 A 
ATOM     21  C   UNL     1       1.634   3.287  21.321  0.00  0.00    +0.000 A 
ATOM     22  N   UNL     1       2.247   4.430  21.307  0.00  0.00    +0.000 NA
ATOM     23  C   UNL     1       2.387   5.019  20.082  0.00  0.00    +0.000 A 
ATOM     24  N   UNL     1       2.917   6.186  19.779  0.00  0.00    +0.000 NA
ENDBRANCH  15  16
ENDBRANCH  14  15
ENDBRANCH   4  14
TORSDOF 4
ENDMDL
MODEL 7
REMARK VINA RESULT:      -7.1      3.977      8.202
REMARK  Name = 
REMARK  5 active torsions:
REMARK  status: ('A' for Active; 'I' for Inactive)
REMARK    1  A    between atoms: C_1  and  C_2
REMARK    2  A    between atoms: C_2  and  C_3
REMARK    3  A    between atoms: N_6  and  C_7
REMARK    4  A    between atoms: C_7  and  C_8
REMARK    5  A    between atoms: C_8  and  C_9
REMARK                            x       y       z     vdW  Elec       q    Type
REMARK                         _______ _______ _______ _____ _____    ______ ____
ROOT
ATOM      1  C   UNL     1      -0.715  11.276  19.098  0.00  0.00    +0.000 A 
ATOM      2  N   UNL     1       0.210  10.372  18.713  0.00  0.00    +0.000 NA
ATOM      3  C   UNL     1       0.777   9.554  19.630  0.00  0.00    +0.000 A 
ATOM      4  N   UNL     1       1.745   8.644  19.248  0.00  0.00    +0.000 N 
ATOM      5  C   UNL     1       0.378   9.687  20.974  0.00  0.00    +0.000 A 
ATOM      6  C   UNL     1       0.762   9.012  22.182  0.00  0.00    +0.000 A 
ATOM      7  C   UNL     1       0.122   9.510  23.297  0.00  0.00    +0.000 A 
ATOM      8  S   UNL     1      -0.954  10.777  22.896  0.00  0.00    +0.000 S 
ATOM      9  C   UNL     1      -0.563  10.667  21.239  0.00  0.00    +0.000 A 
ATOM     10  N   UNL     1      -1.143  11.486  20.349  0.00  0.00    +0.000 NA
ATOM     11  H   UNL     1       2.054   7.957  19.918  0.00  0.00    +0.000 HD
ENDROOT
BRANCH   1  13
ATOM     12  C   UNL     1      -2.410  11.481  17.279  0.00  0.00    +0.000 C 
ATOM     13  C   UNL     1      -1.282  12.171  18.029  0.00  0.00    +0.000 C 
ENDBRANCH   1  13
BRANCH   4  14
ATOM     14  C   UNL     1       2.074   8.483  17.842  0.00  0.00    +0.000 C 
BRANCH  14  15
ATOM     15  C   UNL     1       3.400   7.735  17.672  0.00  0.00    +0.000 C 
BRANCH  15  16
ATOM     16  C   UNL     1       3.244   6.281  17.950  0.00  0.00    +0.000 A 
ATOM     17  C   UNL     1       4.209   5.301  18.019  0.00  0.00    +0.000 A 
ATOM     18  N   UNL     1       3.530   4.128  18.198  0.00  0.00    +0.000 N 
ATOM     19  C   UNL     1       3.999   2.826  18.276  0.00  0.00    +0.000 A 
ATOM     20  C   UNL     1       3.126   1.822  18.429  0.00  0.00    +0.000 A 
ATOM     21  C   UNL     1       1.697   2.244  18.514  0.00  0.00    +0.000 A 
ATOM     22  N   UNL     1       1.241   3.456  18.450  0.00  0.00    +0.000 NA
ATOM     23  C   UNL     1       2.174   4.439  18.280  0.00  0.00    +0.000 A 
ATOM     24  N   UNL     1       1.997   5.737  18.137  0.00  0.00    +0.000 NA
ENDBRANCH  15  16
ENDBRANCH  14  15
ENDBRANCH   4  14
TORSDOF 4
ENDMDL
MODEL 8
REMARK VINA RESULT:      -7.0      2.454      4.861
REMARK  Name = 
REMARK  5 active torsions:
REMARK  status: ('A' for Active; 'I' for Inactive)
REMARK    1  A    between atoms: C_1  and  C_2
REMARK    2  A    between atoms: C_2  and  C_3
REMARK    3  A    between atoms: N_6  and  C_7
REMARK    4  A    between atoms: C_7  and  C_8
REMARK    5  A    between atoms: C_8  and  C_9
REMARK                            x       y       z     vdW  Elec       q    Type
REMARK                         _______ _______ _______ _____ _____    ______ ____
ROOT
ATOM      1  C   UNL     1       3.365   4.233  17.678  0.00  0.00    +0.000 A 
ATOM      2  N   UNL     1       2.918   5.503  17.776  0.00  0.00    +0.000 NA
ATOM      3  C   UNL     1       3.786   6.534  17.660  0.00  0.00    +0.000 A 
ATOM      4  N   UNL     1       3.342   7.837  17.787  0.00  0.00    +0.000 N 
ATOM      5  C   UNL     1       5.145   6.236  17.446  0.00  0.00    +0.000 A 
ATOM      6  C   UNL     1       6.316   7.055  17.286  0.00  0.00    +0.000 A 
ATOM      7  C   UNL     1       7.467   6.313  17.132  0.00  0.00    +0.000 A 
ATOM      8  S   UNL     1       7.147   4.633  17.161  0.00  0.00    +0.000 S 
ATOM      9  C   UNL     1       5.476   4.894  17.386  0.00  0.00    +0.000 A 
ATOM     10  N   UNL     1       4.636   3.854  17.493  0.00  0.00    +0.000 NA
ATOM     11  H   UNL     1       3.976   8.589  17.565  0.00  0.00    +0.000 HD
ENDROOT
BRANCH   1  13
ATOM     12  C   UNL     1       2.925   1.972  18.634  0.00  0.00    +0.000 C 
ATOM     13  C   UNL     1       2.348   3.137  17.846  0.00  0.00    +0.000 C 
ENDBRANCH   1  13
BRANCH   4  14
ATOM     14  C   UNL     1       1.921   8.107  17.931  0.00  0.00    +0.000 C 
BRANCH  14  15
ATOM     15  C   UNL     1       1.651   9.615  17.965  0.00  0.00    +0.000 C 
BRANCH  15  16
ATOM     16  C   UNL     1       0.906  10.007  19.192  0.00  0.00    +0.000 A 
ATOM     17  C   UNL     1       0.386  11.234  19.539  0.00  0.00    +0.000 A 
ATOM     18  N   UNL     1      -0.107  11.081  20.805  0.00  0.00    +0.000 N 
ATOM     19  C   UNL     1      -0.687  12.007  21.657  0.00  0.00    +0.000 A 
ATOM     20  C   UNL     1      -1.075  11.622  22.880  0.00  0.00    +0.000 A 
ATOM     21  C   UNL     1      -0.838  10.180  23.185  0.00  0.00    +0.000 A 
ATOM     22  N   UNL     1      -0.303   9.298  22.398  0.00  0.00    +0.000 NA
ATOM     23  C   UNL     1       0.086   9.750  21.169  0.00  0.00    +0.000 A 
ATOM     24  N   UNL     1       0.691   9.096  20.198  0.00  0.00    +0.000 NA
ENDBRANCH  15  16
ENDBRANCH  14  15
ENDBRANCH   4  14
TORSDOF 4
ENDMDL
MODEL 9
REMARK VINA RESULT:      -7.0      3.239      5.830
REMARK  Name = 
REMARK  5 active torsions:
REMARK  status: ('A' for Active; 'I' for Inactive)
REMARK    1  A    between atoms: C_1  and  C_2
REMARK    2  A    between atoms: C_2  and  C_3
REMARK    3  A    between atoms: N_6  and  C_7
REMARK    4  A    between atoms: C_7  and  C_8
REMARK    5  A    between atoms: C_8  and  C_9
REMARK                            x       y       z     vdW  Elec       q    Type
REMARK                         _______ _______ _______ _____ _____    ______ ____
ROOT
ATOM      1  C   UNL     1       1.959   4.666  19.828  0.00  0.00    +0.000 A 
ATOM      2  N   UNL     1       1.716   5.982  20.001  0.00  0.00    +0.000 NA
ATOM      3  C   UNL     1       2.357   6.893  19.232  0.00  0.00    +0.000 A 
ATOM      4  N   UNL     1       2.136   8.244  19.422  0.00  0.00    +0.000 N 
ATOM      5  C   UNL     1       3.272   6.423  18.270  0.00  0.00    +0.000 A 
ATOM      6  C   UNL     1       4.113   7.084  17.311  0.00  0.00    +0.000 A 
ATOM      7  C   UNL     1       4.888   6.204  16.586  0.00  0.00    +0.000 A 
ATOM      8  S   UNL     1       4.597   4.582  17.041  0.00  0.00    +0.000 S 
ATOM      9  C   UNL     1       3.444   5.051  18.208  0.00  0.00    +0.000 A 
ATOM     10  N   UNL     1       2.820   4.128  18.954  0.00  0.00    +0.000 NA
ATOM     11  H   UNL     1       2.517   8.896  18.753  0.00  0.00    +0.000 HD
ENDROOT
BRANCH   1  13
ATOM     12  C   UNL     1       2.207   2.940  21.611  0.00  0.00    +0.000 C 
ATOM     13  C   UNL     1       1.232   3.712  20.737  0.00  0.00    +0.000 C 
ENDBRANCH   1  13
BRANCH   4  14
ATOM     14  C   UNL     1       1.128   8.687  20.370  0.00  0.00    +0.000 C 
BRANCH  14  15
ATOM     15  C   UNL     1       0.870  10.191  20.233  0.00  0.00    +0.000 C 
BRANCH  15  16
ATOM     16  C   UNL     1      -0.302  10.464  19.357  0.00  0.00    +0.000 A 
ATOM     17  C   UNL     1      -1.418  11.230  19.611  0.00  0.00    +0.000 A 
ATOM     18  N   UNL     1      -2.232  11.068  18.525  0.00  0.00    +0.000 N 
ATOM     19  C   UNL     1      -3.502  11.563  18.278  0.00  0.00    +0.000 A 
ATOM     20  C   UNL     1      -4.121  11.241  17.134  0.00  0.00    +0.000 A 
ATOM     21  C   UNL     1      -3.331  10.363  16.221  0.00  0.00    +0.000 A 
ATOM     22  N   UNL     1      -2.139   9.896  16.434  0.00  0.00    +0.000 NA
ATOM     23  C   UNL     1      -1.562  10.245  17.622  0.00  0.00    +0.000 A 
ATOM     24  N   UNL     1      -0.396   9.883  18.115  0.00  0.00    +0.000 NA
ENDBRANCH  15  16
ENDBRANCH  14  15
ENDBRANCH   4  14
TORSDOF 4
ENDMDL
