MODEL 1
REMARK VINA RESULT:      -8.6      0.000      0.000
REMARK  Name = 
REMARK  10 active torsions:
REMARK  status: ('A' for Active; 'I' for Inactive)
REMARK    1  A    between atoms: C_1  and  O_2
REMARK    2  A    between atoms: O_2  and  C_3
REMARK    3  A    between atoms: C_3  and  O_4
REMARK    4  A    between atoms: C_6  and  C_7
REMARK    5  A    between atoms: C_14  and  C_15
REMARK    6  A    between atoms: C_23  and  C_24
REMARK    7  A    between atoms: C_27  and  O_28
REMARK    8  A    between atoms: O_28  and  C_29
REMARK    9  A    between atoms: C_30  and  O_31
REMARK   10  A    between atoms: O_31  and  C_32
REMARK                            x       y       z     vdW  Elec       q    Type
REMARK                         _______ _______ _______ _____ _____    ______ ____
ROOT
ATOM      1  C   UNL     1       2.333   3.066  18.189  0.00  0.00    +0.000 C 
ATOM      2  C   UNL     1       2.094   4.192  18.898  0.00  0.00    +0.000 C 
ATOM      3  C   UNL     1       1.638   4.254  20.333  0.00  0.00    +0.000 C 
ATOM      4  C   UNL     1       1.387   3.018  21.182  0.00  0.00    +0.000 C 
ATOM      5  N   UNL     1       1.375   5.353  20.976  0.00  0.00    +0.000 NA
ATOM      6  C   UNL     1       1.448   6.571  20.358  0.00  0.00    +0.000 C 
ATOM      7  C   UNL     1       1.879   6.725  19.099  0.00  0.00    +0.000 C 
ATOM      8  C   UNL     1       1.860   8.074  18.467  0.00  0.00    +0.000 C 
ATOM      9  O   UNL     1       2.300   8.243  17.331  0.00  0.00    +0.000 OA
ATOM     10  C   UNL     1       1.165   9.202  19.187  0.00  0.00    +0.000 C 
ATOM     11  C   UNL     1       1.333   9.111  20.702  0.00  0.00    +0.000 C 
ATOM     12  C   UNL     1       0.998   7.711  21.238  0.00  0.00    +0.000 C 
ATOM     13  C   UNL     1       2.388   5.568  18.277  0.00  0.00    +0.000 C 
ENDROOT
BRANCH  11  14
ATOM     14  C   UNL     1       0.491  10.174  21.413  0.00  0.00    +0.000 A 
ATOM     15  C   UNL     1      -0.379   9.774  22.449  0.00  0.00    +0.000 A 
ATOM     16  C   UNL     1      -1.169  10.696  23.136  0.00  0.00    +0.000 A 
ATOM     17  C   UNL     1      -1.106  12.045  22.802  0.00  0.00    +0.000 A 
ATOM     18  C   UNL     1      -0.249  12.466  21.787  0.00  0.00    +0.000 A 
ATOM     19  C   UNL     1       0.546  11.541  21.095  0.00  0.00    +0.000 A 
ATOM     20 CL   UNL     1       1.580  12.170  19.862  0.00  0.00    +0.000 Cl
ENDBRANCH  11  14
BRANCH  13  21
ATOM     21  C   UNL     1       3.900   5.721  18.047  0.00  0.00    +0.000 A 
ATOM     22  C   UNL     1       4.780   5.813  19.131  0.00  0.00    +0.000 A 
ATOM     23  C   UNL     1       6.141   6.008  18.908  0.00  0.00    +0.000 A 
ATOM     24  C   UNL     1       6.653   6.092  17.607  0.00  0.00    +0.000 A 
ATOM     25  C   UNL     1       5.785   5.994  16.505  0.00  0.00    +0.000 A 
ATOM     26  C   UNL     1       4.418   5.807  16.743  0.00  0.00    +0.000 A 
BRANCH  24  27
ATOM     27  O   UNL     1       8.002   6.333  17.577  0.00  0.00    +0.000 OA
ATOM     28  C   UNL     1       8.467   7.429  18.353  0.00  0.00    +0.000 C 
ENDBRANCH  24  27
BRANCH  25  29
ATOM     29  O   UNL     1       6.308   6.121  15.245  0.00  0.00    +0.000 OA
ATOM     30  C   UNL     1       6.730   4.936  14.579  0.00  0.00    +0.000 C 
ENDBRANCH  25  29
ENDBRANCH  13  21
BRANCH   1  32
ATOM     31  C   UNL     1       3.610   1.155  18.758  0.00  0.00    +0.000 C 
ATOM     32  O   UNL     1       2.354   1.822  18.761  0.00  0.00    +0.000 OA
ENDBRANCH   1  32
BRANCH   1  33
ATOM     33  O   UNL     1       2.699   3.170  16.861  0.00  0.00    +0.000 OA
ATOM     34  H   UNL     1       3.011   4.084  16.743  0.00  0.00    +0.000 HD
ENDBRANCH   1  33
TORSDOF 6
ENDMDL
MODEL 2
REMARK VINA RESULT:      -7.8      0.970      1.204
REMARK  Name = 
REMARK  10 active torsions:
REMARK  status: ('A' for Active; 'I' for Inactive)
REMARK    1  A    between atoms: C_1  and  O_2
REMARK    2  A    between atoms: O_2  and  C_3
REMARK    3  A    between atoms: C_3  and  O_4
REMARK    4  A    between atoms: C_6  and  C_7
REMARK    5  A    between atoms: C_14  and  C_15
REMARK    6  A    between atoms: C_23  and  C_24
REMARK    7  A    between atoms: C_27  and  O_28
REMARK    8  A    between atoms: O_28  and  C_29
REMARK    9  A    between atoms: C_30  and  O_31
REMARK   10  A    between atoms: O_31  and  C_32
REMARK                            x       y       z     vdW  Elec       q    Type
REMARK                         _______ _______ _______ _____ _____    ______ ____
ROOT
ATOM      1  C   UNL     1       2.463   3.015  18.252  0.00  0.00    +0.000 C 
ATOM      2  C   UNL     1       2.150   4.174  18.875  0.00  0.00    +0.000 C 
ATOM      3  C   UNL     1       1.565   4.304  20.258  0.00  0.00    +0.000 C 
ATOM      4  C   UNL     1       1.251   3.111  21.146  0.00  0.00    +0.000 C 
ATOM      5  N   UNL     1       1.234   5.432  20.815  0.00  0.00    +0.000 NA
ATOM      6  C   UNL     1       1.350   6.616  20.141  0.00  0.00    +0.000 C 
ATOM      7  C   UNL     1       1.892   6.710  18.919  0.00  0.00    +0.000 C 
ATOM      8  C   UNL     1       1.916   8.023  18.217  0.00  0.00    +0.000 C 
ATOM      9  O   UNL     1       2.455   8.139  17.117  0.00  0.00    +0.000 OA
ATOM     10  C   UNL     1       1.147   9.178  18.809  0.00  0.00    +0.000 C 
ATOM     11  C   UNL     1       1.179   9.170  20.336  0.00  0.00    +0.000 C 
ATOM     12  C   UNL     1       0.811   7.794  20.915  0.00  0.00    +0.000 C 
ATOM     13  C   UNL     1       2.484   5.519  18.209  0.00  0.00    +0.000 C 
ENDROOT
BRANCH  11  14
ATOM     14  C   UNL     1       0.265  10.255  20.910  0.00  0.00    +0.000 A 
ATOM     15  C   UNL     1      -0.342  11.174  20.026  0.00  0.00    +0.000 A 
ATOM     16  C   UNL     1      -1.187  12.182  20.489  0.00  0.00    +0.000 A 
ATOM     17  C   UNL     1      -1.448  12.296  21.850  0.00  0.00    +0.000 A 
ATOM     18  C   UNL     1      -0.867  11.397  22.742  0.00  0.00    +0.000 A 
ATOM     19  C   UNL     1      -0.017  10.382  22.280  0.00  0.00    +0.000 A 
ATOM     20 CL   UNL     1       0.642   9.314  23.469  0.00  0.00    +0.000 Cl
ENDBRANCH  11  14
BRANCH  13  21
ATOM     21  C   UNL     1       4.009   5.682  18.108  0.00  0.00    +0.000 A 
ATOM     22  C   UNL     1       4.795   5.771  19.263  0.00  0.00    +0.000 A 
ATOM     23  C   UNL     1       6.168   5.975  19.156  0.00  0.00    +0.000 A 
ATOM     24  C   UNL     1       6.787   6.073  17.903  0.00  0.00    +0.000 A 
ATOM     25  C   UNL     1       6.015   5.978  16.731  0.00  0.00    +0.000 A 
ATOM     26  C   UNL     1       4.634   5.781  16.853  0.00  0.00    +0.000 A 
BRANCH  24  27
ATOM     27  O   UNL     1       8.132   6.321  17.988  0.00  0.00    +0.000 OA
ATOM     28  C   UNL     1       8.511   7.579  18.530  0.00  0.00    +0.000 C 
ENDBRANCH  24  27
BRANCH  25  29
ATOM     29  O   UNL     1       6.641   6.118  15.521  0.00  0.00    +0.000 OA
ATOM     30  C   UNL     1       6.979   4.933  14.808  0.00  0.00    +0.000 C 
ENDBRANCH  25  29
ENDBRANCH  13  21
BRANCH   1  32
ATOM     31  C   UNL     1       3.667   1.076  18.883  0.00  0.00    +0.000 C 
ATOM     32  O   UNL     1       2.445   1.804  18.890  0.00  0.00    +0.000 OA
ENDBRANCH   1  32
BRANCH   1  33
ATOM     33  O   UNL     1       2.947   3.055  16.959  0.00  0.00    +0.000 OA
ATOM     34  H   UNL     1       3.691   2.430  16.934  0.00  0.00    +0.000 HD
ENDBRANCH   1  33
TORSDOF 6
ENDMDL
MODEL 3
REMARK VINA RESULT:      -7.8      0.749      1.621
REMARK  Name = 
REMARK  10 active torsions:
REMARK  status: ('A' for Active; 'I' for Inactive)
REMARK    1  A    between atoms: C_1  and  O_2
REMARK    2  A    between atoms: O_2  and  C_3
REMARK    3  A    between atoms: C_3  and  O_4
REMARK    4  A    between atoms: C_6  and  C_7
REMARK    5  A    between atoms: C_14  and  C_15
REMARK    6  A    between atoms: C_23  and  C_24
REMARK    7  A    between atoms: C_27  and  O_28
REMARK    8  A    between atoms: O_28  and  C_29
REMARK    9  A    between atoms: C_30  and  O_31
REMARK   10  A    between atoms: O_31  and  C_32
REMARK                            x       y       z     vdW  Elec       q    Type
REMARK                         _______ _______ _______ _____ _____    ______ ____
ROOT
ATOM      1  C   UNL     1       2.150   3.245  18.176  0.00  0.00    +0.000 C 
ATOM      2  C   UNL     1       1.992   4.407  18.850  0.00  0.00    +0.000 C 
ATOM      3  C   UNL     1       1.707   4.543  20.325  0.00  0.00    +0.000 C 
ATOM      4  C   UNL     1       1.562   3.352  21.259  0.00  0.00    +0.000 C 
ATOM      5  N   UNL     1       1.519   5.674  20.937  0.00  0.00    +0.000 NA
ATOM      6  C   UNL     1       1.514   6.858  20.254  0.00  0.00    +0.000 C 
ATOM      7  C   UNL     1       1.794   6.947  18.946  0.00  0.00    +0.000 C 
ATOM      8  C   UNL     1       1.696   8.262  18.254  0.00  0.00    +0.000 C 
ATOM      9  O   UNL     1       1.998   8.373  17.066  0.00  0.00    +0.000 OA
ATOM     10  C   UNL     1       1.087   9.428  18.992  0.00  0.00    +0.000 C 
ATOM     11  C   UNL     1       1.432   9.414  20.480  0.00  0.00    +0.000 C 
ATOM     12  C   UNL     1       1.167   8.043  21.122  0.00  0.00    +0.000 C 
ATOM     13  C   UNL     1       2.206   5.749  18.130  0.00  0.00    +0.000 C 
ENDROOT
BRANCH  11  14
ATOM     14  C   UNL     1       0.676  10.513  21.229  0.00  0.00    +0.000 A 
ATOM     15  C   UNL     1      -0.226  10.146  22.251  0.00  0.00    +0.000 A 
ATOM     16  C   UNL     1      -0.941  11.102  22.972  0.00  0.00    +0.000 A 
ATOM     17  C   UNL     1      -0.770  12.453  22.688  0.00  0.00    +0.000 A 
ATOM     18  C   UNL     1       0.120  12.842  21.688  0.00  0.00    +0.000 A 
ATOM     19  C   UNL     1       0.840  11.882  20.962  0.00  0.00    +0.000 A 
ATOM     20 CL   UNL     1       1.924  12.472  19.752  0.00  0.00    +0.000 Cl
ENDBRANCH  11  14
BRANCH  13  21
ATOM     21  C   UNL     1       3.680   5.885  17.717  0.00  0.00    +0.000 A 
ATOM     22  C   UNL     1       4.027   6.475  16.495  0.00  0.00    +0.000 A 
ATOM     23  C   UNL     1       5.363   6.540  16.109  0.00  0.00    +0.000 A 
ATOM     24  C   UNL     1       6.378   6.043  16.937  0.00  0.00    +0.000 A 
ATOM     25  C   UNL     1       6.049   5.454  18.171  0.00  0.00    +0.000 A 
ATOM     26  C   UNL     1       4.702   5.386  18.544  0.00  0.00    +0.000 A 
BRANCH  24  27
ATOM     27  O   UNL     1       7.625   6.147  16.376  0.00  0.00    +0.000 OA
ATOM     28  C   UNL     1       7.817   5.488  15.132  0.00  0.00    +0.000 C 
ENDBRANCH  24  27
BRANCH  25  29
ATOM     29  O   UNL     1       7.059   4.940  18.941  0.00  0.00    +0.000 OA
ATOM     30  C   UNL     1       7.915   5.857  19.612  0.00  0.00    +0.000 C 
ENDBRANCH  25  29
ENDBRANCH  13  21
BRANCH   1  32
ATOM     31  C   UNL     1       3.511   1.393  18.744  0.00  0.00    +0.000 C 
ATOM     32  O   UNL     1       2.242   2.032  18.804  0.00  0.00    +0.000 OA
ENDBRANCH   1  32
BRANCH   1  33
ATOM     33  O   UNL     1       2.357   3.282  16.811  0.00  0.00    +0.000 OA
ATOM     34  H   UNL     1       3.322   3.272  16.689  0.00  0.00    +0.000 HD
ENDBRANCH   1  33
TORSDOF 6
ENDMDL
MODEL 4
REMARK VINA RESULT:      -7.4      0.971      1.187
REMARK  Name = 
REMARK  10 active torsions:
REMARK  status: ('A' for Active; 'I' for Inactive)
REMARK    1  A    between atoms: C_1  and  O_2
REMARK    2  A    between atoms: O_2  and  C_3
REMARK    3  A    between atoms: C_3  and  O_4
REMARK    4  A    between atoms: C_6  and  C_7
REMARK    5  A    between atoms: C_14  and  C_15
REMARK    6  A    between atoms: C_23  and  C_24
REMARK    7  A    between atoms: C_27  and  O_28
REMARK    8  A    between atoms: O_28  and  C_29
REMARK    9  A    between atoms: C_30  and  O_31
REMARK   10  A    between atoms: O_31  and  C_32
REMARK                            x       y       z     vdW  Elec       q    Type
REMARK                         _______ _______ _______ _____ _____    ______ ____
ROOT
ATOM      1  C   UNL     1       2.419   3.300  17.865  0.00  0.00    +0.000 C 
ATOM      2  C   UNL     1       2.118   4.356  18.653  0.00  0.00    +0.000 C 
ATOM      3  C   UNL     1       1.389   4.297  19.972  0.00  0.00    +0.000 C 
ATOM      4  C   UNL     1       0.893   3.001  20.593  0.00  0.00    +0.000 C 
ATOM      5  N   UNL     1       1.077   5.337  20.688  0.00  0.00    +0.000 NA
ATOM      6  C   UNL     1       1.352   6.604  20.255  0.00  0.00    +0.000 C 
ATOM      7  C   UNL     1       2.036   6.860  19.131  0.00  0.00    +0.000 C 
ATOM      8  C   UNL     1       2.232   8.267  18.685  0.00  0.00    +0.000 C 
ATOM      9  O   UNL     1       2.899   8.523  17.684  0.00  0.00    +0.000 OA
ATOM     10  C   UNL     1       1.483   9.365  19.398  0.00  0.00    +0.000 C 
ATOM     11  C   UNL     1       1.339   9.090  20.893  0.00  0.00    +0.000 C 
ATOM     12  C   UNL     1       0.812   7.674  21.173  0.00  0.00    +0.000 C 
ATOM     13  C   UNL     1       2.620   5.761  18.280  0.00  0.00    +0.000 C 
ENDROOT
BRANCH  11  14
ATOM     14  C   UNL     1       0.444  10.138  21.560  0.00  0.00    +0.000 A 
ATOM     15  C   UNL     1      -0.430   9.732  22.590  0.00  0.00    +0.000 A 
ATOM     16  C   UNL     1      -1.267  10.640  23.239  0.00  0.00    +0.000 A 
ATOM     17  C   UNL     1      -1.248  11.982  22.871  0.00  0.00    +0.000 A 
ATOM     18  C   UNL     1      -0.388  12.409  21.861  0.00  0.00    +0.000 A 
ATOM     19  C   UNL     1       0.454  11.498  21.209  0.00  0.00    +0.000 A 
ATOM     20 CL   UNL     1       1.488  12.134  19.979  0.00  0.00    +0.000 Cl
ENDBRANCH  11  14
BRANCH  13  21
ATOM     21  C   UNL     1       4.154   5.802  18.363  0.00  0.00    +0.000 A 
ATOM     22  C   UNL     1       4.838   5.034  19.313  0.00  0.00    +0.000 A 
ATOM     23  C   UNL     1       6.224   5.125  19.414  0.00  0.00    +0.000 A 
ATOM     24  C   UNL     1       6.956   5.961  18.561  0.00  0.00    +0.000 A 
ATOM     25  C   UNL     1       6.287   6.734  17.595  0.00  0.00    +0.000 A 
ATOM     26  C   UNL     1       4.892   6.641  17.510  0.00  0.00    +0.000 A 
BRANCH  24  27
ATOM     27  O   UNL     1       8.299   5.961  18.834  0.00  0.00    +0.000 OA
ATOM     28  C   UNL     1       8.692   5.396  20.078  0.00  0.00    +0.000 C 
ENDBRANCH  24  27
BRANCH  25  29
ATOM     29  O   UNL     1       7.024   7.573  16.803  0.00  0.00    +0.000 OA
ATOM     30  C   UNL     1       7.728   8.635  17.436  0.00  0.00    +0.000 C 
ENDBRANCH  25  29
ENDBRANCH  13  21
BRANCH   1  32
ATOM     31  C   UNL     1       3.427   1.281  18.581  0.00  0.00    +0.000 C 
ATOM     32  O   UNL     1       2.243   2.003  18.267  0.00  0.00    +0.000 OA
ENDBRANCH   1  32
BRANCH   1  33
ATOM     33  O   UNL     1       3.049   3.519  16.655  0.00  0.00    +0.000 OA
ATOM     34  H   UNL     1       2.706   2.839  16.050  0.00  0.00    +0.000 HD
ENDBRANCH   1  33
TORSDOF 6
ENDMDL
MODEL 5
REMARK VINA RESULT:      -7.4      3.721      8.615
REMARK  Name = 
REMARK  10 active torsions:
REMARK  status: ('A' for Active; 'I' for Inactive)
REMARK    1  A    between atoms: C_1  and  O_2
REMARK    2  A    between atoms: O_2  and  C_3
REMARK    3  A    between atoms: C_3  and  O_4
REMARK    4  A    between atoms: C_6  and  C_7
REMARK    5  A    between atoms: C_14  and  C_15
REMARK    6  A    between atoms: C_23  and  C_24
REMARK    7  A    between atoms: C_27  and  O_28
REMARK    8  A    between atoms: O_28  and  C_29
REMARK    9  A    between atoms: C_30  and  O_31
REMARK   10  A    between atoms: O_31  and  C_32
REMARK                            x       y       z     vdW  Elec       q    Type
REMARK                         _______ _______ _______ _____ _____    ______ ____
ROOT
ATOM      1  C   UNL     1      -0.396  11.980  21.968  0.00  0.00    +0.000 C 
ATOM      2  C   UNL     1       0.114  10.872  21.383  0.00  0.00    +0.000 C 
ATOM      3  C   UNL     1       0.311   9.532  22.045  0.00  0.00    +0.000 C 
ATOM      4  C   UNL     1      -0.054   9.257  23.495  0.00  0.00    +0.000 C 
ATOM      5  N   UNL     1       0.843   8.496  21.467  0.00  0.00    +0.000 NA
ATOM      6  C   UNL     1       1.326   8.567  20.189  0.00  0.00    +0.000 C 
ATOM      7  C   UNL     1       1.201   9.658  19.421  0.00  0.00    +0.000 C 
ATOM      8  C   UNL     1       1.818   9.687  18.066  0.00  0.00    +0.000 C 
ATOM      9  O   UNL     1       1.670  10.660  17.328  0.00  0.00    +0.000 OA
ATOM     10  C   UNL     1       2.744   8.566  17.666  0.00  0.00    +0.000 C 
ATOM     11  C   UNL     1       2.300   7.220  18.234  0.00  0.00    +0.000 C 
ATOM     12  C   UNL     1       2.005   7.296  19.740  0.00  0.00    +0.000 C 
ATOM     13  C   UNL     1       0.452  10.883  19.883  0.00  0.00    +0.000 C 
ENDROOT
BRANCH  11  14
ATOM     14  C   UNL     1       3.338   6.133  17.945  0.00  0.00    +0.000 A 
ATOM     15  C   UNL     1       4.700   6.495  17.861  0.00  0.00    +0.000 A 
ATOM     16  C   UNL     1       5.693   5.550  17.605  0.00  0.00    +0.000 A 
ATOM     17  C   UNL     1       5.347   4.214  17.426  0.00  0.00    +0.000 A 
ATOM     18  C   UNL     1       4.010   3.830  17.511  0.00  0.00    +0.000 A 
ATOM     19  C   UNL     1       3.010   4.779  17.770  0.00  0.00    +0.000 A 
ATOM     20 CL   UNL     1       1.386   4.195  17.865  0.00  0.00    +0.000 Cl
ENDBRANCH  11  14
BRANCH  13  21
ATOM     21  C   UNL     1      -0.837  11.042  19.062  0.00  0.00    +0.000 A 
ATOM     22  C   UNL     1      -1.770  12.034  19.384  0.00  0.00    +0.000 A 
ATOM     23  C   UNL     1      -2.960  12.129  18.667  0.00  0.00    +0.000 A 
ATOM     24  C   UNL     1      -3.235  11.257  17.606  0.00  0.00    +0.000 A 
ATOM     25  C   UNL     1      -2.305  10.259  17.262  0.00  0.00    +0.000 A 
ATOM     26  C   UNL     1      -1.117  10.168  17.997  0.00  0.00    +0.000 A 
BRANCH  24  27
ATOM     27  O   UNL     1      -4.469  11.465  17.047  0.00  0.00    +0.000 OA
ATOM     28  C   UNL     1      -5.431  12.120  17.863  0.00  0.00    +0.000 C 
ENDBRANCH  24  27
BRANCH  25  29
ATOM     29  O   UNL     1      -2.618   9.394  16.247  0.00  0.00    +0.000 OA
ATOM     30  C   UNL     1      -2.739   9.929  14.934  0.00  0.00    +0.000 C 
ENDBRANCH  25  29
ENDBRANCH  13  21
BRANCH   1  32
ATOM     31  C   UNL     1      -2.378  12.124  23.255  0.00  0.00    +0.000 C 
ATOM     32  O   UNL     1      -0.966  11.962  23.213  0.00  0.00    +0.000 OA
ENDBRANCH   1  32
BRANCH   1  33
ATOM     33  O   UNL     1      -0.468  13.153  21.243  0.00  0.00    +0.000 OA
ATOM     34  H   UNL     1       0.443  13.349  20.965  0.00  0.00    +0.000 HD
ENDBRANCH   1  33
TORSDOF 6
ENDMDL
MODEL 6
REMARK VINA RESULT:      -7.3      3.743      8.623
REMARK  Name = 
REMARK  10 active torsions:
REMARK  status: ('A' for Active; 'I' for Inactive)
REMARK    1  A    between atoms: C_1  and  O_2
REMARK    2  A    between atoms: O_2  and  C_3
REMARK    3  A    between atoms: C_3  and  O_4
REMARK    4  A    between atoms: C_6  and  C_7
REMARK    5  A    between atoms: C_14  and  C_15
REMARK    6  A    between atoms: C_23  and  C_24
REMARK    7  A    between atoms: C_27  and  O_28
REMARK    8  A    between atoms: O_28  and  C_29
REMARK    9  A    between atoms: C_30  and  O_31
REMARK   10  A    between atoms: O_31  and  C_32
REMARK                            x       y       z     vdW  Elec       q    Type
REMARK                         _______ _______ _______ _____ _____    ______ ____
ROOT
ATOM      1  C   UNL     1      -0.202  12.105  21.613  0.00  0.00    +0.000 C 
ATOM      2  C   UNL     1       0.247  10.896  21.205  0.00  0.00    +0.000 C 
ATOM      3  C   UNL     1       0.254   9.632  22.027  0.00  0.00    +0.000 C 
ATOM      4  C   UNL     1      -0.262   9.563  23.455  0.00  0.00    +0.000 C 
ATOM      5  N   UNL     1       0.731   8.492  21.621  0.00  0.00    +0.000 NA
ATOM      6  C   UNL     1       1.329   8.370  20.397  0.00  0.00    +0.000 C 
ATOM      7  C   UNL     1       1.378   9.369  19.505  0.00  0.00    +0.000 C 
ATOM      8  C   UNL     1       2.111   9.184  18.223  0.00  0.00    +0.000 C 
ATOM      9  O   UNL     1       2.124  10.071  17.371  0.00  0.00    +0.000 OA
ATOM     10  C   UNL     1       2.955   7.947  18.041  0.00  0.00    +0.000 C 
ATOM     11  C   UNL     1       2.334   6.721  18.707  0.00  0.00    +0.000 C 
ATOM     12  C   UNL     1       1.917   7.000  20.159  0.00  0.00    +0.000 C 
ATOM     13  C   UNL     1       0.715  10.700  19.754  0.00  0.00    +0.000 C 
ENDROOT
BRANCH  11  14
ATOM     14  C   UNL     1       3.283   5.522  18.642  0.00  0.00    +0.000 A 
ATOM     15  C   UNL     1       4.612   5.678  19.091  0.00  0.00    +0.000 A 
ATOM     16  C   UNL     1       5.523   4.621  19.061  0.00  0.00    +0.000 A 
ATOM     17  C   UNL     1       5.124   3.378  18.581  0.00  0.00    +0.000 A 
ATOM     18  C   UNL     1       3.815   3.197  18.138  0.00  0.00    +0.000 A 
ATOM     19  C   UNL     1       2.898   4.257  18.168  0.00  0.00    +0.000 A 
ATOM     20 CL   UNL     1       1.298   3.921  17.606  0.00  0.00    +0.000 Cl
ENDBRANCH  11  14
BRANCH  13  21
ATOM     21  C   UNL     1      -0.476  10.872  18.798  0.00  0.00    +0.000 A 
ATOM     22  C   UNL     1      -0.568  11.995  17.968  0.00  0.00    +0.000 A 
ATOM     23  C   UNL     1      -1.681  12.165  17.149  0.00  0.00    +0.000 A 
ATOM     24  C   UNL     1      -2.709  11.214  17.122  0.00  0.00    +0.000 A 
ATOM     25  C   UNL     1      -2.630  10.074  17.943  0.00  0.00    +0.000 A 
ATOM     26  C   UNL     1      -1.510   9.920  18.769  0.00  0.00    +0.000 A 
BRANCH  24  27
ATOM     27  O   UNL     1      -3.745  11.567  16.296  0.00  0.00    +0.000 OA
ATOM     28  C   UNL     1      -3.823  10.887  15.051  0.00  0.00    +0.000 C 
ENDBRANCH  24  27
BRANCH  25  29
ATOM     29  O   UNL     1      -3.669   9.182  17.927  0.00  0.00    +0.000 OA
ATOM     30  C   UNL     1      -4.915   9.605  18.469  0.00  0.00    +0.000 C 
ENDBRANCH  25  29
ENDBRANCH  13  21
BRANCH   1  32
ATOM     31  C   UNL     1      -1.110  13.633  23.178  0.00  0.00    +0.000 C 
ATOM     32  O   UNL     1      -0.878  12.284  22.790  0.00  0.00    +0.000 OA
ENDBRANCH   1  32
BRANCH   1  33
ATOM     33  O   UNL     1      -0.096  13.186  20.760  0.00  0.00    +0.000 OA
ATOM     34  H   UNL     1      -0.932  13.215  20.263  0.00  0.00    +0.000 HD
ENDBRANCH   1  33
TORSDOF 6
ENDMDL
MODEL 7
REMARK VINA RESULT:      -7.2      1.373      1.715
REMARK  Name = 
REMARK  10 active torsions:
REMARK  status: ('A' for Active; 'I' for Inactive)
REMARK    1  A    between atoms: C_1  and  O_2
REMARK    2  A    between atoms: O_2  and  C_3
REMARK    3  A    between atoms: C_3  and  O_4
REMARK    4  A    between atoms: C_6  and  C_7
REMARK    5  A    between atoms: C_14  and  C_15
REMARK    6  A    between atoms: C_23  and  C_24
REMARK    7  A    between atoms: C_27  and  O_28
REMARK    8  A    between atoms: O_28  and  C_29
REMARK    9  A    between atoms: C_30  and  O_31
REMARK   10  A    between atoms: O_31  and  C_32
REMARK                            x       y       z     vdW  Elec       q    Type
REMARK                         _______ _______ _______ _____ _____    ______ ____
ROOT
ATOM      1  C   UNL     1       2.627   3.221  17.795  0.00  0.00    +0.000 C 
ATOM      2  C   UNL     1       2.243   4.302  18.511  0.00  0.00    +0.000 C 
ATOM      3  C   UNL     1       1.422   4.280  19.776  0.00  0.00    +0.000 C 
ATOM      4  C   UNL     1       0.916   2.999  20.419  0.00  0.00    +0.000 C 
ATOM      5  N   UNL     1       1.033   5.341  20.419  0.00  0.00    +0.000 NA
ATOM      6  C   UNL     1       1.305   6.595  19.949  0.00  0.00    +0.000 C 
ATOM      7  C   UNL     1       2.061   6.820  18.866  0.00  0.00    +0.000 C 
ATOM      8  C   UNL     1       2.253   8.211  18.370  0.00  0.00    +0.000 C 
ATOM      9  O   UNL     1       2.985   8.442  17.409  0.00  0.00    +0.000 OA
ATOM     10  C   UNL     1       1.427   9.318  18.976  0.00  0.00    +0.000 C 
ATOM     11  C   UNL     1       1.182   9.105  20.469  0.00  0.00    +0.000 C 
ATOM     12  C   UNL     1       0.673   7.688  20.775  0.00  0.00    +0.000 C 
ATOM     13  C   UNL     1       2.735   5.703  18.110  0.00  0.00    +0.000 C 
ENDROOT
BRANCH  11  14
ATOM     14  C   UNL     1       0.214  10.155  21.021  0.00  0.00    +0.000 A 
ATOM     15  C   UNL     1      -0.423  11.036  20.122  0.00  0.00    +0.000 A 
ATOM     16  C   UNL     1      -1.318  12.010  20.564  0.00  0.00    +0.000 A 
ATOM     17  C   UNL     1      -1.599  12.126  21.922  0.00  0.00    +0.000 A 
ATOM     18  C   UNL     1      -0.987  11.263  22.829  0.00  0.00    +0.000 A 
ATOM     19  C   UNL     1      -0.088  10.282  22.387  0.00  0.00    +0.000 A 
ATOM     20 CL   UNL     1       0.605   9.258  23.594  0.00  0.00    +0.000 Cl
ENDBRANCH  11  14
BRANCH  13  21
ATOM     21  C   UNL     1       4.257   5.792  18.300  0.00  0.00    +0.000 A 
ATOM     22  C   UNL     1       4.887   5.099  19.341  0.00  0.00    +0.000 A 
ATOM     23  C   UNL     1       6.260   5.235  19.535  0.00  0.00    +0.000 A 
ATOM     24  C   UNL     1       7.032   6.041  18.689  0.00  0.00    +0.000 A 
ATOM     25  C   UNL     1       6.417   6.738  17.633  0.00  0.00    +0.000 A 
ATOM     26  C   UNL     1       5.035   6.600  17.454  0.00  0.00    +0.000 A 
BRANCH  24  27
ATOM     27  O   UNL     1       8.351   6.095  19.057  0.00  0.00    +0.000 OA
ATOM     28  C   UNL     1       8.706   5.396  20.243  0.00  0.00    +0.000 C 
ENDBRANCH  24  27
BRANCH  25  29
ATOM     29  O   UNL     1       7.190   7.551  16.847  0.00  0.00    +0.000 OA
ATOM     30  C   UNL     1       7.788   8.689  17.456  0.00  0.00    +0.000 C 
ENDBRANCH  25  29
ENDBRANCH  13  21
BRANCH   1  32
ATOM     31  C   UNL     1       3.639   1.247  18.626  0.00  0.00    +0.000 C 
ATOM     32  O   UNL     1       2.456   1.938  18.244  0.00  0.00    +0.000 OA
ENDBRANCH   1  32
BRANCH   1  33
ATOM     33  O   UNL     1       3.337   3.405  16.625  0.00  0.00    +0.000 OA
ATOM     34  H   UNL     1       2.673   3.575  15.936  0.00  0.00    +0.000 HD
ENDBRANCH   1  33
TORSDOF 6
ENDMDL
MODEL 8
REMARK VINA RESULT:      -7.2      3.776      8.793
REMARK  Name = 
REMARK  10 active torsions:
REMARK  status: ('A' for Active; 'I' for Inactive)
REMARK    1  A    between atoms: C_1  and  O_2
REMARK    2  A    between atoms: O_2  and  C_3
REMARK    3  A    between atoms: C_3  and  O_4
REMARK    4  A    between atoms: C_6  and  C_7
REMARK    5  A    between atoms: C_14  and  C_15
REMARK    6  A    between atoms: C_23  and  C_24
REMARK    7  A    between atoms: C_27  and  O_28
REMARK    8  A    between atoms: O_28  and  C_29
REMARK    9  A    between atoms: C_30  and  O_31
REMARK   10  A    between atoms: O_31  and  C_32
REMARK                            x       y       z     vdW  Elec       q    Type
REMARK                         _______ _______ _______ _____ _____    ______ ____
ROOT
ATOM      1  C   UNL     1      -0.354  11.860  21.866  0.00  0.00    +0.000 C 
ATOM      2  C   UNL     1       0.179  10.735  21.339  0.00  0.00    +0.000 C 
ATOM      3  C   UNL     1       0.412   9.438  22.073  0.00  0.00    +0.000 C 
ATOM      4  C   UNL     1       0.062   9.235  23.538  0.00  0.00    +0.000 C 
ATOM      5  N   UNL     1       0.967   8.385  21.549  0.00  0.00    +0.000 NA
ATOM      6  C   UNL     1       1.441   8.397  20.267  0.00  0.00    +0.000 C 
ATOM      7  C   UNL     1       1.285   9.441  19.441  0.00  0.00    +0.000 C 
ATOM      8  C   UNL     1       1.894   9.410  18.082  0.00  0.00    +0.000 C 
ATOM      9  O   UNL     1       1.719  10.336  17.292  0.00  0.00    +0.000 OA
ATOM     10  C   UNL     1       2.845   8.291  17.738  0.00  0.00    +0.000 C 
ATOM     11  C   UNL     1       2.437   6.967  18.382  0.00  0.00    +0.000 C 
ATOM     12  C   UNL     1       2.148   7.120  19.884  0.00  0.00    +0.000 C 
ATOM     13  C   UNL     1       0.509  10.671  19.839  0.00  0.00    +0.000 C 
ENDROOT
BRANCH  11  14
ATOM     14  C   UNL     1       3.500   5.891  18.147  0.00  0.00    +0.000 A 
ATOM     15  C   UNL     1       4.862   6.254  18.203  0.00  0.00    +0.000 A 
ATOM     16  C   UNL     1       5.877   5.318  18.001  0.00  0.00    +0.000 A 
ATOM     17  C   UNL     1       5.551   3.992  17.738  0.00  0.00    +0.000 A 
ATOM     18  C   UNL     1       4.213   3.607  17.685  0.00  0.00    +0.000 A 
ATOM     19  C   UNL     1       3.191   4.546  17.888  0.00  0.00    +0.000 A 
ATOM     20 CL   UNL     1       1.567   3.960  17.811  0.00  0.00    +0.000 Cl
ENDBRANCH  11  14
BRANCH  13  21
ATOM     21  C   UNL     1      -0.788  10.753  19.019  0.00  0.00    +0.000 A 
ATOM     22  C   UNL     1      -0.952   9.980  17.864  0.00  0.00    +0.000 A 
ATOM     23  C   UNL     1      -2.109  10.107  17.100  0.00  0.00    +0.000 A 
ATOM     24  C   UNL     1      -3.132  10.986  17.481  0.00  0.00    +0.000 A 
ATOM     25  C   UNL     1      -2.988  11.766  18.643  0.00  0.00    +0.000 A 
ATOM     26  C   UNL     1      -1.815  11.635  19.397  0.00  0.00    +0.000 A 
BRANCH  24  27
ATOM     27  O   UNL     1      -4.171  11.017  16.588  0.00  0.00    +0.000 OA
ATOM     28  C   UNL     1      -3.876  10.614  15.258  0.00  0.00    +0.000 C 
ENDBRANCH  24  27
BRANCH  25  29
ATOM     29  O   UNL     1      -3.985  12.647  18.968  0.00  0.00    +0.000 OA
ATOM     30  C   UNL     1      -4.824  12.321  20.070  0.00  0.00    +0.000 C 
ENDBRANCH  25  29
ENDBRANCH  13  21
BRANCH   1  32
ATOM     31  C   UNL     1      -2.333  12.029  23.156  0.00  0.00    +0.000 C 
ATOM     32  O   UNL     1      -0.917  11.897  23.114  0.00  0.00    +0.000 OA
ENDBRANCH   1  32
BRANCH   1  33
ATOM     33  O   UNL     1      -0.458  12.989  21.078  0.00  0.00    +0.000 OA
ATOM     34  H   UNL     1       0.366  13.487  21.218  0.00  0.00    +0.000 HD
ENDBRANCH   1  33
TORSDOF 6
ENDMDL
MODEL 9
REMARK VINA RESULT:      -7.1      1.169      2.049
REMARK  Name = 
REMARK  10 active torsions:
REMARK  status: ('A' for Active; 'I' for Inactive)
REMARK    1  A    between atoms: C_1  and  O_2
REMARK    2  A    between atoms: O_2  and  C_3
REMARK    3  A    between atoms: C_3  and  O_4
REMARK    4  A    between atoms: C_6  and  C_7
REMARK    5  A    between atoms: C_14  and  C_15
REMARK    6  A    between atoms: C_23  and  C_24
REMARK    7  A    between atoms: C_27  and  O_28
REMARK    8  A    between atoms: O_28  and  C_29
REMARK    9  A    between atoms: C_30  and  O_31
REMARK   10  A    between atoms: O_31  and  C_32
REMARK                            x       y       z     vdW  Elec       q    Type
REMARK                         _______ _______ _______ _____ _____    ______ ____
ROOT
ATOM      1  C   UNL     1       2.181   3.285  18.342  0.00  0.00    +0.000 C 
ATOM      2  C   UNL     1       2.045   4.476  18.968  0.00  0.00    +0.000 C 
ATOM      3  C   UNL     1       1.796   4.678  20.441  0.00  0.00    +0.000 C 
ATOM      4  C   UNL     1       1.667   3.530  21.430  0.00  0.00    +0.000 C 
ATOM      5  N   UNL     1       1.628   5.836  21.008  0.00  0.00    +0.000 NA
ATOM      6  C   UNL     1       1.613   6.990  20.273  0.00  0.00    +0.000 C 
ATOM      7  C   UNL     1       1.862   7.019  18.957  0.00  0.00    +0.000 C 
ATOM      8  C   UNL     1       1.754   8.303  18.210  0.00  0.00    +0.000 C 
ATOM      9  O   UNL     1       2.029   8.360  17.012  0.00  0.00    +0.000 OA
ATOM     10  C   UNL     1       1.169   9.503  18.910  0.00  0.00    +0.000 C 
ATOM     11  C   UNL     1       1.550   9.553  20.389  0.00  0.00    +0.000 C 
ATOM     12  C   UNL     1       1.293   8.213  21.096  0.00  0.00    +0.000 C 
ATOM     13  C   UNL     1       2.249   5.784  18.185  0.00  0.00    +0.000 C 
ENDROOT
BRANCH  11  14
ATOM     14  C   UNL     1       0.817  10.688  21.107  0.00  0.00    +0.000 A 
ATOM     15  C   UNL     1       1.111  12.022  20.752  0.00  0.00    +0.000 A 
ATOM     16  C   UNL     1       0.474  13.100  21.368  0.00  0.00    +0.000 A 
ATOM     17  C   UNL     1      -0.478  12.867  22.355  0.00  0.00    +0.000 A 
ATOM     18  C   UNL     1      -0.792  11.559  22.718  0.00  0.00    +0.000 A 
ATOM     19  C   UNL     1      -0.153  10.474  22.100  0.00  0.00    +0.000 A 
ATOM     20 CL   UNL     1      -0.623   8.894  22.617  0.00  0.00    +0.000 Cl
ENDBRANCH  11  14
BRANCH  13  21
ATOM     21  C   UNL     1       3.713   5.893  17.731  0.00  0.00    +0.000 A 
ATOM     22  C   UNL     1       4.036   6.463  16.494  0.00  0.00    +0.000 A 
ATOM     23  C   UNL     1       5.362   6.503  16.072  0.00  0.00    +0.000 A 
ATOM     24  C   UNL     1       6.391   6.000  16.878  0.00  0.00    +0.000 A 
ATOM     25  C   UNL     1       6.087   5.431  18.127  0.00  0.00    +0.000 A 
ATOM     26  C   UNL     1       4.749   5.388  18.536  0.00  0.00    +0.000 A 
BRANCH  24  27
ATOM     27  O   UNL     1       7.624   6.079  16.284  0.00  0.00    +0.000 OA
ATOM     28  C   UNL     1       7.813   5.298  15.111  0.00  0.00    +0.000 C 
ENDBRANCH  24  27
BRANCH  25  29
ATOM     29  O   UNL     1       7.108   4.909  18.876  0.00  0.00    +0.000 OA
ATOM     30  C   UNL     1       7.930   5.818  19.601  0.00  0.00    +0.000 C 
ENDBRANCH  25  29
ENDBRANCH  13  21
BRANCH   1  32
ATOM     31  C   UNL     1       3.508   1.396  18.867  0.00  0.00    +0.000 C 
ATOM     32  O   UNL     1       2.281   2.100  19.021  0.00  0.00    +0.000 OA
ENDBRANCH   1  32
BRANCH   1  33
ATOM     33  O   UNL     1       2.355   3.260  16.972  0.00  0.00    +0.000 OA
ATOM     34  H   UNL     1       2.578   2.340  16.750  0.00  0.00    +0.000 HD
ENDBRANCH   1  33
TORSDOF 6
ENDMDL
