MODEL 1
REMARK VINA RESULT:      -7.2      0.000      0.000
REMARK  Name = 
REMARK  5 active torsions:
REMARK  status: ('A' for Active; 'I' for Inactive)
REMARK    1  A    between atoms: C_1  and  C_2
REMARK    2  A    between atoms: C_3  and  C_4
REMARK    3  A    between atoms: C_17  and  C_18
REMARK    4  A    between atoms: C_18  and  C_19
REMARK    5  A    between atoms: C_18  and  C_20
REMARK                            x       y       z     vdW  Elec       q    Type
REMARK                         _______ _______ _______ _____ _____    ______ ____
ROOT
ATOM      1  C   UNL     1       2.276   9.079  17.903  0.00  0.00    +0.000 C 
ATOM      2  C   UNL     1       2.086   8.073  18.989  0.00  0.00    +0.000 C 
ATOM      3  C   UNL     1       2.595   6.843  19.093  0.00  0.00    +0.000 C 
ATOM      4  C   UNL     1       2.089   6.290  20.361  0.00  0.00    +0.000 C 
ATOM      5  O   UNL     1       2.334   5.177  20.797  0.00  0.00    +0.000 OA
ATOM      6  O   UNL     1       1.302   7.215  20.993  0.00  0.00    +0.000 OA
ATOM      7  C   UNL     1       1.273   8.318  20.148  0.00  0.00    +0.000 C 
ATOM      8  C   UNL     1       0.566   9.421  20.434  0.00  0.00    +0.000 C 
ENDROOT
BRANCH   3   9
ATOM      9  C   UNL     1       3.467   6.190  18.198  0.00  0.00    +0.000 A 
ATOM     10  C   UNL     1       3.308   4.978  17.528  0.00  0.00    +0.000 A 
ATOM     11  C   UNL     1       4.476   4.730  16.765  0.00  0.00    +0.000 A 
ATOM     12  C   UNL     1       4.926   3.709  15.910  0.00  0.00    +0.000 A 
ATOM     13  C   UNL     1       6.201   3.828  15.338  0.00  0.00    +0.000 A 
ATOM     14  C   UNL     1       7.011   4.936  15.606  0.00  0.00    +0.000 A 
ATOM     15  C   UNL     1       6.576   5.963  16.449  0.00  0.00    +0.000 A 
ATOM     16  C   UNL     1       5.307   5.811  17.003  0.00  0.00    +0.000 A 
ATOM     17  O   UNL     1       4.707   6.687  17.847  0.00  0.00    +0.000 OA
ENDBRANCH   3   9
BRANCH   8  18
ATOM     18  C   UNL     1      -0.232   9.638  21.699  0.00  0.00    +0.000 C 
ATOM     19  C   UNL     1       0.673   9.462  22.921  0.00  0.00    +0.000 C 
ATOM     20  C   UNL     1      -0.866  11.029  21.712  0.00  0.00    +0.000 C 
ENDBRANCH   8  18
TORSDOF 2
ENDMDL
MODEL 2
REMARK VINA RESULT:      -7.0      1.577      7.734
REMARK  Name = 
REMARK  5 active torsions:
REMARK  status: ('A' for Active; 'I' for Inactive)
REMARK    1  A    between atoms: C_1  and  C_2
REMARK    2  A    between atoms: C_3  and  C_4
REMARK    3  A    between atoms: C_17  and  C_18
REMARK    4  A    between atoms: C_18  and  C_19
REMARK    5  A    between atoms: C_18  and  C_20
REMARK                            x       y       z     vdW  Elec       q    Type
REMARK                         _______ _______ _______ _____ _____    ______ ____
ROOT
ATOM      1  C   UNL     1       1.984   6.086  20.518  0.00  0.00    +0.000 C 
ATOM      2  C   UNL     1       2.257   7.044  19.406  0.00  0.00    +0.000 C 
ATOM      3  C   UNL     1       1.833   8.301  19.258  0.00  0.00    +0.000 C 
ATOM      4  C   UNL     1       2.398   8.783  17.985  0.00  0.00    +0.000 C 
ATOM      5  O   UNL     1       2.224   9.892  17.507  0.00  0.00    +0.000 OA
ATOM      6  O   UNL     1       3.163   7.802  17.413  0.00  0.00    +0.000 OA
ATOM      7  C   UNL     1       3.070   6.711  18.269  0.00  0.00    +0.000 C 
ATOM      8  C   UNL     1       3.678   5.544  18.010  0.00  0.00    +0.000 C 
ENDROOT
BRANCH   3   9
ATOM      9  C   UNL     1       1.029   9.053  20.140  0.00  0.00    +0.000 A 
ATOM     10  C   UNL     1       0.795   8.870  21.501  0.00  0.00    +0.000 A 
ATOM     11  C   UNL     1      -0.113   9.866  21.939  0.00  0.00    +0.000 A 
ATOM     12  C   UNL     1      -0.732  10.206  23.154  0.00  0.00    +0.000 A 
ATOM     13  C   UNL     1      -1.616  11.294  23.175  0.00  0.00    +0.000 A 
ATOM     14  C   UNL     1      -1.877  12.033  22.017  0.00  0.00    +0.000 A 
ATOM     15  C   UNL     1      -1.264  11.712  20.801  0.00  0.00    +0.000 A 
ATOM     16  C   UNL     1      -0.396  10.624  20.816  0.00  0.00    +0.000 A 
ATOM     17  O   UNL     1       0.288  10.150  19.745  0.00  0.00    +0.000 OA
ENDBRANCH   3   9
BRANCH   8  18
ATOM     18  C   UNL     1       4.565   5.272  16.817  0.00  0.00    +0.000 C 
ATOM     19  C   UNL     1       5.947   5.888  17.046  0.00  0.00    +0.000 C 
ATOM     20  C   UNL     1       4.694   3.770  16.566  0.00  0.00    +0.000 C 
ENDBRANCH   8  18
TORSDOF 2
ENDMDL
MODEL 3
REMARK VINA RESULT:      -7.0      3.552      5.068
REMARK  Name = 
REMARK  5 active torsions:
REMARK  status: ('A' for Active; 'I' for Inactive)
REMARK    1  A    between atoms: C_1  and  C_2
REMARK    2  A    between atoms: C_3  and  C_4
REMARK    3  A    between atoms: C_17  and  C_18
REMARK    4  A    between atoms: C_18  and  C_19
REMARK    5  A    between atoms: C_18  and  C_20
REMARK                            x       y       z     vdW  Elec       q    Type
REMARK                         _______ _______ _______ _____ _____    ______ ____
ROOT
ATOM      1  C   UNL     1       2.826   3.295  16.568  0.00  0.00    +0.000 C 
ATOM      2  C   UNL     1       3.899   3.712  17.518  0.00  0.00    +0.000 C 
ATOM      3  C   UNL     1       5.147   4.107  17.255  0.00  0.00    +0.000 C 
ATOM      4  C   UNL     1       5.773   4.402  18.555  0.00  0.00    +0.000 C 
ATOM      5  O   UNL     1       6.920   4.785  18.719  0.00  0.00    +0.000 OA
ATOM      6  O   UNL     1       4.872   4.191  19.565  0.00  0.00    +0.000 OA
ATOM      7  C   UNL     1       3.713   3.744  18.942  0.00  0.00    +0.000 C 
ATOM      8  C   UNL     1       2.614   3.408  19.633  0.00  0.00    +0.000 C 
ENDROOT
BRANCH   3   9
ATOM      9  C   UNL     1       5.760   4.251  15.993  0.00  0.00    +0.000 A 
ATOM     10  C   UNL     1       6.734   5.157  15.578  0.00  0.00    +0.000 A 
ATOM     11  C   UNL     1       7.007   4.926  14.206  0.00  0.00    +0.000 A 
ATOM     12  C   UNL     1       7.851   5.491  13.235  0.00  0.00    +0.000 A 
ATOM     13  C   UNL     1       7.815   4.973  11.932  0.00  0.00    +0.000 A 
ATOM     14  C   UNL     1       6.963   3.915  11.600  0.00  0.00    +0.000 A 
ATOM     15  C   UNL     1       6.121   3.337  12.557  0.00  0.00    +0.000 A 
ATOM     16  C   UNL     1       6.180   3.879  13.838  0.00  0.00    +0.000 A 
ATOM     17  O   UNL     1       5.443   3.468  14.900  0.00  0.00    +0.000 OA
ENDBRANCH   3   9
BRANCH   8  18
ATOM     18  C   UNL     1       2.463   3.512  21.133  0.00  0.00    +0.000 C 
ATOM     19  C   UNL     1       2.084   4.943  21.518  0.00  0.00    +0.000 C 
ATOM     20  C   UNL     1       1.407   2.533  21.644  0.00  0.00    +0.000 C 
ENDBRANCH   8  18
TORSDOF 2
ENDMDL
MODEL 4
REMARK VINA RESULT:      -6.9      1.304      1.902
REMARK  Name = 
REMARK  5 active torsions:
REMARK  status: ('A' for Active; 'I' for Inactive)
REMARK    1  A    between atoms: C_1  and  C_2
REMARK    2  A    between atoms: C_3  and  C_4
REMARK    3  A    between atoms: C_17  and  C_18
REMARK    4  A    between atoms: C_18  and  C_19
REMARK    5  A    between atoms: C_18  and  C_20
REMARK                            x       y       z     vdW  Elec       q    Type
REMARK                         _______ _______ _______ _____ _____    ______ ____
ROOT
ATOM      1  C   UNL     1       2.295   5.908  20.799  0.00  0.00    +0.000 C 
ATOM      2  C   UNL     1       2.104   7.107  19.931  0.00  0.00    +0.000 C 
ATOM      3  C   UNL     1       2.616   7.361  18.724  0.00  0.00    +0.000 C 
ATOM      4  C   UNL     1       2.101   8.682  18.324  0.00  0.00    +0.000 C 
ATOM      5  O   UNL     1       2.358   9.255  17.277  0.00  0.00    +0.000 OA
ATOM      6  O   UNL     1       1.276   9.177  19.298  0.00  0.00    +0.000 OA
ATOM      7  C   UNL     1       1.283   8.224  20.310  0.00  0.00    +0.000 C 
ATOM      8  C   UNL     1       0.598   8.387  21.451  0.00  0.00    +0.000 C 
ENDROOT
BRANCH   3   9
ATOM      9  C   UNL     1       3.459   6.536  17.951  0.00  0.00    +0.000 A 
ATOM     10  C   UNL     1       3.268   5.224  17.525  0.00  0.00    +0.000 A 
ATOM     11  C   UNL     1       4.416   4.816  16.800  0.00  0.00    +0.000 A 
ATOM     12  C   UNL     1       4.833   3.645  16.143  0.00  0.00    +0.000 A 
ATOM     13  C   UNL     1       6.097   3.631  15.535  0.00  0.00    +0.000 A 
ATOM     14  C   UNL     1       6.928   4.755  15.575  0.00  0.00    +0.000 A 
ATOM     15  C   UNL     1       6.525   5.930  16.219  0.00  0.00    +0.000 A 
ATOM     16  C   UNL     1       5.267   5.907  16.814  0.00  0.00    +0.000 A 
ATOM     17  O   UNL     1       4.698   6.936  17.490  0.00  0.00    +0.000 OA
ENDBRANCH   3   9
BRANCH   8  18
ATOM     18  C   UNL     1      -0.291   9.566  21.770  0.00  0.00    +0.000 C 
ATOM     19  C   UNL     1      -0.500   9.665  23.283  0.00  0.00    +0.000 C 
ATOM     20  C   UNL     1       0.313  10.865  21.237  0.00  0.00    +0.000 C 
ENDBRANCH   8  18
TORSDOF 2
ENDMDL
MODEL 5
REMARK VINA RESULT:      -6.9      1.215      7.327
REMARK  Name = 
REMARK  5 active torsions:
REMARK  status: ('A' for Active; 'I' for Inactive)
REMARK    1  A    between atoms: C_1  and  C_2
REMARK    2  A    between atoms: C_3  and  C_4
REMARK    3  A    between atoms: C_17  and  C_18
REMARK    4  A    between atoms: C_18  and  C_19
REMARK    5  A    between atoms: C_18  and  C_20
REMARK                            x       y       z     vdW  Elec       q    Type
REMARK                         _______ _______ _______ _____ _____    ______ ____
ROOT
ATOM      1  C   UNL     1       2.928   8.629  17.643  0.00  0.00    +0.000 C 
ATOM      2  C   UNL     1       2.865   7.396  18.481  0.00  0.00    +0.000 C 
ATOM      3  C   UNL     1       2.242   7.203  19.646  0.00  0.00    +0.000 C 
ATOM      4  C   UNL     1       2.502   5.805  20.031  0.00  0.00    +0.000 C 
ATOM      5  O   UNL     1       2.098   5.263  21.047  0.00  0.00    +0.000 OA
ATOM      6  O   UNL     1       3.261   5.191  19.072  0.00  0.00    +0.000 OA
ATOM      7  C   UNL     1       3.512   6.167  18.114  0.00  0.00    +0.000 C 
ATOM      8  C   UNL     1       4.261   5.928  17.028  0.00  0.00    +0.000 C 
ENDROOT
BRANCH   3   9
ATOM      9  C   UNL     1       1.461   8.127  20.372  0.00  0.00    +0.000 A 
ATOM     10  C   UNL     1       1.145   8.149  21.729  0.00  0.00    +0.000 A 
ATOM     11  C   UNL     1       0.303   9.261  21.976  0.00  0.00    +0.000 A 
ATOM     12  C   UNL     1      -0.345   9.809  23.097  0.00  0.00    +0.000 A 
ATOM     13  C   UNL     1      -1.136  10.954  22.921  0.00  0.00    +0.000 A 
ATOM     14  C   UNL     1      -1.278  11.545  21.662  0.00  0.00    +0.000 A 
ATOM     15  C   UNL     1      -0.635  11.017  20.538  0.00  0.00    +0.000 A 
ATOM     16  C   UNL     1       0.138   9.878  20.748  0.00  0.00    +0.000 A 
ATOM     17  O   UNL     1       0.833   9.212  19.792  0.00  0.00    +0.000 OA
ENDBRANCH   3   9
BRANCH   8  18
ATOM     18  C   UNL     1       4.875   4.594  16.671  0.00  0.00    +0.000 C 
ATOM     19  C   UNL     1       5.192   4.551  15.175  0.00  0.00    +0.000 C 
ATOM     20  C   UNL     1       6.145   4.344  17.485  0.00  0.00    +0.000 C 
ENDBRANCH   8  18
TORSDOF 2
ENDMDL
MODEL 6
REMARK VINA RESULT:      -6.8      1.493      2.319
REMARK  Name = 
REMARK  5 active torsions:
REMARK  status: ('A' for Active; 'I' for Inactive)
REMARK    1  A    between atoms: C_1  and  C_2
REMARK    2  A    between atoms: C_3  and  C_4
REMARK    3  A    between atoms: C_17  and  C_18
REMARK    4  A    between atoms: C_18  and  C_19
REMARK    5  A    between atoms: C_18  and  C_20
REMARK                            x       y       z     vdW  Elec       q    Type
REMARK                         _______ _______ _______ _____ _____    ______ ____
ROOT
ATOM      1  C   UNL     1       1.534   7.007  21.142  0.00  0.00    +0.000 C 
ATOM      2  C   UNL     1       1.479   8.118  20.147  0.00  0.00    +0.000 C 
ATOM      3  C   UNL     1       2.028   8.186  18.932  0.00  0.00    +0.000 C 
ATOM      4  C   UNL     1       1.659   9.501  18.381  0.00  0.00    +0.000 C 
ATOM      5  O   UNL     1       1.986   9.929  17.286  0.00  0.00    +0.000 OA
ATOM      6  O   UNL     1       0.879  10.181  19.279  0.00  0.00    +0.000 OA
ATOM      7  C   UNL     1       0.774   9.348  20.386  0.00  0.00    +0.000 C 
ATOM      8  C   UNL     1       0.097   9.703  21.488  0.00  0.00    +0.000 C 
ENDROOT
BRANCH   3   9
ATOM      9  C   UNL     1       2.790   7.200  18.271  0.00  0.00    +0.000 A 
ATOM     10  C   UNL     1       2.585   5.824  18.194  0.00  0.00    +0.000 A 
ATOM     11  C   UNL     1       3.642   5.254  17.441  0.00  0.00    +0.000 A 
ATOM     12  C   UNL     1       4.006   3.960  17.029  0.00  0.00    +0.000 A 
ATOM     13  C   UNL     1       5.181   3.801  16.280  0.00  0.00    +0.000 A 
ATOM     14  C   UNL     1       5.976   4.901  15.944  0.00  0.00    +0.000 A 
ATOM     15  C   UNL     1       5.624   6.196  16.340  0.00  0.00    +0.000 A 
ATOM     16  C   UNL     1       4.455   6.317  17.085  0.00  0.00    +0.000 A 
ATOM     17  O   UNL     1       3.947   7.478  17.569  0.00  0.00    +0.000 OA
ENDBRANCH   3   9
BRANCH   8  18
ATOM     18  C   UNL     1      -0.668  10.995  21.659  0.00  0.00    +0.000 C 
ATOM     19  C   UNL     1      -1.296  11.045  23.053  0.00  0.00    +0.000 C 
ATOM     20  C   UNL     1       0.247  12.202  21.451  0.00  0.00    +0.000 C 
ENDBRANCH   8  18
TORSDOF 2
ENDMDL
MODEL 7
REMARK VINA RESULT:      -6.8      3.186      4.925
REMARK  Name = 
REMARK  5 active torsions:
REMARK  status: ('A' for Active; 'I' for Inactive)
REMARK    1  A    between atoms: C_1  and  C_2
REMARK    2  A    between atoms: C_3  and  C_4
REMARK    3  A    between atoms: C_17  and  C_18
REMARK    4  A    between atoms: C_18  and  C_19
REMARK    5  A    between atoms: C_18  and  C_20
REMARK                            x       y       z     vdW  Elec       q    Type
REMARK                         _______ _______ _______ _____ _____    ______ ____
ROOT
ATOM      1  C   UNL     1       4.361   1.992  17.580  0.00  0.00    +0.000 C 
ATOM      2  C   UNL     1       4.154   3.441  17.874  0.00  0.00    +0.000 C 
ATOM      3  C   UNL     1       4.583   4.506  17.193  0.00  0.00    +0.000 C 
ATOM      4  C   UNL     1       4.096   5.689  17.922  0.00  0.00    +0.000 C 
ATOM      5  O   UNL     1       4.296   6.851  17.604  0.00  0.00    +0.000 OA
ATOM      6  O   UNL     1       3.369   5.298  19.015  0.00  0.00    +0.000 OA
ATOM      7  C   UNL     1       3.413   3.909  19.012  0.00  0.00    +0.000 C 
ATOM      8  C   UNL     1       2.824   3.173  19.966  0.00  0.00    +0.000 C 
ENDROOT
BRANCH   3   9
ATOM      9  C   UNL     1       5.330   4.524  15.996  0.00  0.00    +0.000 A 
ATOM     10  C   UNL     1       6.466   5.262  15.670  0.00  0.00    +0.000 A 
ATOM     11  C   UNL     1       6.830   4.958  14.335  0.00  0.00    +0.000 A 
ATOM     12  C   UNL     1       7.840   5.365  13.446  0.00  0.00    +0.000 A 
ATOM     13  C   UNL     1       7.851   4.825  12.151  0.00  0.00    +0.000 A 
ATOM     14  C   UNL     1       6.885   3.899  11.749  0.00  0.00    +0.000 A 
ATOM     15  C   UNL     1       5.877   3.479  12.623  0.00  0.00    +0.000 A 
ATOM     16  C   UNL     1       5.893   4.038  13.898  0.00  0.00    +0.000 A 
ATOM     17  O   UNL     1       5.004   3.769  14.886  0.00  0.00    +0.000 OA
ENDBRANCH   3   9
BRANCH   8  18
ATOM     18  C   UNL     1       2.012   3.726  21.114  0.00  0.00    +0.000 C 
ATOM     19  C   UNL     1       0.838   4.545  20.573  0.00  0.00    +0.000 C 
ATOM     20  C   UNL     1       1.498   2.600  22.010  0.00  0.00    +0.000 C 
ENDBRANCH   8  18
TORSDOF 2
ENDMDL
MODEL 8
REMARK VINA RESULT:      -6.8      3.346      4.608
REMARK  Name = 
REMARK  5 active torsions:
REMARK  status: ('A' for Active; 'I' for Inactive)
REMARK    1  A    between atoms: C_1  and  C_2
REMARK    2  A    between atoms: C_3  and  C_4
REMARK    3  A    between atoms: C_17  and  C_18
REMARK    4  A    between atoms: C_18  and  C_19
REMARK    5  A    between atoms: C_18  and  C_20
REMARK                            x       y       z     vdW  Elec       q    Type
REMARK                         _______ _______ _______ _____ _____    ______ ____
ROOT
ATOM      1  C   UNL     1       3.690   6.573  17.580  0.00  0.00    +0.000 C 
ATOM      2  C   UNL     1       3.642   5.093  17.761  0.00  0.00    +0.000 C 
ATOM      3  C   UNL     1       4.244   4.140  17.046  0.00  0.00    +0.000 C 
ATOM      4  C   UNL     1       3.859   2.856  17.657  0.00  0.00    +0.000 C 
ATOM      5  O   UNL     1       4.212   1.753  17.271  0.00  0.00    +0.000 OA
ATOM      6  O   UNL     1       3.048   3.077  18.737  0.00  0.00    +0.000 OA
ATOM      7  C   UNL     1       2.886   4.457  18.804  0.00  0.00    +0.000 C 
ATOM      8  C   UNL     1       2.120   5.043  19.735  0.00  0.00    +0.000 C 
ENDROOT
BRANCH   3   9
ATOM      9  C   UNL     1       5.104   4.301  15.940  0.00  0.00    +0.000 A 
ATOM     10  C   UNL     1       6.216   5.128  15.794  0.00  0.00    +0.000 A 
ATOM     11  C   UNL     1       6.733   4.959  14.485  0.00  0.00    +0.000 A 
ATOM     12  C   UNL     1       7.798   5.497  13.742  0.00  0.00    +0.000 A 
ATOM     13  C   UNL     1       7.975   5.069  12.418  0.00  0.00    +0.000 A 
ATOM     14  C   UNL     1       7.116   4.127  11.844  0.00  0.00    +0.000 A 
ATOM     15  C   UNL     1       6.055   3.578  12.572  0.00  0.00    +0.000 A 
ATOM     16  C   UNL     1       5.907   4.027  13.881  0.00  0.00    +0.000 A 
ATOM     17  O   UNL     1       4.942   3.626  14.746  0.00  0.00    +0.000 OA
ENDBRANCH   3   9
BRANCH   8  18
ATOM     18  C   UNL     1       1.389   4.319  20.841  0.00  0.00    +0.000 C 
ATOM     19  C   UNL     1       0.454   3.266  20.243  0.00  0.00    +0.000 C 
ATOM     20  C   UNL     1       2.374   3.659  21.806  0.00  0.00    +0.000 C 
ENDBRANCH   8  18
TORSDOF 2
ENDMDL
MODEL 9
REMARK VINA RESULT:      -6.8      2.475      4.166
REMARK  Name = 
REMARK  5 active torsions:
REMARK  status: ('A' for Active; 'I' for Inactive)
REMARK    1  A    between atoms: C_1  and  C_2
REMARK    2  A    between atoms: C_3  and  C_4
REMARK    3  A    between atoms: C_17  and  C_18
REMARK    4  A    between atoms: C_18  and  C_19
REMARK    5  A    between atoms: C_18  and  C_20
REMARK                            x       y       z     vdW  Elec       q    Type
REMARK                         _______ _______ _______ _____ _____    ______ ____
ROOT
ATOM      1  C   UNL     1       0.770   8.726  21.739  0.00  0.00    +0.000 C 
ATOM      2  C   UNL     1       1.179   8.966  20.324  0.00  0.00    +0.000 C 
ATOM      3  C   UNL     1       1.826   8.152  19.487  0.00  0.00    +0.000 C 
ATOM      4  C   UNL     1       1.969   8.887  18.219  0.00  0.00    +0.000 C 
ATOM      5  O   UNL     1       2.517   8.466  17.213  0.00  0.00    +0.000 OA
ATOM      6  O   UNL     1       1.385  10.121  18.326  0.00  0.00    +0.000 OA
ATOM      7  C   UNL     1       0.908  10.195  19.630  0.00  0.00    +0.000 C 
ATOM      8  C   UNL     1       0.293  11.287  20.106  0.00  0.00    +0.000 C 
ENDROOT
BRANCH   3   9
ATOM      9  C   UNL     1       2.269   6.835  19.732  0.00  0.00    +0.000 A 
ATOM     10  C   UNL     1       3.291   6.115  19.118  0.00  0.00    +0.000 A 
ATOM     11  C   UNL     1       3.333   4.818  19.689  0.00  0.00    +0.000 A 
ATOM     12  C   UNL     1       4.102   3.656  19.504  0.00  0.00    +0.000 A 
ATOM     13  C   UNL     1       3.811   2.528  20.285  0.00  0.00    +0.000 A 
ATOM     14  C   UNL     1       2.782   2.552  21.231  0.00  0.00    +0.000 A 
ATOM     15  C   UNL     1       2.012   3.702  21.432  0.00  0.00    +0.000 A 
ATOM     16  C   UNL     1       2.325   4.802  20.638  0.00  0.00    +0.000 A 
ATOM     17  O   UNL     1       1.695   6.003  20.674  0.00  0.00    +0.000 OA
ENDBRANCH   3   9
BRANCH   8  18
ATOM     18  C   UNL     1      -0.007  12.533  19.307  0.00  0.00    +0.000 C 
ATOM     19  C   UNL     1      -1.422  12.452  18.730  0.00  0.00    +0.000 C 
ATOM     20  C   UNL     1       0.135  13.784  20.174  0.00  0.00    +0.000 C 
ENDBRANCH   8  18
TORSDOF 2
ENDMDL
