MODEL 1
REMARK VINA RESULT:      -8.4      0.000      0.000
REMARK  Name = 
REMARK  4 active torsions:
REMARK  status: ('A' for Active; 'I' for Inactive)
REMARK    1  A    between atoms: C_1  and  C_2
REMARK    2  A    between atoms: C_5  and  C_6
REMARK    3  A    between atoms: N_8  and  C_9
REMARK    4  A    between atoms: C_14  and  C_15
REMARK                            x       y       z     vdW  Elec       q    Type
REMARK                         _______ _______ _______ _____ _____    ______ ____
ROOT
ATOM      1  C   UNL     1       6.828   6.536  16.945  0.00  0.00    +0.000 A 
ATOM      2  C   UNL     1       7.038   5.916  15.710  0.00  0.00    +0.000 A 
ATOM      3  C   UNL     1       6.434   4.697  15.417  0.00  0.00    +0.000 A 
ATOM      4  C   UNL     1       5.608   4.090  16.352  0.00  0.00    +0.000 A 
ATOM      5  F   UNL     1       5.029   2.932  16.001  0.00  0.00    +0.000 F 
ATOM      6  C   UNL     1       5.378   4.670  17.606  0.00  0.00    +0.000 A 
ATOM      7  C   UNL     1       6.025   5.890  17.900  0.00  0.00    +0.000 A 
ENDROOT
BRANCH   6   8
ATOM      8  C   UNL     1       4.464   4.069  18.575  0.00  0.00    +0.000 A 
ATOM      9  N   UNL     1       4.743   3.350  19.652  0.00  0.00    +0.000 NA
ATOM     10  C   UNL     1       3.514   3.124  20.211  0.00  0.00    +0.000 A 
ATOM     11  N   UNL     1       3.253   2.443  21.352  0.00  0.00    +0.000 NA
ATOM     12  C   UNL     1       1.935   2.398  21.667  0.00  0.00    +0.000 A 
ATOM     13  C   UNL     1       0.893   2.970  20.933  0.00  0.00    +0.000 A 
ATOM     14  C   UNL     1       1.178   3.665  19.758  0.00  0.00    +0.000 A 
ATOM     15  C   UNL     1       2.525   3.713  19.442  0.00  0.00    +0.000 A 
ATOM     16  O   UNL     1       3.125   4.315  18.386  0.00  0.00    +0.000 OA
ENDBRANCH   6   8
BRANCH   1  19
ATOM     17  C   UNL     1       8.225   8.074  18.336  0.00  0.00    +0.000 C 
ATOM     18  O   UNL     1       8.631   7.243  19.146  0.00  0.00    +0.000 OA
ATOM     19  N   UNL     1       7.383   7.793  17.268  0.00  0.00    +0.000 N 
ATOM     20  H   UNL     1       7.249   8.558  16.613  0.00  0.00    +0.000 HD
BRANCH  17  25
ATOM     21  C   UNL     1      10.580  11.877  20.201  0.00  0.00    +0.000 C 
ATOM     22  C   UNL     1       9.697  11.209  19.225  0.00  0.00    +0.000 A 
ATOM     23  C   UNL     1       9.025  11.651  18.106  0.00  0.00    +0.000 A 
ATOM     24  C   UNL     1       8.351  10.527  17.583  0.00  0.00    +0.000 A 
ATOM     25  C   UNL     1       8.645   9.459  18.411  0.00  0.00    +0.000 A 
ATOM     26  O   UNL     1       9.466   9.880  19.425  0.00  0.00    +0.000 OA
ENDBRANCH  17  25
ENDBRANCH   1  19
TORSDOF 3
ENDMDL
MODEL 2
REMARK VINA RESULT:      -8.4      0.707      1.143
REMARK  Name = 
REMARK  4 active torsions:
REMARK  status: ('A' for Active; 'I' for Inactive)
REMARK    1  A    between atoms: C_1  and  C_2
REMARK    2  A    between atoms: C_5  and  C_6
REMARK    3  A    between atoms: N_8  and  C_9
REMARK    4  A    between atoms: C_14  and  C_15
REMARK                            x       y       z     vdW  Elec       q    Type
REMARK                         _______ _______ _______ _____ _____    ______ ____
ROOT
ATOM      1  C   UNL     1       6.918   6.579  16.910  0.00  0.00    +0.000 A 
ATOM      2  C   UNL     1       7.199   5.918  15.711  0.00  0.00    +0.000 A 
ATOM      3  C   UNL     1       6.645   4.670  15.443  0.00  0.00    +0.000 A 
ATOM      4  C   UNL     1       5.798   4.074  16.368  0.00  0.00    +0.000 A 
ATOM      5  F   UNL     1       5.271   2.884  16.041  0.00  0.00    +0.000 F 
ATOM      6  C   UNL     1       5.498   4.695  17.586  0.00  0.00    +0.000 A 
ATOM      7  C   UNL     1       6.094   5.946  17.856  0.00  0.00    +0.000 A 
ENDROOT
BRANCH   6   8
ATOM      8  C   UNL     1       4.562   4.105  18.540  0.00  0.00    +0.000 A 
ATOM      9  N   UNL     1       4.813   3.345  19.596  0.00  0.00    +0.000 NA
ATOM     10  C   UNL     1       3.578   3.153  20.152  0.00  0.00    +0.000 A 
ATOM     11  N   UNL     1       3.291   2.451  21.274  0.00  0.00    +0.000 NA
ATOM     12  C   UNL     1       1.972   2.449  21.591  0.00  0.00    +0.000 A 
ATOM     13  C   UNL     1       0.953   3.083  20.876  0.00  0.00    +0.000 A 
ATOM     14  C   UNL     1       1.264   3.799  19.720  0.00  0.00    +0.000 A 
ATOM     15  C   UNL     1       2.611   3.802  19.403  0.00  0.00    +0.000 A 
ATOM     16  O   UNL     1       3.234   4.409  18.362  0.00  0.00    +0.000 OA
ENDBRANCH   6   8
BRANCH   1  19
ATOM     17  C   UNL     1       8.238   8.208  18.272  0.00  0.00    +0.000 C 
ATOM     18  O   UNL     1       8.667   7.417  19.108  0.00  0.00    +0.000 OA
ATOM     19  N   UNL     1       7.419   7.866  17.203  0.00  0.00    +0.000 N 
ATOM     20  H   UNL     1       7.263   8.606  16.526  0.00  0.00    +0.000 HD
BRANCH  17  25
ATOM     21  C   UNL     1       7.845  12.905  17.145  0.00  0.00    +0.000 C 
ATOM     22  C   UNL     1       8.459  11.749  17.827  0.00  0.00    +0.000 A 
ATOM     23  C   UNL     1       9.519  11.624  18.698  0.00  0.00    +0.000 A 
ATOM     24  C   UNL     1       9.611  10.250  19.011  0.00  0.00    +0.000 A 
ATOM     25  C   UNL     1       8.603   9.611  18.312  0.00  0.00    +0.000 A 
ATOM     26  O   UNL     1       7.901  10.530  17.578  0.00  0.00    +0.000 OA
ENDBRANCH  17  25
ENDBRANCH   1  19
TORSDOF 3
ENDMDL
MODEL 3
REMARK VINA RESULT:      -8.3      4.557      6.745
REMARK  Name = 
REMARK  4 active torsions:
REMARK  status: ('A' for Active; 'I' for Inactive)
REMARK    1  A    between atoms: C_1  and  C_2
REMARK    2  A    between atoms: C_5  and  C_6
REMARK    3  A    between atoms: N_8  and  C_9
REMARK    4  A    between atoms: C_14  and  C_15
REMARK                            x       y       z     vdW  Elec       q    Type
REMARK                         _______ _______ _______ _____ _____    ______ ____
ROOT
ATOM      1  C   UNL     1       4.307   4.449  17.484  0.00  0.00    +0.000 A 
ATOM      2  C   UNL     1       4.336   3.432  18.443  0.00  0.00    +0.000 A 
ATOM      3  C   UNL     1       3.738   3.613  19.687  0.00  0.00    +0.000 A 
ATOM      4  C   UNL     1       3.098   4.809  19.981  0.00  0.00    +0.000 A 
ATOM      5  F   UNL     1       2.514   4.914  21.184  0.00  0.00    +0.000 F 
ATOM      6  C   UNL     1       3.054   5.859  19.055  0.00  0.00    +0.000 A 
ATOM      7  C   UNL     1       3.694   5.671  17.810  0.00  0.00    +0.000 A 
ENDROOT
BRANCH   6   8
ATOM      8  C   UNL     1       2.333   7.099  19.332  0.00  0.00    +0.000 A 
ATOM      9  N   UNL     1       1.846   7.543  20.481  0.00  0.00    +0.000 NA
ATOM     10  C   UNL     1       1.348   8.777  20.160  0.00  0.00    +0.000 A 
ATOM     11  N   UNL     1       0.753   9.657  21.000  0.00  0.00    +0.000 NA
ATOM     12  C   UNL     1       0.374  10.811  20.397  0.00  0.00    +0.000 A 
ATOM     13  C   UNL     1       0.544  11.129  19.047  0.00  0.00    +0.000 A 
ATOM     14  C   UNL     1       1.156  10.210  18.194  0.00  0.00    +0.000 A 
ATOM     15  C   UNL     1       1.545   9.036  18.814  0.00  0.00    +0.000 A 
ATOM     16  O   UNL     1       2.170   7.961  18.274  0.00  0.00    +0.000 OA
ENDBRANCH   6   8
BRANCH   1  19
ATOM     17  C   UNL     1       6.079   4.789  15.754  0.00  0.00    +0.000 C 
ATOM     18  O   UNL     1       6.871   5.421  16.448  0.00  0.00    +0.000 OA
ATOM     19  N   UNL     1       4.858   4.293  16.195  0.00  0.00    +0.000 N 
ATOM     20  H   UNL     1       4.384   3.677  15.542  0.00  0.00    +0.000 HD
BRANCH  17  25
ATOM     21  C   UNL     1       5.539   2.445  11.547  0.00  0.00    +0.000 C 
ATOM     22  C   UNL     1       6.177   3.421  12.451  0.00  0.00    +0.000 A 
ATOM     23  C   UNL     1       7.213   4.314  12.292  0.00  0.00    +0.000 A 
ATOM     24  C   UNL     1       7.348   4.984  13.528  0.00  0.00    +0.000 A 
ATOM     25  C   UNL     1       6.388   4.462  14.376  0.00  0.00    +0.000 A 
ATOM     26  O   UNL     1       5.673   3.496  13.717  0.00  0.00    +0.000 OA
ENDBRANCH  17  25
ENDBRANCH   1  19
TORSDOF 3
ENDMDL
MODEL 4
REMARK VINA RESULT:      -8.3      1.130      1.282
REMARK  Name = 
REMARK  4 active torsions:
REMARK  status: ('A' for Active; 'I' for Inactive)
REMARK    1  A    between atoms: C_1  and  C_2
REMARK    2  A    between atoms: C_5  and  C_6
REMARK    3  A    between atoms: N_8  and  C_9
REMARK    4  A    between atoms: C_14  and  C_15
REMARK                            x       y       z     vdW  Elec       q    Type
REMARK                         _______ _______ _______ _____ _____    ______ ____
ROOT
ATOM      1  C   UNL     1       6.954   6.531  16.750  0.00  0.00    +0.000 A 
ATOM      2  C   UNL     1       7.483   5.807  15.678  0.00  0.00    +0.000 A 
ATOM      3  C   UNL     1       6.920   4.593  15.297  0.00  0.00    +0.000 A 
ATOM      4  C   UNL     1       5.817   4.095  15.977  0.00  0.00    +0.000 A 
ATOM      5  F   UNL     1       5.299   2.936  15.544  0.00  0.00    +0.000 F 
ATOM      6  C   UNL     1       5.261   4.782  17.064  0.00  0.00    +0.000 A 
ATOM      7  C   UNL     1       5.865   5.996  17.459  0.00  0.00    +0.000 A 
ENDROOT
BRANCH   6   8
ATOM      8  C   UNL     1       4.066   4.297  17.749  0.00  0.00    +0.000 A 
ATOM      9  N   UNL     1       2.988   3.719  17.241  0.00  0.00    +0.000 NA
ATOM     10  C   UNL     1       2.239   3.413  18.345  0.00  0.00    +0.000 A 
ATOM     11  N   UNL     1       1.038   2.788  18.366  0.00  0.00    +0.000 NA
ATOM     12  C   UNL     1       0.542   2.607  19.615  0.00  0.00    +0.000 A 
ATOM     13  C   UNL     1       1.151   3.002  20.808  0.00  0.00    +0.000 A 
ATOM     14  C   UNL     1       2.387   3.649  20.770  0.00  0.00    +0.000 A 
ATOM     15  C   UNL     1       2.891   3.828  19.494  0.00  0.00    +0.000 A 
ATOM     16  O   UNL     1       4.061   4.404  19.120  0.00  0.00    +0.000 OA
ENDBRANCH   6   8
BRANCH   1  19
ATOM     17  C   UNL     1       8.226   8.052  18.274  0.00  0.00    +0.000 C 
ATOM     18  O   UNL     1       8.590   7.207  19.087  0.00  0.00    +0.000 OA
ATOM     19  N   UNL     1       7.463   7.787  17.143  0.00  0.00    +0.000 N 
ATOM     20  H   UNL     1       7.362   8.567  16.501  0.00  0.00    +0.000 HD
BRANCH  17  25
ATOM     21  C   UNL     1      10.413  11.832  20.374  0.00  0.00    +0.000 C 
ATOM     22  C   UNL     1       9.593  11.182  19.334  0.00  0.00    +0.000 A 
ATOM     23  C   UNL     1       8.971  11.648  18.196  0.00  0.00    +0.000 A 
ATOM     24  C   UNL     1       8.344  10.530  17.604  0.00  0.00    +0.000 A 
ATOM     25  C   UNL     1       8.616   9.441  18.413  0.00  0.00    +0.000 A 
ATOM     26  O   UNL     1       9.376   9.843  19.480  0.00  0.00    +0.000 OA
ENDBRANCH  17  25
ENDBRANCH   1  19
TORSDOF 3
ENDMDL
MODEL 5
REMARK VINA RESULT:      -8.2      4.638      6.713
REMARK  Name = 
REMARK  4 active torsions:
REMARK  status: ('A' for Active; 'I' for Inactive)
REMARK    1  A    between atoms: C_1  and  C_2
REMARK    2  A    between atoms: C_5  and  C_6
REMARK    3  A    between atoms: N_8  and  C_9
REMARK    4  A    between atoms: C_14  and  C_15
REMARK                            x       y       z     vdW  Elec       q    Type
REMARK                         _______ _______ _______ _____ _____    ______ ____
ROOT
ATOM      1  C   UNL     1       4.180   4.495  17.608  0.00  0.00    +0.000 A 
ATOM      2  C   UNL     1       4.139   3.426  18.508  0.00  0.00    +0.000 A 
ATOM      3  C   UNL     1       3.519   3.566  19.746  0.00  0.00    +0.000 A 
ATOM      4  C   UNL     1       2.927   4.773  20.093  0.00  0.00    +0.000 A 
ATOM      5  F   UNL     1       2.318   4.839  21.287  0.00  0.00    +0.000 F 
ATOM      6  C   UNL     1       2.954   5.873  19.227  0.00  0.00    +0.000 A 
ATOM      7  C   UNL     1       3.616   5.724  17.989  0.00  0.00    +0.000 A 
ENDROOT
BRANCH   6   8
ATOM      8  C   UNL     1       2.284   7.128  19.557  0.00  0.00    +0.000 A 
ATOM      9  N   UNL     1       2.102   8.202  18.802  0.00  0.00    +0.000 NA
ATOM     10  C   UNL     1       1.353   9.028  19.597  0.00  0.00    +0.000 A 
ATOM     11  N   UNL     1       0.883  10.256  19.278  0.00  0.00    +0.000 NA
ATOM     12  C   UNL     1       0.154  10.832  20.267  0.00  0.00    +0.000 A 
ATOM     13  C   UNL     1      -0.121  10.274  21.517  0.00  0.00    +0.000 A 
ATOM     14  C   UNL     1       0.374   9.009  21.833  0.00  0.00    +0.000 A 
ATOM     15  C   UNL     1       1.113   8.423  20.819  0.00  0.00    +0.000 A 
ATOM     16  O   UNL     1       1.713   7.207  20.805  0.00  0.00    +0.000 OA
ENDBRANCH   6   8
BRANCH   1  19
ATOM     17  C   UNL     1       6.106   4.497  16.014  0.00  0.00    +0.000 C 
ATOM     18  O   UNL     1       7.002   4.683  16.834  0.00  0.00    +0.000 OA
ATOM     19  N   UNL     1       4.757   4.385  16.325  0.00  0.00    +0.000 N 
ATOM     20  H   UNL     1       4.161   4.095  15.555  0.00  0.00    +0.000 HD
BRANCH  17  25
ATOM     21  C   UNL     1       5.590   2.585  11.591  0.00  0.00    +0.000 C 
ATOM     22  C   UNL     1       6.203   3.486  12.585  0.00  0.00    +0.000 A 
ATOM     23  C   UNL     1       7.202   4.433  12.508  0.00  0.00    +0.000 A 
ATOM     24  C   UNL     1       7.331   4.974  13.806  0.00  0.00    +0.000 A 
ATOM     25  C   UNL     1       6.406   4.328  14.605  0.00  0.00    +0.000 A 
ATOM     26  O   UNL     1       5.718   3.408  13.857  0.00  0.00    +0.000 OA
ENDBRANCH  17  25
ENDBRANCH   1  19
TORSDOF 3
ENDMDL
MODEL 6
REMARK VINA RESULT:      -8.2      4.553      6.376
REMARK  Name = 
REMARK  4 active torsions:
REMARK  status: ('A' for Active; 'I' for Inactive)
REMARK    1  A    between atoms: C_1  and  C_2
REMARK    2  A    between atoms: C_5  and  C_6
REMARK    3  A    between atoms: N_8  and  C_9
REMARK    4  A    between atoms: C_14  and  C_15
REMARK                            x       y       z     vdW  Elec       q    Type
REMARK                         _______ _______ _______ _____ _____    ______ ____
ROOT
ATOM      1  C   UNL     1       3.913   4.719  17.783  0.00  0.00    +0.000 A 
ATOM      2  C   UNL     1       3.687   3.574  18.552  0.00  0.00    +0.000 A 
ATOM      3  C   UNL     1       2.947   3.644  19.729  0.00  0.00    +0.000 A 
ATOM      4  C   UNL     1       2.417   4.859  20.143  0.00  0.00    +0.000 A 
ATOM      5  F   UNL     1       1.686   4.859  21.268  0.00  0.00    +0.000 F 
ATOM      6  C   UNL     1       2.628   6.033  19.409  0.00  0.00    +0.000 A 
ATOM      7  C   UNL     1       3.409   5.950  18.236  0.00  0.00    +0.000 A 
ENDROOT
BRANCH   6   8
ATOM      8  C   UNL     1       2.027   7.304  19.804  0.00  0.00    +0.000 A 
ATOM      9  N   UNL     1       1.866   8.410  19.092  0.00  0.00    +0.000 NA
ATOM     10  C   UNL     1       1.184   9.240  19.940  0.00  0.00    +0.000 A 
ATOM     11  N   UNL     1       0.758  10.498  19.678  0.00  0.00    +0.000 NA
ATOM     12  C   UNL     1       0.092  11.071  20.711  0.00  0.00    +0.000 A 
ATOM     13  C   UNL     1      -0.164  10.484  21.953  0.00  0.00    +0.000 A 
ATOM     14  C   UNL     1       0.284   9.188  22.208  0.00  0.00    +0.000 A 
ATOM     15  C   UNL     1       0.960   8.605  21.150  0.00  0.00    +0.000 A 
ATOM     16  O   UNL     1       1.504   7.365  21.074  0.00  0.00    +0.000 OA
ENDBRANCH   6   8
BRANCH   1  19
ATOM     17  C   UNL     1       5.994   4.571  16.405  0.00  0.00    +0.000 C 
ATOM     18  O   UNL     1       6.797   4.453  17.327  0.00  0.00    +0.000 OA
ATOM     19  N   UNL     1       4.618   4.686  16.561  0.00  0.00    +0.000 N 
ATOM     20  H   UNL     1       4.082   4.637  15.700  0.00  0.00    +0.000 HD
BRANCH  17  25
ATOM     21  C   UNL     1       8.683   5.941  12.613  0.00  0.00    +0.000 C 
ATOM     22  C   UNL     1       7.631   5.148  13.279  0.00  0.00    +0.000 A 
ATOM     23  C   UNL     1       6.773   4.165  12.838  0.00  0.00    +0.000 A 
ATOM     24  C   UNL     1       6.004   3.783  13.959  0.00  0.00    +0.000 A 
ATOM     25  C   UNL     1       6.433   4.555  15.023  0.00  0.00    +0.000 A 
ATOM     26  O   UNL     1       7.428   5.399  14.604  0.00  0.00    +0.000 OA
ENDBRANCH  17  25
ENDBRANCH   1  19
TORSDOF 3
ENDMDL
MODEL 7
REMARK VINA RESULT:      -8.1      4.218      7.099
REMARK  Name = 
REMARK  4 active torsions:
REMARK  status: ('A' for Active; 'I' for Inactive)
REMARK    1  A    between atoms: C_1  and  C_2
REMARK    2  A    between atoms: C_5  and  C_6
REMARK    3  A    between atoms: N_8  and  C_9
REMARK    4  A    between atoms: C_14  and  C_15
REMARK                            x       y       z     vdW  Elec       q    Type
REMARK                         _______ _______ _______ _____ _____    ______ ____
ROOT
ATOM      1  C   UNL     1       2.225   5.569  20.471  0.00  0.00    +0.000 A 
ATOM      2  C   UNL     1       2.118   4.325  21.099  0.00  0.00    +0.000 A 
ATOM      3  C   UNL     1       2.796   3.217  20.598  0.00  0.00    +0.000 A 
ATOM      4  C   UNL     1       3.594   3.344  19.470  0.00  0.00    +0.000 A 
ATOM      5  F   UNL     1       4.246   2.249  19.052  0.00  0.00    +0.000 F 
ATOM      6  C   UNL     1       3.721   4.568  18.802  0.00  0.00    +0.000 A 
ATOM      7  C   UNL     1       3.000   5.674  19.304  0.00  0.00    +0.000 A 
ENDROOT
BRANCH   6   8
ATOM      8  C   UNL     1       4.603   4.727  17.649  0.00  0.00    +0.000 A 
ATOM      9  N   UNL     1       5.740   5.401  17.553  0.00  0.00    +0.000 NA
ATOM     10  C   UNL     1       6.161   5.137  16.278  0.00  0.00    +0.000 A 
ATOM     11  N   UNL     1       7.295   5.582  15.688  0.00  0.00    +0.000 NA
ATOM     12  C   UNL     1       7.455   5.139  14.415  0.00  0.00    +0.000 A 
ATOM     13  C   UNL     1       6.576   4.307  13.718  0.00  0.00    +0.000 A 
ATOM     14  C   UNL     1       5.410   3.860  14.338  0.00  0.00    +0.000 A 
ATOM     15  C   UNL     1       5.253   4.310  15.637  0.00  0.00    +0.000 A 
ATOM     16  O   UNL     1       4.247   4.049  16.508  0.00  0.00    +0.000 OA
ENDBRANCH   6   8
BRANCH   1  19
ATOM     17  C   UNL     1       1.530   7.967  20.344  0.00  0.00    +0.000 C 
ATOM     18  O   UNL     1       2.002   8.219  19.238  0.00  0.00    +0.000 OA
ATOM     19  N   UNL     1       1.593   6.728  20.969  0.00  0.00    +0.000 N 
ATOM     20  H   UNL     1       1.038   6.645  21.815  0.00  0.00    +0.000 HD
BRANCH  17  25
ATOM     21  C   UNL     1      -1.259  11.889  20.914  0.00  0.00    +0.000 C 
ATOM     22  C   UNL     1      -0.459  10.746  21.396  0.00  0.00    +0.000 A 
ATOM     23  C   UNL     1      -0.166  10.266  22.653  0.00  0.00    +0.000 A 
ATOM     24  C   UNL     1       0.644   9.126  22.460  0.00  0.00    +0.000 A 
ATOM     25  C   UNL     1       0.803   8.973  21.094  0.00  0.00    +0.000 A 
ATOM     26  O   UNL     1       0.132   9.973  20.441  0.00  0.00    +0.000 OA
ENDBRANCH  17  25
ENDBRANCH   1  19
TORSDOF 3
ENDMDL
MODEL 8
REMARK VINA RESULT:      -8.1      1.316      1.709
REMARK  Name = 
REMARK  4 active torsions:
REMARK  status: ('A' for Active; 'I' for Inactive)
REMARK    1  A    between atoms: C_1  and  C_2
REMARK    2  A    between atoms: C_5  and  C_6
REMARK    3  A    between atoms: N_8  and  C_9
REMARK    4  A    between atoms: C_14  and  C_15
REMARK                            x       y       z     vdW  Elec       q    Type
REMARK                         _______ _______ _______ _____ _____    ______ ____
ROOT
ATOM      1  C   UNL     1       6.936   6.546  16.769  0.00  0.00    +0.000 A 
ATOM      2  C   UNL     1       7.493   5.799  15.727  0.00  0.00    +0.000 A 
ATOM      3  C   UNL     1       6.958   4.563  15.377  0.00  0.00    +0.000 A 
ATOM      4  C   UNL     1       5.857   4.065  16.060  0.00  0.00    +0.000 A 
ATOM      5  F   UNL     1       5.367   2.883  15.657  0.00  0.00    +0.000 F 
ATOM      6  C   UNL     1       5.274   4.775  17.117  0.00  0.00    +0.000 A 
ATOM      7  C   UNL     1       5.849   6.012  17.481  0.00  0.00    +0.000 A 
ENDROOT
BRANCH   6   8
ATOM      8  C   UNL     1       4.079   4.288  17.803  0.00  0.00    +0.000 A 
ATOM      9  N   UNL     1       2.953   3.819  17.287  0.00  0.00    +0.000 NA
ATOM     10  C   UNL     1       2.229   3.447  18.388  0.00  0.00    +0.000 A 
ATOM     11  N   UNL     1       0.997   2.886  18.399  0.00  0.00    +0.000 NA
ATOM     12  C   UNL     1       0.537   2.609  19.645  0.00  0.00    +0.000 A 
ATOM     13  C   UNL     1       1.211   2.855  20.843  0.00  0.00    +0.000 A 
ATOM     14  C   UNL     1       2.479   3.437  20.816  0.00  0.00    +0.000 A 
ATOM     15  C   UNL     1       2.945   3.713  19.542  0.00  0.00    +0.000 A 
ATOM     16  O   UNL     1       4.131   4.260  19.176  0.00  0.00    +0.000 OA
ENDBRANCH   6   8
BRANCH   1  19
ATOM     17  C   UNL     1       8.199   8.131  18.234  0.00  0.00    +0.000 C 
ATOM     18  O   UNL     1       8.610   7.311  19.051  0.00  0.00    +0.000 OA
ATOM     19  N   UNL     1       7.416   7.824  17.128  0.00  0.00    +0.000 N 
ATOM     20  H   UNL     1       7.274   8.589  16.476  0.00  0.00    +0.000 HD
BRANCH  17  25
ATOM     21  C   UNL     1       7.905  12.847  17.158  0.00  0.00    +0.000 C 
ATOM     22  C   UNL     1       8.447  11.681  17.881  0.00  0.00    +0.000 A 
ATOM     23  C   UNL     1       9.405  11.543  18.862  0.00  0.00    +0.000 A 
ATOM     24  C   UNL     1       9.470  10.164  19.158  0.00  0.00    +0.000 A 
ATOM     25  C   UNL     1       8.549   9.534  18.340  0.00  0.00    +0.000 A 
ATOM     26  O   UNL     1       7.926  10.464  17.551  0.00  0.00    +0.000 OA
ENDBRANCH  17  25
ENDBRANCH   1  19
TORSDOF 3
ENDMDL
MODEL 9
REMARK VINA RESULT:      -8.1      4.566      6.270
REMARK  Name = 
REMARK  4 active torsions:
REMARK  status: ('A' for Active; 'I' for Inactive)
REMARK    1  A    between atoms: C_1  and  C_2
REMARK    2  A    between atoms: C_5  and  C_6
REMARK    3  A    between atoms: N_8  and  C_9
REMARK    4  A    between atoms: C_14  and  C_15
REMARK                            x       y       z     vdW  Elec       q    Type
REMARK                         _______ _______ _______ _____ _____    ______ ____
ROOT
ATOM      1  C   UNL     1       4.061   4.476  17.653  0.00  0.00    +0.000 A 
ATOM      2  C   UNL     1       3.899   3.312  18.408  0.00  0.00    +0.000 A 
ATOM      3  C   UNL     1       3.178   3.333  19.599  0.00  0.00    +0.000 A 
ATOM      4  C   UNL     1       2.604   4.517  20.040  0.00  0.00    +0.000 A 
ATOM      5  F   UNL     1       1.894   4.469  21.178  0.00  0.00    +0.000 F 
ATOM      6  C   UNL     1       2.749   5.709  19.321  0.00  0.00    +0.000 A 
ATOM      7  C   UNL     1       3.512   5.678  18.133  0.00  0.00    +0.000 A 
ENDROOT
BRANCH   6   8
ATOM      8  C   UNL     1       2.100   6.947  19.745  0.00  0.00    +0.000 A 
ATOM      9  N   UNL     1       1.603   7.266  20.931  0.00  0.00    +0.000 NA
ATOM     10  C   UNL     1       1.197   8.563  20.769  0.00  0.00    +0.000 A 
ATOM     11  N   UNL     1       0.631   9.361  21.705  0.00  0.00    +0.000 NA
ATOM     12  C   UNL     1       0.348  10.609  21.255  0.00  0.00    +0.000 A 
ATOM     13  C   UNL     1       0.586  11.093  19.966  0.00  0.00    +0.000 A 
ATOM     14  C   UNL     1       1.166  10.257  19.012  0.00  0.00    +0.000 A 
ATOM     15  C   UNL     1       1.457   8.986  19.477  0.00  0.00    +0.000 A 
ATOM     16  O   UNL     1       2.030   7.953  18.810  0.00  0.00    +0.000 OA
ENDBRANCH   6   8
BRANCH   1  19
ATOM     17  C   UNL     1       6.121   4.480  16.237  0.00  0.00    +0.000 C 
ATOM     18  O   UNL     1       6.948   4.426  17.144  0.00  0.00    +0.000 OA
ATOM     19  N   UNL     1       4.744   4.492  16.418  0.00  0.00    +0.000 N 
ATOM     20  H   UNL     1       4.198   4.400  15.567  0.00  0.00    +0.000 HD
BRANCH  17  25
ATOM     21  C   UNL     1       8.672   5.996  12.405  0.00  0.00    +0.000 C 
ATOM     22  C   UNL     1       7.672   5.150  13.085  0.00  0.00    +0.000 A 
ATOM     23  C   UNL     1       6.853   4.129  12.654  0.00  0.00    +0.000 A 
ATOM     24  C   UNL     1       6.124   3.706  13.786  0.00  0.00    +0.000 A 
ATOM     25  C   UNL     1       6.536   4.492  14.847  0.00  0.00    +0.000 A 
ATOM     26  O   UNL     1       7.481   5.385  14.415  0.00  0.00    +0.000 OA
ENDBRANCH  17  25
ENDBRANCH   1  19
TORSDOF 3
ENDMDL
