MODEL 1
REMARK VINA RESULT:      -6.4      0.000      0.000
REMARK  Name = 
REMARK  10 active torsions:
REMARK  status: ('A' for Active; 'I' for Inactive)
REMARK    1  A    between atoms: C_1  and  C_2
REMARK    2  A    between atoms: C_5  and  C_6
REMARK    3  A    between atoms: C_6  and  O_8
REMARK    4  A    between atoms: O_8  and  C_9
REMARK    5  A    between atoms: C_9  and  C_10
REMARK    6  A    between atoms: C_9  and  C_11
REMARK    7  A    between atoms: C_13  and  N_14
REMARK    8  A    between atoms: N_15  and  N_16
REMARK    9  A    between atoms: N_16  and  C_17
REMARK   10  A    between atoms: N_16  and  C_18
REMARK                            x       y       z     vdW  Elec       q    Type
REMARK                         _______ _______ _______ _____ _____    ______ ____
ROOT
ATOM      1  C   UNL     1       1.479   3.819  18.521  0.00  0.00    +0.000 C 
ATOM      2  C   UNL     1       2.728   4.358  17.871  0.00  0.00    +0.000 A 
ATOM      3  C   UNL     1       3.527   3.444  17.162  0.00  0.00    +0.000 A 
ATOM      4  C   UNL     1       4.720   3.847  16.576  0.00  0.00    +0.000 A 
ATOM      5  C   UNL     1       5.151   5.173  16.678  0.00  0.00    +0.000 A 
ATOM      6  C   UNL     1       4.352   6.098  17.369  0.00  0.00    +0.000 A 
ATOM      7  C   UNL     1       3.131   5.715  17.968  0.00  0.00    +0.000 A 
ENDROOT
BRANCH   5   8
ATOM      8  C   UNL     1       6.470   5.496  16.059  0.00  0.00    +0.000 C 
ATOM      9  O   UNL     1       7.493   5.586  16.719  0.00  0.00    +0.000 OA
BRANCH   8  10
ATOM     10  O   UNL     1       6.384   5.678  14.716  0.00  0.00    +0.000 OA
BRANCH  10  11
ATOM     11  C   UNL     1       7.091   4.694  13.928  0.00  0.00    +0.000 C 
ATOM     12  C   UNL     1       6.102   3.795  13.190  0.00  0.00    +0.000 C 
ATOM     13  C   UNL     1       7.976   5.428  12.928  0.00  0.00    +0.000 C 
ENDBRANCH  10  11
ENDBRANCH   8  10
ENDBRANCH   5   8
BRANCH   7  14
ATOM     14  N   UNL     1       2.444   6.711  18.713  0.00  0.00    +0.000 NA
ATOM     15  N   UNL     1       2.506   7.837  18.184  0.00  0.00    +0.000 NA
BRANCH  15  16
ATOM     16  N   UNL     1       1.804   8.817  18.828  0.00  0.00    +0.000 N 
ATOM     17  C   UNL     1       1.256   9.994  18.183  0.00  0.00    +0.000 C 
ATOM     18  C   UNL     1       1.451   8.566  20.212  0.00  0.00    +0.000 C 
ENDBRANCH  15  16
ENDBRANCH   7  14
TORSDOF 5
ENDMDL
MODEL 2
REMARK VINA RESULT:      -6.3      1.415      2.415
REMARK  Name = 
REMARK  10 active torsions:
REMARK  status: ('A' for Active; 'I' for Inactive)
REMARK    1  A    between atoms: C_1  and  C_2
REMARK    2  A    between atoms: C_5  and  C_6
REMARK    3  A    between atoms: C_6  and  O_8
REMARK    4  A    between atoms: O_8  and  C_9
REMARK    5  A    between atoms: C_9  and  C_10
REMARK    6  A    between atoms: C_9  and  C_11
REMARK    7  A    between atoms: C_13  and  N_14
REMARK    8  A    between atoms: N_15  and  N_16
REMARK    9  A    between atoms: N_16  and  C_17
REMARK   10  A    between atoms: N_16  and  C_18
REMARK                            x       y       z     vdW  Elec       q    Type
REMARK                         _______ _______ _______ _____ _____    ______ ____
ROOT
ATOM      1  C   UNL     1       1.822   3.418  19.236  0.00  0.00    +0.000 C 
ATOM      2  C   UNL     1       2.867   4.104  18.394  0.00  0.00    +0.000 A 
ATOM      3  C   UNL     1       3.694   3.284  17.605  0.00  0.00    +0.000 A 
ATOM      4  C   UNL     1       4.715   3.830  16.838  0.00  0.00    +0.000 A 
ATOM      5  C   UNL     1       4.941   5.210  16.833  0.00  0.00    +0.000 A 
ATOM      6  C   UNL     1       4.111   6.040  17.602  0.00  0.00    +0.000 A 
ATOM      7  C   UNL     1       3.061   5.510  18.386  0.00  0.00    +0.000 A 
ENDROOT
BRANCH   5   8
ATOM      8  C   UNL     1       6.093   5.694  16.017  0.00  0.00    +0.000 C 
ATOM      9  O   UNL     1       5.973   6.005  14.843  0.00  0.00    +0.000 OA
BRANCH   8  10
ATOM     10  O   UNL     1       7.252   5.733  16.725  0.00  0.00    +0.000 OA
BRANCH  10  11
ATOM     11  C   UNL     1       7.196   6.532  17.928  0.00  0.00    +0.000 C 
ATOM     12  C   UNL     1       7.957   5.841  19.058  0.00  0.00    +0.000 C 
ATOM     13  C   UNL     1       7.823   7.889  17.631  0.00  0.00    +0.000 C 
ENDBRANCH  10  11
ENDBRANCH   8  10
ENDBRANCH   5   8
BRANCH   7  14
ATOM     14  N   UNL     1       2.336   6.430  19.190  0.00  0.00    +0.000 NA
ATOM     15  N   UNL     1       2.420   7.602  18.778  0.00  0.00    +0.000 NA
BRANCH  15  16
ATOM     16  N   UNL     1       1.686   8.515  19.480  0.00  0.00    +0.000 N 
ATOM     17  C   UNL     1       1.068   9.692  18.900  0.00  0.00    +0.000 C 
ATOM     18  C   UNL     1       1.375   8.184  20.857  0.00  0.00    +0.000 C 
ENDBRANCH  15  16
ENDBRANCH   7  14
TORSDOF 5
ENDMDL
MODEL 3
REMARK VINA RESULT:      -6.3      3.588      6.612
REMARK  Name = 
REMARK  10 active torsions:
REMARK  status: ('A' for Active; 'I' for Inactive)
REMARK    1  A    between atoms: C_1  and  C_2
REMARK    2  A    between atoms: C_5  and  C_6
REMARK    3  A    between atoms: C_6  and  O_8
REMARK    4  A    between atoms: O_8  and  C_9
REMARK    5  A    between atoms: C_9  and  C_10
REMARK    6  A    between atoms: C_9  and  C_11
REMARK    7  A    between atoms: C_13  and  N_14
REMARK    8  A    between atoms: N_15  and  N_16
REMARK    9  A    between atoms: N_16  and  C_17
REMARK   10  A    between atoms: N_16  and  C_18
REMARK                            x       y       z     vdW  Elec       q    Type
REMARK                         _______ _______ _______ _____ _____    ______ ____
ROOT
ATOM      1  C   UNL     1       7.556   5.773  18.004  0.00  0.00    +0.000 C 
ATOM      2  C   UNL     1       6.079   5.471  17.985  0.00  0.00    +0.000 A 
ATOM      3  C   UNL     1       5.435   5.346  19.228  0.00  0.00    +0.000 A 
ATOM      4  C   UNL     1       4.087   5.018  19.302  0.00  0.00    +0.000 A 
ATOM      5  C   UNL     1       3.341   4.807  18.138  0.00  0.00    +0.000 A 
ATOM      6  C   UNL     1       3.970   4.947  16.891  0.00  0.00    +0.000 A 
ATOM      7  C   UNL     1       5.338   5.286  16.789  0.00  0.00    +0.000 A 
ENDROOT
BRANCH   5   8
ATOM      8  C   UNL     1       1.915   4.410  18.323  0.00  0.00    +0.000 C 
ATOM      9  O   UNL     1       1.157   4.253  17.380  0.00  0.00    +0.000 OA
BRANCH   8  10
ATOM     10  O   UNL     1       1.581   4.260  19.631  0.00  0.00    +0.000 OA
BRANCH  10  11
ATOM     11  C   UNL     1       1.164   2.926  19.997  0.00  0.00    +0.000 C 
ATOM     12  C   UNL     1       2.015   1.887  19.271  0.00  0.00    +0.000 C 
ATOM     13  C   UNL     1       1.324   2.772  21.505  0.00  0.00    +0.000 C 
ENDBRANCH  10  11
ENDBRANCH   8  10
ENDBRANCH   5   8
BRANCH   7  14
ATOM     14  N   UNL     1       5.893   5.319  15.481  0.00  0.00    +0.000 NA
ATOM     15  N   UNL     1       6.079   4.182  15.007  0.00  0.00    +0.000 NA
BRANCH  15  16
ATOM     16  N   UNL     1       6.550   4.162  13.725  0.00  0.00    +0.000 N 
ATOM     17  C   UNL     1       5.925   3.443  12.632  0.00  0.00    +0.000 C 
ATOM     18  C   UNL     1       7.650   5.055  13.418  0.00  0.00    +0.000 C 
ENDBRANCH  15  16
ENDBRANCH   7  14
TORSDOF 5
ENDMDL
MODEL 4
REMARK VINA RESULT:      -6.3      3.762      6.723
REMARK  Name = 
REMARK  10 active torsions:
REMARK  status: ('A' for Active; 'I' for Inactive)
REMARK    1  A    between atoms: C_1  and  C_2
REMARK    2  A    between atoms: C_5  and  C_6
REMARK    3  A    between atoms: C_6  and  O_8
REMARK    4  A    between atoms: O_8  and  C_9
REMARK    5  A    between atoms: C_9  and  C_10
REMARK    6  A    between atoms: C_9  and  C_11
REMARK    7  A    between atoms: C_13  and  N_14
REMARK    8  A    between atoms: N_15  and  N_16
REMARK    9  A    between atoms: N_16  and  C_17
REMARK   10  A    between atoms: N_16  and  C_18
REMARK                            x       y       z     vdW  Elec       q    Type
REMARK                         _______ _______ _______ _____ _____    ______ ____
ROOT
ATOM      1  C   UNL     1       6.961   7.168  17.228  0.00  0.00    +0.000 C 
ATOM      2  C   UNL     1       6.039   5.999  17.467  0.00  0.00    +0.000 A 
ATOM      3  C   UNL     1       5.469   5.885  18.748  0.00  0.00    +0.000 A 
ATOM      4  C   UNL     1       4.649   4.810  19.068  0.00  0.00    +0.000 A 
ATOM      5  C   UNL     1       4.372   3.819  18.122  0.00  0.00    +0.000 A 
ATOM      6  C   UNL     1       4.921   3.933  16.835  0.00  0.00    +0.000 A 
ATOM      7  C   UNL     1       5.753   5.020  16.481  0.00  0.00    +0.000 A 
ENDROOT
BRANCH   5   8
ATOM      8  C   UNL     1       3.522   2.681  18.577  0.00  0.00    +0.000 C 
ATOM      9  O   UNL     1       3.161   1.795  17.819  0.00  0.00    +0.000 OA
BRANCH   8  10
ATOM     10  O   UNL     1       3.209   2.760  19.897  0.00  0.00    +0.000 OA
BRANCH  10  11
ATOM     11  C   UNL     1       1.796   2.675  20.186  0.00  0.00    +0.000 C 
ATOM     12  C   UNL     1       1.572   2.512  21.688  0.00  0.00    +0.000 C 
ATOM     13  C   UNL     1       1.130   3.955  19.695  0.00  0.00    +0.000 C 
ENDBRANCH  10  11
ENDBRANCH   8  10
ENDBRANCH   5   8
BRANCH   7  14
ATOM     14  N   UNL     1       6.322   4.993  15.180  0.00  0.00    +0.000 NA
ATOM     15  N   UNL     1       5.983   3.989  14.526  0.00  0.00    +0.000 NA
BRANCH  15  16
ATOM     16  N   UNL     1       6.452   3.950  13.243  0.00  0.00    +0.000 N 
ATOM     17  C   UNL     1       5.861   3.167  12.176  0.00  0.00    +0.000 C 
ATOM     18  C   UNL     1       7.507   4.885  12.905  0.00  0.00    +0.000 C 
ENDBRANCH  15  16
ENDBRANCH   7  14
TORSDOF 5
ENDMDL
MODEL 5
REMARK VINA RESULT:      -6.3      2.140      3.389
REMARK  Name = 
REMARK  10 active torsions:
REMARK  status: ('A' for Active; 'I' for Inactive)
REMARK    1  A    between atoms: C_1  and  C_2
REMARK    2  A    between atoms: C_5  and  C_6
REMARK    3  A    between atoms: C_6  and  O_8
REMARK    4  A    between atoms: O_8  and  C_9
REMARK    5  A    between atoms: C_9  and  C_10
REMARK    6  A    between atoms: C_9  and  C_11
REMARK    7  A    between atoms: C_13  and  N_14
REMARK    8  A    between atoms: N_15  and  N_16
REMARK    9  A    between atoms: N_16  and  C_17
REMARK   10  A    between atoms: N_16  and  C_18
REMARK                            x       y       z     vdW  Elec       q    Type
REMARK                         _______ _______ _______ _____ _____    ______ ____
ROOT
ATOM      1  C   UNL     1       2.131   6.831  18.291  0.00  0.00    +0.000 C 
ATOM      2  C   UNL     1       3.457   6.262  17.855  0.00  0.00    +0.000 A 
ATOM      3  C   UNL     1       4.352   7.139  17.218  0.00  0.00    +0.000 A 
ATOM      4  C   UNL     1       5.574   6.685  16.739  0.00  0.00    +0.000 A 
ATOM      5  C   UNL     1       5.941   5.344  16.882  0.00  0.00    +0.000 A 
ATOM      6  C   UNL     1       5.063   4.463  17.533  0.00  0.00    +0.000 A 
ATOM      7  C   UNL     1       3.817   4.901  18.035  0.00  0.00    +0.000 A 
ENDROOT
BRANCH   5   8
ATOM      8  C   UNL     1       7.251   4.944  16.291  0.00  0.00    +0.000 C 
ATOM      9  O   UNL     1       8.030   4.208  16.875  0.00  0.00    +0.000 OA
BRANCH   8  10
ATOM     10  O   UNL     1       7.458   5.492  15.065  0.00  0.00    +0.000 OA
BRANCH  10  11
ATOM     11  C   UNL     1       7.327   4.567  13.962  0.00  0.00    +0.000 C 
ATOM     12  C   UNL     1       5.876   4.113  13.822  0.00  0.00    +0.000 C 
ATOM     13  C   UNL     1       7.777   5.275  12.690  0.00  0.00    +0.000 C 
ENDBRANCH  10  11
ENDBRANCH   8  10
ENDBRANCH   5   8
BRANCH   7  14
ATOM     14  N   UNL     1       2.971   3.909  18.601  0.00  0.00    +0.000 NA
ATOM     15  N   UNL     1       2.787   4.072  19.822  0.00  0.00    +0.000 NA
BRANCH  15  16
ATOM     16  N   UNL     1       1.927   3.181  20.399  0.00  0.00    +0.000 N 
ATOM     17  C   UNL     1       2.062   2.666  21.748  0.00  0.00    +0.000 C 
ATOM     18  C   UNL     1       0.716   2.870  19.664  0.00  0.00    +0.000 C 
ENDBRANCH  15  16
ENDBRANCH   7  14
TORSDOF 5
ENDMDL
MODEL 6
REMARK VINA RESULT:      -6.3      3.695      6.462
REMARK  Name = 
REMARK  10 active torsions:
REMARK  status: ('A' for Active; 'I' for Inactive)
REMARK    1  A    between atoms: C_1  and  C_2
REMARK    2  A    between atoms: C_5  and  C_6
REMARK    3  A    between atoms: C_6  and  O_8
REMARK    4  A    between atoms: O_8  and  C_9
REMARK    5  A    between atoms: C_9  and  C_10
REMARK    6  A    between atoms: C_9  and  C_11
REMARK    7  A    between atoms: C_13  and  N_14
REMARK    8  A    between atoms: N_15  and  N_16
REMARK    9  A    between atoms: N_16  and  C_17
REMARK   10  A    between atoms: N_16  and  C_18
REMARK                            x       y       z     vdW  Elec       q    Type
REMARK                         _______ _______ _______ _____ _____    ______ ____
ROOT
ATOM      1  C   UNL     1       7.350   7.062  16.983  0.00  0.00    +0.000 C 
ATOM      2  C   UNL     1       6.470   5.946  17.486  0.00  0.00    +0.000 A 
ATOM      3  C   UNL     1       6.372   5.787  18.880  0.00  0.00    +0.000 A 
ATOM      4  C   UNL     1       5.625   4.752  19.427  0.00  0.00    +0.000 A 
ATOM      5  C   UNL     1       4.951   3.847  18.602  0.00  0.00    +0.000 A 
ATOM      6  C   UNL     1       5.027   4.007  17.210  0.00  0.00    +0.000 A 
ATOM      7  C   UNL     1       5.775   5.055  16.628  0.00  0.00    +0.000 A 
ENDROOT
BRANCH   5   8
ATOM      8  C   UNL     1       4.217   2.742  19.284  0.00  0.00    +0.000 C 
ATOM      9  O   UNL     1       4.722   2.080  20.177  0.00  0.00    +0.000 OA
BRANCH   8  10
ATOM     10  O   UNL     1       2.961   2.569  18.794  0.00  0.00    +0.000 OA
BRANCH  10  11
ATOM     11  C   UNL     1       2.041   3.639  19.105  0.00  0.00    +0.000 C 
ATOM     12  C   UNL     1       1.383   4.160  17.829  0.00  0.00    +0.000 C 
ATOM     13  C   UNL     1       0.981   3.096  20.055  0.00  0.00    +0.000 C 
ENDBRANCH  10  11
ENDBRANCH   8  10
ENDBRANCH   5   8
BRANCH   7  14
ATOM     14  N   UNL     1       5.853   5.075  15.209  0.00  0.00    +0.000 NA
ATOM     15  N   UNL     1       6.706   4.286  14.761  0.00  0.00    +0.000 NA
BRANCH  15  16
ATOM     16  N   UNL     1       6.772   4.220  13.398  0.00  0.00    +0.000 N 
ATOM     17  C   UNL     1       5.840   3.485  12.565  0.00  0.00    +0.000 C 
ATOM     18  C   UNL     1       7.742   5.079  12.749  0.00  0.00    +0.000 C 
ENDBRANCH  15  16
ENDBRANCH   7  14
TORSDOF 5
ENDMDL
MODEL 7
REMARK VINA RESULT:      -6.2      3.910      6.709
REMARK  Name = 
REMARK  10 active torsions:
REMARK  status: ('A' for Active; 'I' for Inactive)
REMARK    1  A    between atoms: C_1  and  C_2
REMARK    2  A    between atoms: C_5  and  C_6
REMARK    3  A    between atoms: C_6  and  O_8
REMARK    4  A    between atoms: O_8  and  C_9
REMARK    5  A    between atoms: C_9  and  C_10
REMARK    6  A    between atoms: C_9  and  C_11
REMARK    7  A    between atoms: C_13  and  N_14
REMARK    8  A    between atoms: N_15  and  N_16
REMARK    9  A    between atoms: N_16  and  C_17
REMARK   10  A    between atoms: N_16  and  C_18
REMARK                            x       y       z     vdW  Elec       q    Type
REMARK                         _______ _______ _______ _____ _____    ______ ____
ROOT
ATOM      1  C   UNL     1       7.729   4.571  17.571  0.00  0.00    +0.000 C 
ATOM      2  C   UNL     1       6.223   4.523  17.616  0.00  0.00    +0.000 A 
ATOM      3  C   UNL     1       5.608   4.857  18.836  0.00  0.00    +0.000 A 
ATOM      4  C   UNL     1       4.228   4.790  18.979  0.00  0.00    +0.000 A 
ATOM      5  C   UNL     1       3.420   4.391  17.910  0.00  0.00    +0.000 A 
ATOM      6  C   UNL     1       4.022   4.072  16.683  0.00  0.00    +0.000 A 
ATOM      7  C   UNL     1       5.423   4.139  16.509  0.00  0.00    +0.000 A 
ENDROOT
BRANCH   5   8
ATOM      8  C   UNL     1       1.955   4.302  18.178  0.00  0.00    +0.000 C 
ATOM      9  O   UNL     1       1.129   4.312  17.280  0.00  0.00    +0.000 OA
BRANCH   8  10
ATOM     10  O   UNL     1       1.672   4.220  19.504  0.00  0.00    +0.000 OA
BRANCH  10  11
ATOM     11  C   UNL     1       1.114   2.954  19.923  0.00  0.00    +0.000 C 
ATOM     12  C   UNL     1       1.835   1.802  19.227  0.00  0.00    +0.000 C 
ATOM     13  C   UNL     1       1.279   2.836  21.434  0.00  0.00    +0.000 C 
ENDBRANCH  10  11
ENDBRANCH   8  10
ENDBRANCH   5   8
BRANCH   7  14
ATOM     14  N   UNL     1       5.933   3.715  15.252  0.00  0.00    +0.000 NA
ATOM     15  N   UNL     1       5.428   4.332  14.295  0.00  0.00    +0.000 NA
BRANCH  15  16
ATOM     16  N   UNL     1       5.934   4.007  13.068  0.00  0.00    +0.000 N 
ATOM     17  C   UNL     1       7.297   4.265  12.647  0.00  0.00    +0.000 C 
ATOM     18  C   UNL     1       5.090   3.203  12.205  0.00  0.00    +0.000 C 
ENDBRANCH  15  16
ENDBRANCH   7  14
TORSDOF 5
ENDMDL
MODEL 8
REMARK VINA RESULT:      -6.2      3.892      6.876
REMARK  Name = 
REMARK  10 active torsions:
REMARK  status: ('A' for Active; 'I' for Inactive)
REMARK    1  A    between atoms: C_1  and  C_2
REMARK    2  A    between atoms: C_5  and  C_6
REMARK    3  A    between atoms: C_6  and  O_8
REMARK    4  A    between atoms: O_8  and  C_9
REMARK    5  A    between atoms: C_9  and  C_10
REMARK    6  A    between atoms: C_9  and  C_11
REMARK    7  A    between atoms: C_13  and  N_14
REMARK    8  A    between atoms: N_15  and  N_16
REMARK    9  A    between atoms: N_16  and  C_17
REMARK   10  A    between atoms: N_16  and  C_18
REMARK                            x       y       z     vdW  Elec       q    Type
REMARK                         _______ _______ _______ _____ _____    ______ ____
ROOT
ATOM      1  C   UNL     1       7.223   6.480  16.786  0.00  0.00    +0.000 C 
ATOM      2  C   UNL     1       6.045   5.582  17.067  0.00  0.00    +0.000 A 
ATOM      3  C   UNL     1       5.339   5.808  18.263  0.00  0.00    +0.000 A 
ATOM      4  C   UNL     1       4.273   4.994  18.624  0.00  0.00    +0.000 A 
ATOM      5  C   UNL     1       3.878   3.933  17.804  0.00  0.00    +0.000 A 
ATOM      6  C   UNL     1       4.564   3.710  16.600  0.00  0.00    +0.000 A 
ATOM      7  C   UNL     1       5.648   4.527  16.206  0.00  0.00    +0.000 A 
ENDROOT
BRANCH   5   8
ATOM      8  C   UNL     1       2.755   3.086  18.303  0.00  0.00    +0.000 C 
ATOM      9  O   UNL     1       1.931   2.591  17.551  0.00  0.00    +0.000 OA
BRANCH   8  10
ATOM     10  O   UNL     1       2.766   2.950  19.655  0.00  0.00    +0.000 OA
BRANCH  10  11
ATOM     11  C   UNL     1       1.475   3.101  20.286  0.00  0.00    +0.000 C 
ATOM     12  C   UNL     1       1.500   2.504  21.691  0.00  0.00    +0.000 C 
ATOM     13  C   UNL     1       1.147   4.587  20.355  0.00  0.00    +0.000 C 
ENDBRANCH  10  11
ENDBRANCH   8  10
ENDBRANCH   5   8
BRANCH   7  14
ATOM     14  N   UNL     1       6.323   4.162  15.010  0.00  0.00    +0.000 NA
ATOM     15  N   UNL     1       5.573   4.152  14.016  0.00  0.00    +0.000 NA
BRANCH  15  16
ATOM     16  N   UNL     1       6.190   3.871  12.830  0.00  0.00    +0.000 N 
ATOM     17  C   UNL     1       7.424   4.485  12.381  0.00  0.00    +0.000 C 
ATOM     18  C   UNL     1       5.653   2.766  12.060  0.00  0.00    +0.000 C 
ENDBRANCH  15  16
ENDBRANCH   7  14
TORSDOF 5
ENDMDL
MODEL 9
REMARK VINA RESULT:      -6.2      1.956      3.386
REMARK  Name = 
REMARK  10 active torsions:
REMARK  status: ('A' for Active; 'I' for Inactive)
REMARK    1  A    between atoms: C_1  and  C_2
REMARK    2  A    between atoms: C_5  and  C_6
REMARK    3  A    between atoms: C_6  and  O_8
REMARK    4  A    between atoms: O_8  and  C_9
REMARK    5  A    between atoms: C_9  and  C_10
REMARK    6  A    between atoms: C_9  and  C_11
REMARK    7  A    between atoms: C_13  and  N_14
REMARK    8  A    between atoms: N_15  and  N_16
REMARK    9  A    between atoms: N_16  and  C_17
REMARK   10  A    between atoms: N_16  and  C_18
REMARK                            x       y       z     vdW  Elec       q    Type
REMARK                         _______ _______ _______ _____ _____    ______ ____
ROOT
ATOM      1  C   UNL     1       2.359   7.326  18.818  0.00  0.00    +0.000 C 
ATOM      2  C   UNL     1       3.363   6.583  17.974  0.00  0.00    +0.000 A 
ATOM      3  C   UNL     1       4.390   7.341  17.383  0.00  0.00    +0.000 A 
ATOM      4  C   UNL     1       5.326   6.743  16.550  0.00  0.00    +0.000 A 
ATOM      5  C   UNL     1       5.268   5.371  16.282  0.00  0.00    +0.000 A 
ATOM      6  C   UNL     1       4.259   4.602  16.881  0.00  0.00    +0.000 A 
ATOM      7  C   UNL     1       3.298   5.185  17.738  0.00  0.00    +0.000 A 
ENDROOT
BRANCH   5   8
ATOM      8  C   UNL     1       6.288   4.833  15.336  0.00  0.00    +0.000 C 
ATOM      9  O   UNL     1       7.387   4.457  15.709  0.00  0.00    +0.000 OA
BRANCH   8  10
ATOM     10  O   UNL     1       5.851   4.823  14.049  0.00  0.00    +0.000 OA
BRANCH  10  11
ATOM     11  C   UNL     1       6.593   3.951  13.168  0.00  0.00    +0.000 C 
ATOM     12  C   UNL     1       5.637   3.168  12.270  0.00  0.00    +0.000 C 
ATOM     13  C   UNL     1       7.522   4.809  12.318  0.00  0.00    +0.000 C 
ENDBRANCH  10  11
ENDBRANCH   8  10
ENDBRANCH   5   8
BRANCH   7  14
ATOM     14  N   UNL     1       2.272   4.330  18.224  0.00  0.00    +0.000 NA
ATOM     15  N   UNL     1       2.536   3.846  19.341  0.00  0.00    +0.000 NA
BRANCH  15  16
ATOM     16  N   UNL     1       1.550   3.069  19.880  0.00  0.00    +0.000 N 
ATOM     17  C   UNL     1       0.624   2.264  19.108  0.00  0.00    +0.000 C 
ATOM     18  C   UNL     1       1.552   2.920  21.323  0.00  0.00    +0.000 C 
ENDBRANCH  15  16
ENDBRANCH   7  14
TORSDOF 5
ENDMDL
