MODEL 1
REMARK VINA RESULT:      -7.4      0.000      0.000
REMARK  Name = 
REMARK  7 active torsions:
REMARK  status: ('A' for Active; 'I' for Inactive)
REMARK    1  A    between atoms: C_1  and  C_2
REMARK    2  A    between atoms: C_5  and  C_6
REMARK    3  A    between atoms: C_6  and  N_7
REMARK    4  A    between atoms: C_9  and  C_10
REMARK    5  A    between atoms: C_12  and  C_13
REMARK    6  A    between atoms: C_13  and  S_15
REMARK    7  A    between atoms: S_15  and  C_16
REMARK                            x       y       z     vdW  Elec       q    Type
REMARK                         _______ _______ _______ _____ _____    ______ ____
ROOT
ATOM      1  N   UNL     1       5.229   6.401  17.452  0.00  0.00    +0.000 N 
ATOM      2  N   UNL     1       4.376   7.334  16.967  0.00  0.00    +0.000 NA
ATOM      3  C   UNL     1       3.339   7.308  17.803  0.00  0.00    +0.000 A 
ATOM      4  C   UNL     1       2.226   8.273  17.650  0.00  0.00    +0.000 C 
ATOM      5  C   UNL     1       3.487   6.290  18.768  0.00  0.00    +0.000 A 
ATOM      6  C   UNL     1       4.712   5.689  18.514  0.00  0.00    +0.000 A 
ENDROOT
BRANCH   6   7
ATOM      7  C   UNL     1       5.383   4.592  19.178  0.00  0.00    +0.000 C 
ATOM      8  O   UNL     1       6.349   4.709  19.920  0.00  0.00    +0.000 OA
BRANCH   7   9
ATOM      9  S   UNL     1       4.796   2.997  18.702  0.00  0.00    +0.000 S 
BRANCH   9  10
ATOM     10  C   UNL     1       3.136   3.005  19.349  0.00  0.00    +0.000 A 
ATOM     11  C   UNL     1       2.067   2.831  18.462  0.00  0.00    +0.000 A 
ATOM     12  C   UNL     1       0.751   2.824  18.930  0.00  0.00    +0.000 A 
ATOM     13  C   UNL     1       0.495   2.979  20.290  0.00  0.00    +0.000 A 
ATOM     14  C   UNL     1       1.555   3.122  21.184  0.00  0.00    +0.000 A 
ATOM     15  C   UNL     1       2.872   3.128  20.717  0.00  0.00    +0.000 A 
ENDBRANCH   9  10
ENDBRANCH   7   9
ENDBRANCH   6   7
BRANCH   1  16
ATOM     16  C   UNL     1       6.489   6.191  16.741  0.00  0.00    +0.000 C 
BRANCH  16  21
ATOM     17  C   UNL     1       5.918   2.892  11.965  0.00  0.00    +0.000 C 
ATOM     18  C   UNL     1       6.055   3.768  13.175  0.00  0.00    +0.000 A 
ATOM     19  C   UNL     1       7.191   4.561  13.365  0.00  0.00    +0.000 A 
ATOM     20  C   UNL     1       7.319   5.357  14.506  0.00  0.00    +0.000 A 
ATOM     21  C   UNL     1       6.315   5.375  15.482  0.00  0.00    +0.000 A 
ATOM     22  C   UNL     1       5.174   4.580  15.286  0.00  0.00    +0.000 A 
ATOM     23  C   UNL     1       5.045   3.787  14.144  0.00  0.00    +0.000 A 
ENDBRANCH  16  21
ENDBRANCH   1  16
TORSDOF 5
ENDMDL
MODEL 2
REMARK VINA RESULT:      -7.4      0.072      1.006
REMARK  Name = 
REMARK  7 active torsions:
REMARK  status: ('A' for Active; 'I' for Inactive)
REMARK    1  A    between atoms: C_1  and  C_2
REMARK    2  A    between atoms: C_5  and  C_6
REMARK    3  A    between atoms: C_6  and  N_7
REMARK    4  A    between atoms: C_9  and  C_10
REMARK    5  A    between atoms: C_12  and  C_13
REMARK    6  A    between atoms: C_13  and  S_15
REMARK    7  A    between atoms: S_15  and  C_16
REMARK                            x       y       z     vdW  Elec       q    Type
REMARK                         _______ _______ _______ _____ _____    ______ ____
ROOT
ATOM      1  N   UNL     1       5.260   6.447  17.464  0.00  0.00    +0.000 N 
ATOM      2  N   UNL     1       4.415   7.386  16.975  0.00  0.00    +0.000 NA
ATOM      3  C   UNL     1       3.368   7.358  17.798  0.00  0.00    +0.000 A 
ATOM      4  C   UNL     1       2.260   8.327  17.637  0.00  0.00    +0.000 C 
ATOM      5  C   UNL     1       3.502   6.333  18.758  0.00  0.00    +0.000 A 
ATOM      6  C   UNL     1       4.728   5.730  18.515  0.00  0.00    +0.000 A 
ENDROOT
BRANCH   6   7
ATOM      7  C   UNL     1       5.387   4.627  19.181  0.00  0.00    +0.000 C 
ATOM      8  O   UNL     1       6.346   4.736  19.934  0.00  0.00    +0.000 OA
BRANCH   7   9
ATOM      9  S   UNL     1       4.800   3.036  18.689  0.00  0.00    +0.000 S 
BRANCH   9  10
ATOM     10  C   UNL     1       3.148   3.030  19.356  0.00  0.00    +0.000 A 
ATOM     11  C   UNL     1       2.070   2.843  18.483  0.00  0.00    +0.000 A 
ATOM     12  C   UNL     1       0.760   2.824  18.967  0.00  0.00    +0.000 A 
ATOM     13  C   UNL     1       0.519   2.979  20.330  0.00  0.00    +0.000 A 
ATOM     14  C   UNL     1       1.588   3.135  21.211  0.00  0.00    +0.000 A 
ATOM     15  C   UNL     1       2.900   3.153  20.727  0.00  0.00    +0.000 A 
ENDBRANCH   9  10
ENDBRANCH   7   9
ENDBRANCH   6   7
BRANCH   1  16
ATOM     16  C   UNL     1       6.527   6.238  16.767  0.00  0.00    +0.000 C 
BRANCH  16  21
ATOM     17  C   UNL     1       5.847   2.977  11.980  0.00  0.00    +0.000 C 
ATOM     18  C   UNL     1       6.034   3.788  13.228  0.00  0.00    +0.000 A 
ATOM     19  C   UNL     1       5.099   3.738  14.265  0.00  0.00    +0.000 A 
ATOM     20  C   UNL     1       5.270   4.514  15.415  0.00  0.00    +0.000 A 
ATOM     21  C   UNL     1       6.381   5.357  15.549  0.00  0.00    +0.000 A 
ATOM     22  C   UNL     1       7.320   5.402  14.506  0.00  0.00    +0.000 A 
ATOM     23  C   UNL     1       7.149   4.624  13.359  0.00  0.00    +0.000 A 
ENDBRANCH  16  21
ENDBRANCH   1  16
TORSDOF 5
ENDMDL
MODEL 3
REMARK VINA RESULT:      -7.4      2.155      6.975
REMARK  Name = 
REMARK  7 active torsions:
REMARK  status: ('A' for Active; 'I' for Inactive)
REMARK    1  A    between atoms: C_1  and  C_2
REMARK    2  A    between atoms: C_5  and  C_6
REMARK    3  A    between atoms: C_6  and  N_7
REMARK    4  A    between atoms: C_9  and  C_10
REMARK    5  A    between atoms: C_12  and  C_13
REMARK    6  A    between atoms: C_13  and  S_15
REMARK    7  A    between atoms: S_15  and  C_16
REMARK                            x       y       z     vdW  Elec       q    Type
REMARK                         _______ _______ _______ _____ _____    ______ ____
ROOT
ATOM      1  N   UNL     1       3.433   5.192  18.560  0.00  0.00    +0.000 N 
ATOM      2  N   UNL     1       2.448   4.378  19.010  0.00  0.00    +0.000 NA
ATOM      3  C   UNL     1       2.412   3.376  18.132  0.00  0.00    +0.000 A 
ATOM      4  C   UNL     1       1.509   2.222  18.346  0.00  0.00    +0.000 C 
ATOM      5  C   UNL     1       3.311   3.599  17.068  0.00  0.00    +0.000 A 
ATOM      6  C   UNL     1       3.953   4.798  17.345  0.00  0.00    +0.000 A 
ENDROOT
BRANCH   6   7
ATOM      7  C   UNL     1       4.966   5.520  16.607  0.00  0.00    +0.000 C 
ATOM      8  O   UNL     1       4.787   6.582  16.026  0.00  0.00    +0.000 OA
BRANCH   7   9
ATOM      9  S   UNL     1       6.498   4.655  16.456  0.00  0.00    +0.000 S 
BRANCH   9  10
ATOM     10  C   UNL     1       6.656   4.489  14.689  0.00  0.00    +0.000 A 
ATOM     11  C   UNL     1       7.633   5.242  14.027  0.00  0.00    +0.000 A 
ATOM     12  C   UNL     1       7.795   5.136  12.644  0.00  0.00    +0.000 A 
ATOM     13  C   UNL     1       6.988   4.267  11.914  0.00  0.00    +0.000 A 
ATOM     14  C   UNL     1       6.033   3.491  12.568  0.00  0.00    +0.000 A 
ATOM     15  C   UNL     1       5.872   3.596  13.953  0.00  0.00    +0.000 A 
ENDBRANCH   9  10
ENDBRANCH   7   9
ENDBRANCH   6   7
BRANCH   1  16
ATOM     16  C   UNL     1       3.723   6.402  19.326  0.00  0.00    +0.000 C 
BRANCH  16  21
ATOM     17  C   UNL     1      -0.279  10.611  18.797  0.00  0.00    +0.000 C 
ATOM     18  C   UNL     1       0.725   9.505  18.930  0.00  0.00    +0.000 A 
ATOM     19  C   UNL     1       0.916   8.850  20.150  0.00  0.00    +0.000 A 
ATOM     20  C   UNL     1       1.870   7.836  20.271  0.00  0.00    +0.000 A 
ATOM     21  C   UNL     1       2.652   7.456  19.173  0.00  0.00    +0.000 A 
ATOM     22  C   UNL     1       2.455   8.115  17.948  0.00  0.00    +0.000 A 
ATOM     23  C   UNL     1       1.500   9.126  17.829  0.00  0.00    +0.000 A 
ENDBRANCH  16  21
ENDBRANCH   1  16
TORSDOF 5
ENDMDL
MODEL 4
REMARK VINA RESULT:      -7.4      0.231      1.024
REMARK  Name = 
REMARK  7 active torsions:
REMARK  status: ('A' for Active; 'I' for Inactive)
REMARK    1  A    between atoms: C_1  and  C_2
REMARK    2  A    between atoms: C_5  and  C_6
REMARK    3  A    between atoms: C_6  and  N_7
REMARK    4  A    between atoms: C_9  and  C_10
REMARK    5  A    between atoms: C_12  and  C_13
REMARK    6  A    between atoms: C_13  and  S_15
REMARK    7  A    between atoms: S_15  and  C_16
REMARK                            x       y       z     vdW  Elec       q    Type
REMARK                         _______ _______ _______ _____ _____    ______ ____
ROOT
ATOM      1  N   UNL     1       5.213   6.464  17.454  0.00  0.00    +0.000 N 
ATOM      2  N   UNL     1       4.360   7.410  16.995  0.00  0.00    +0.000 NA
ATOM      3  C   UNL     1       3.324   7.363  17.832  0.00  0.00    +0.000 A 
ATOM      4  C   UNL     1       2.211   8.332  17.707  0.00  0.00    +0.000 C 
ATOM      5  C   UNL     1       3.473   6.319  18.769  0.00  0.00    +0.000 A 
ATOM      6  C   UNL     1       4.697   5.724  18.497  0.00  0.00    +0.000 A 
ENDROOT
BRANCH   6   7
ATOM      7  C   UNL     1       5.368   4.610  19.131  0.00  0.00    +0.000 C 
ATOM      8  O   UNL     1       6.344   4.704  19.863  0.00  0.00    +0.000 OA
BRANCH   7   9
ATOM      9  S   UNL     1       4.765   3.028  18.629  0.00  0.00    +0.000 S 
BRANCH   9  10
ATOM     10  C   UNL     1       3.188   2.955  19.454  0.00  0.00    +0.000 A 
ATOM     11  C   UNL     1       3.158   3.003  20.853  0.00  0.00    +0.000 A 
ATOM     12  C   UNL     1       1.941   2.956  21.539  0.00  0.00    +0.000 A 
ATOM     13  C   UNL     1       0.746   2.873  20.830  0.00  0.00    +0.000 A 
ATOM     14  C   UNL     1       0.765   2.856  19.436  0.00  0.00    +0.000 A 
ATOM     15  C   UNL     1       1.981   2.904  18.750  0.00  0.00    +0.000 A 
ENDBRANCH   9  10
ENDBRANCH   7   9
ENDBRANCH   6   7
BRANCH   1  16
ATOM     16  C   UNL     1       6.471   6.272  16.735  0.00  0.00    +0.000 C 
BRANCH  16  21
ATOM     17  C   UNL     1       5.922   2.905  12.005  0.00  0.00    +0.000 C 
ATOM     18  C   UNL     1       6.055   3.799  13.203  0.00  0.00    +0.000 A 
ATOM     19  C   UNL     1       7.211   4.556  13.411  0.00  0.00    +0.000 A 
ATOM     20  C   UNL     1       7.335   5.369  14.541  0.00  0.00    +0.000 A 
ATOM     21  C   UNL     1       6.305   5.440  15.486  0.00  0.00    +0.000 A 
ATOM     22  C   UNL     1       5.143   4.680  15.272  0.00  0.00    +0.000 A 
ATOM     23  C   UNL     1       5.020   3.870  14.141  0.00  0.00    +0.000 A 
ENDBRANCH  16  21
ENDBRANCH   1  16
TORSDOF 5
ENDMDL
MODEL 5
REMARK VINA RESULT:      -7.4      2.261      4.624
REMARK  Name = 
REMARK  7 active torsions:
REMARK  status: ('A' for Active; 'I' for Inactive)
REMARK    1  A    between atoms: C_1  and  C_2
REMARK    2  A    between atoms: C_5  and  C_6
REMARK    3  A    between atoms: C_6  and  N_7
REMARK    4  A    between atoms: C_9  and  C_10
REMARK    5  A    between atoms: C_12  and  C_13
REMARK    6  A    between atoms: C_13  and  S_15
REMARK    7  A    between atoms: S_15  and  C_16
REMARK                            x       y       z     vdW  Elec       q    Type
REMARK                         _______ _______ _______ _____ _____    ______ ____
ROOT
ATOM      1  N   UNL     1       6.431   4.462  16.327  0.00  0.00    +0.000 N 
ATOM      2  N   UNL     1       7.248   4.441  15.247  0.00  0.00    +0.000 NA
ATOM      3  C   UNL     1       6.428   4.284  14.209  0.00  0.00    +0.000 A 
ATOM      4  C   UNL     1       6.955   4.310  12.825  0.00  0.00    +0.000 C 
ATOM      5  C   UNL     1       5.095   4.110  14.634  0.00  0.00    +0.000 A 
ATOM      6  C   UNL     1       5.112   4.203  16.019  0.00  0.00    +0.000 A 
ENDROOT
BRANCH   6   7
ATOM      7  C   UNL     1       4.042   4.101  16.987  0.00  0.00    +0.000 C 
ATOM      8  O   UNL     1       3.494   5.052  17.528  0.00  0.00    +0.000 OA
BRANCH   7   9
ATOM      9  S   UNL     1       3.676   2.445  17.481  0.00  0.00    +0.000 S 
BRANCH   9  10
ATOM     10  C   UNL     1       2.729   2.704  18.967  0.00  0.00    +0.000 A 
ATOM     11  C   UNL     1       3.380   2.620  20.203  0.00  0.00    +0.000 A 
ATOM     12  C   UNL     1       2.676   2.823  21.392  0.00  0.00    +0.000 A 
ATOM     13  C   UNL     1       1.316   3.124  21.353  0.00  0.00    +0.000 A 
ATOM     14  C   UNL     1       0.667   3.240  20.125  0.00  0.00    +0.000 A 
ATOM     15  C   UNL     1       1.371   3.038  18.935  0.00  0.00    +0.000 A 
ENDBRANCH   9  10
ENDBRANCH   7   9
ENDBRANCH   6   7
BRANCH   1  16
ATOM     16  C   UNL     1       7.044   4.628  17.644  0.00  0.00    +0.000 C 
BRANCH  16  21
ATOM     17  C   UNL     1       8.811  10.103  18.603  0.00  0.00    +0.000 C 
ATOM     18  C   UNL     1       8.331   8.699  18.380  0.00  0.00    +0.000 A 
ATOM     19  C   UNL     1       8.669   7.673  19.267  0.00  0.00    +0.000 A 
ATOM     20  C   UNL     1       8.236   6.364  19.038  0.00  0.00    +0.000 A 
ATOM     21  C   UNL     1       7.457   6.055  17.916  0.00  0.00    +0.000 A 
ATOM     22  C   UNL     1       7.116   7.089  17.029  0.00  0.00    +0.000 A 
ATOM     23  C   UNL     1       7.547   8.397  17.260  0.00  0.00    +0.000 A 
ENDBRANCH  16  21
ENDBRANCH   1  16
TORSDOF 5
ENDMDL
MODEL 6
REMARK VINA RESULT:      -7.3      2.135      6.866
REMARK  Name = 
REMARK  7 active torsions:
REMARK  status: ('A' for Active; 'I' for Inactive)
REMARK    1  A    between atoms: C_1  and  C_2
REMARK    2  A    between atoms: C_5  and  C_6
REMARK    3  A    between atoms: C_6  and  N_7
REMARK    4  A    between atoms: C_9  and  C_10
REMARK    5  A    between atoms: C_12  and  C_13
REMARK    6  A    between atoms: C_13  and  S_15
REMARK    7  A    between atoms: S_15  and  C_16
REMARK                            x       y       z     vdW  Elec       q    Type
REMARK                         _______ _______ _______ _____ _____    ______ ____
ROOT
ATOM      1  N   UNL     1       3.281   5.172  18.611  0.00  0.00    +0.000 N 
ATOM      2  N   UNL     1       2.241   4.444  19.082  0.00  0.00    +0.000 NA
ATOM      3  C   UNL     1       2.126   3.430  18.225  0.00  0.00    +0.000 A 
ATOM      4  C   UNL     1       1.140   2.351  18.466  0.00  0.00    +0.000 C 
ATOM      5  C   UNL     1       3.032   3.563  17.153  0.00  0.00    +0.000 A 
ATOM      6  C   UNL     1       3.764   4.716  17.402  0.00  0.00    +0.000 A 
ENDROOT
BRANCH   6   7
ATOM      7  C   UNL     1       4.824   5.345  16.645  0.00  0.00    +0.000 C 
ATOM      8  O   UNL     1       4.713   6.392  16.021  0.00  0.00    +0.000 OA
BRANCH   7   9
ATOM      9  S   UNL     1       6.301   4.383  16.542  0.00  0.00    +0.000 S 
BRANCH   9  10
ATOM     10  C   UNL     1       6.608   4.363  14.788  0.00  0.00    +0.000 A 
ATOM     11  C   UNL     1       5.812   3.547  13.975  0.00  0.00    +0.000 A 
ATOM     12  C   UNL     1       6.014   3.507  12.593  0.00  0.00    +0.000 A 
ATOM     13  C   UNL     1       7.007   4.293  12.013  0.00  0.00    +0.000 A 
ATOM     14  C   UNL     1       7.784   5.131  12.811  0.00  0.00    +0.000 A 
ATOM     15  C   UNL     1       7.581   5.172  14.193  0.00  0.00    +0.000 A 
ENDBRANCH   9  10
ENDBRANCH   7   9
ENDBRANCH   6   7
BRANCH   1  16
ATOM     16  C   UNL     1       3.665   6.373  19.351  0.00  0.00    +0.000 C 
BRANCH  16  21
ATOM     17  C   UNL     1      -0.330  10.570  18.688  0.00  0.00    +0.000 C 
ATOM     18  C   UNL     1       0.722   9.515  18.862  0.00  0.00    +0.000 A 
ATOM     19  C   UNL     1       1.534   9.126  17.793  0.00  0.00    +0.000 A 
ATOM     20  C   UNL     1       2.497   8.126  17.958  0.00  0.00    +0.000 A 
ATOM     21  C   UNL     1       2.665   7.494  19.196  0.00  0.00    +0.000 A 
ATOM     22  C   UNL     1       1.850   7.890  20.269  0.00  0.00    +0.000 A 
ATOM     23  C   UNL     1       0.890   8.890  20.103  0.00  0.00    +0.000 A 
ENDBRANCH  16  21
ENDBRANCH   1  16
TORSDOF 5
ENDMDL
MODEL 7
REMARK VINA RESULT:      -7.3      0.391      1.463
REMARK  Name = 
REMARK  7 active torsions:
REMARK  status: ('A' for Active; 'I' for Inactive)
REMARK    1  A    between atoms: C_1  and  C_2
REMARK    2  A    between atoms: C_5  and  C_6
REMARK    3  A    between atoms: C_6  and  N_7
REMARK    4  A    between atoms: C_9  and  C_10
REMARK    5  A    between atoms: C_12  and  C_13
REMARK    6  A    between atoms: C_13  and  S_15
REMARK    7  A    between atoms: S_15  and  C_16
REMARK                            x       y       z     vdW  Elec       q    Type
REMARK                         _______ _______ _______ _____ _____    ______ ____
ROOT
ATOM      1  N   UNL     1       5.280   6.425  17.277  0.00  0.00    +0.000 N 
ATOM      2  N   UNL     1       4.481   7.441  16.873  0.00  0.00    +0.000 NA
ATOM      3  C   UNL     1       3.435   7.395  17.698  0.00  0.00    +0.000 A 
ATOM      4  C   UNL     1       2.375   8.427  17.626  0.00  0.00    +0.000 C 
ATOM      5  C   UNL     1       3.521   6.288  18.568  0.00  0.00    +0.000 A 
ATOM      6  C   UNL     1       4.716   5.649  18.268  0.00  0.00    +0.000 A 
ENDROOT
BRANCH   6   7
ATOM      7  C   UNL     1       5.323   4.464  18.835  0.00  0.00    +0.000 C 
ATOM      8  O   UNL     1       6.355   4.452  19.493  0.00  0.00    +0.000 OA
BRANCH   7   9
ATOM      9  S   UNL     1       4.536   2.956  18.359  0.00  0.00    +0.000 S 
BRANCH   9  10
ATOM     10  C   UNL     1       3.135   2.908  19.457  0.00  0.00    +0.000 A 
ATOM     11  C   UNL     1       3.360   2.725  20.827  0.00  0.00    +0.000 A 
ATOM     12  C   UNL     1       2.289   2.688  21.723  0.00  0.00    +0.000 A 
ATOM     13  C   UNL     1       0.986   2.847  21.257  0.00  0.00    +0.000 A 
ATOM     14  C   UNL     1       0.755   3.060  19.899  0.00  0.00    +0.000 A 
ATOM     15  C   UNL     1       1.826   3.098  19.002  0.00  0.00    +0.000 A 
ENDBRANCH   9  10
ENDBRANCH   7   9
ENDBRANCH   6   7
BRANCH   1  16
ATOM     16  C   UNL     1       6.534   6.214  16.557  0.00  0.00    +0.000 C 
BRANCH  16  21
ATOM     17  C   UNL     1       5.795   2.877  11.831  0.00  0.00    +0.000 C 
ATOM     18  C   UNL     1       5.995   3.708  13.064  0.00  0.00    +0.000 A 
ATOM     19  C   UNL     1       5.020   3.755  14.065  0.00  0.00    +0.000 A 
ATOM     20  C   UNL     1       5.205   4.548  15.200  0.00  0.00    +0.000 A 
ATOM     21  C   UNL     1       6.369   5.312  15.357  0.00  0.00    +0.000 A 
ATOM     22  C   UNL     1       7.347   5.260  14.350  0.00  0.00    +0.000 A 
ATOM     23  C   UNL     1       7.162   4.465  13.218  0.00  0.00    +0.000 A 
ENDBRANCH  16  21
ENDBRANCH   1  16
TORSDOF 5
ENDMDL
MODEL 8
REMARK VINA RESULT:      -7.3      1.788      4.972
REMARK  Name = 
REMARK  7 active torsions:
REMARK  status: ('A' for Active; 'I' for Inactive)
REMARK    1  A    between atoms: C_1  and  C_2
REMARK    2  A    between atoms: C_5  and  C_6
REMARK    3  A    between atoms: C_6  and  N_7
REMARK    4  A    between atoms: C_9  and  C_10
REMARK    5  A    between atoms: C_12  and  C_13
REMARK    6  A    between atoms: C_13  and  S_15
REMARK    7  A    between atoms: S_15  and  C_16
REMARK                            x       y       z     vdW  Elec       q    Type
REMARK                         _______ _______ _______ _____ _____    ______ ____
ROOT
ATOM      1  N   UNL     1       5.246   4.790  17.228  0.00  0.00    +0.000 N 
ATOM      2  N   UNL     1       6.399   5.227  16.669  0.00  0.00    +0.000 NA
ATOM      3  C   UNL     1       6.396   4.705  15.442  0.00  0.00    +0.000 A 
ATOM      4  C   UNL     1       7.470   5.043  14.480  0.00  0.00    +0.000 C 
ATOM      5  C   UNL     1       5.286   3.856  15.252  0.00  0.00    +0.000 A 
ATOM      6  C   UNL     1       4.556   3.899  16.432  0.00  0.00    +0.000 A 
ENDROOT
BRANCH   6   7
ATOM      7  C   UNL     1       3.331   3.230  16.811  0.00  0.00    +0.000 C 
ATOM      8  O   UNL     1       2.205   3.617  16.528  0.00  0.00    +0.000 OA
BRANCH   7   9
ATOM      9  S   UNL     1       3.569   1.851  17.888  0.00  0.00    +0.000 S 
BRANCH   9  10
ATOM     10  C   UNL     1       2.664   2.355  19.338  0.00  0.00    +0.000 A 
ATOM     11  C   UNL     1       3.345   2.450  20.557  0.00  0.00    +0.000 A 
ATOM     12  C   UNL     1       2.675   2.849  21.716  0.00  0.00    +0.000 A 
ATOM     13  C   UNL     1       1.319   3.166  21.661  0.00  0.00    +0.000 A 
ATOM     14  C   UNL     1       0.640   3.103  20.445  0.00  0.00    +0.000 A 
ATOM     15  C   UNL     1       1.311   2.705  19.286  0.00  0.00    +0.000 A 
ENDBRANCH   9  10
ENDBRANCH   7   9
ENDBRANCH   6   7
BRANCH   1  16
ATOM     16  C   UNL     1       4.952   5.203  18.599  0.00  0.00    +0.000 C 
BRANCH  16  21
ATOM     17  C   UNL     1       0.894   9.375  18.980  0.00  0.00    +0.000 C 
ATOM     18  C   UNL     1       1.913   8.280  18.870  0.00  0.00    +0.000 A 
ATOM     19  C   UNL     1       2.019   7.294  19.854  0.00  0.00    +0.000 A 
ATOM     20  C   UNL     1       2.987   6.290  19.755  0.00  0.00    +0.000 A 
ATOM     21  C   UNL     1       3.869   6.255  18.668  0.00  0.00    +0.000 A 
ATOM     22  C   UNL     1       3.758   7.245  17.680  0.00  0.00    +0.000 A 
ATOM     23  C   UNL     1       2.789   8.246  17.779  0.00  0.00    +0.000 A 
ENDBRANCH  16  21
ENDBRANCH   1  16
TORSDOF 5
ENDMDL
MODEL 9
REMARK VINA RESULT:      -7.2      2.436      5.135
REMARK  Name = 
REMARK  7 active torsions:
REMARK  status: ('A' for Active; 'I' for Inactive)
REMARK    1  A    between atoms: C_1  and  C_2
REMARK    2  A    between atoms: C_5  and  C_6
REMARK    3  A    between atoms: C_6  and  N_7
REMARK    4  A    between atoms: C_9  and  C_10
REMARK    5  A    between atoms: C_12  and  C_13
REMARK    6  A    between atoms: C_13  and  S_15
REMARK    7  A    between atoms: S_15  and  C_16
REMARK                            x       y       z     vdW  Elec       q    Type
REMARK                         _______ _______ _______ _____ _____    ______ ____
ROOT
ATOM      1  N   UNL     1       5.082   6.601  17.291  0.00  0.00    +0.000 N 
ATOM      2  N   UNL     1       5.787   7.752  17.397  0.00  0.00    +0.000 NA
ATOM      3  C   UNL     1       7.028   7.360  17.686  0.00  0.00    +0.000 A 
ATOM      4  C   UNL     1       8.124   8.351  17.786  0.00  0.00    +0.000 C 
ATOM      5  C   UNL     1       7.094   5.962  17.859  0.00  0.00    +0.000 A 
ATOM      6  C   UNL     1       5.813   5.480  17.624  0.00  0.00    +0.000 A 
ENDROOT
BRANCH   6   7
ATOM      7  C   UNL     1       5.289   4.132  17.660  0.00  0.00    +0.000 C 
ATOM      8  O   UNL     1       4.897   3.506  16.685  0.00  0.00    +0.000 OA
BRANCH   7   9
ATOM      9  S   UNL     1       5.091   3.483  19.290  0.00  0.00    +0.000 S 
BRANCH   9  10
ATOM     10  C   UNL     1       3.319   3.366  19.429  0.00  0.00    +0.000 A 
ATOM     11  C   UNL     1       2.737   3.440  20.700  0.00  0.00    +0.000 A 
ATOM     12  C   UNL     1       1.351   3.361  20.852  0.00  0.00    +0.000 A 
ATOM     13  C   UNL     1       0.535   3.219  19.732  0.00  0.00    +0.000 A 
ATOM     14  C   UNL     1       1.104   3.175  18.460  0.00  0.00    +0.000 A 
ATOM     15  C   UNL     1       2.491   3.255  18.308  0.00  0.00    +0.000 A 
ENDBRANCH   9  10
ENDBRANCH   7   9
ENDBRANCH   6   7
BRANCH   1  16
ATOM     16  C   UNL     1       3.659   6.698  16.971  0.00  0.00    +0.000 C 
BRANCH  16  21
ATOM     17  C   UNL     1       0.448   9.374  21.038  0.00  0.00    +0.000 C 
ATOM     18  C   UNL     1       1.300   8.707  20.000  0.00  0.00    +0.000 A 
ATOM     19  C   UNL     1       1.477   9.280  18.737  0.00  0.00    +0.000 A 
ATOM     20  C   UNL     1       2.255   8.640  17.768  0.00  0.00    +0.000 A 
ATOM     21  C   UNL     1       2.871   7.413  18.043  0.00  0.00    +0.000 A 
ATOM     22  C   UNL     1       2.693   6.842  19.313  0.00  0.00    +0.000 A 
ATOM     23  C   UNL     1       1.918   7.483  20.281  0.00  0.00    +0.000 A 
ENDBRANCH  16  21
ENDBRANCH   1  16
TORSDOF 5
ENDMDL
