MODEL 1
REMARK VINA RESULT:      -8.4      0.000      0.000
REMARK  Name = 
REMARK  2 active torsions:
REMARK  status: ('A' for Active; 'I' for Inactive)
REMARK    1  A    between atoms: O_1  and  C_2
REMARK    2  A    between atoms: C_8  and  C_9
REMARK                            x       y       z     vdW  Elec       q    Type
REMARK                         _______ _______ _______ _____ _____    ______ ____
ROOT
ATOM      1  C   UNL     1       2.868   2.882  18.418  0.00  0.00    +0.000 A 
ATOM      2  N   UNL     1       2.252   3.430  19.408  0.00  0.00    +0.000 NA
ATOM      3  C   UNL     1       2.357   4.815  19.492  0.00  0.00    +0.000 A 
ATOM      4  C   UNL     1       3.066   5.601  18.629  0.00  0.00    +0.000 A 
ATOM      5  C   UNL     1       3.764   4.937  17.570  0.00  0.00    +0.000 A 
ATOM      6  N   UNL     1       4.561   5.389  16.624  0.00  0.00    +0.000 NA
ATOM      7  C   UNL     1       4.893   4.281  15.865  0.00  0.00    +0.000 A 
ATOM      8  C   UNL     1       4.326   3.146  16.397  0.00  0.00    +0.000 A 
ATOM      9  N   UNL     1       3.618   3.573  17.486  0.00  0.00    +0.000 N 
ATOM     10  C   UNL     1       3.104   7.114  18.753  0.00  0.00    +0.000 C 
ATOM     11  N   UNL     1       2.161   7.592  19.751  0.00  0.00    +0.000 N 
ATOM     12  C   UNL     1       1.286   8.604  19.458  0.00  0.00    +0.000 A 
ATOM     13  N   UNL     1       1.265   9.117  18.217  0.00  0.00    +0.000 NA
ATOM     14  C   UNL     1       0.410  10.122  17.963  0.00  0.00    +0.000 A 
ATOM     15  C   UNL     1      -0.420  10.665  18.907  0.00  0.00    +0.000 A 
ATOM     16  C   UNL     1      -0.336  10.088  20.147  0.00  0.00    +0.000 A 
ATOM     17  N   UNL     1       0.485   9.065  20.435  0.00  0.00    +0.000 NA
ATOM     18  C   UNL     1       2.040   6.845  20.985  0.00  0.00    +0.000 C 
ATOM     19  C   UNL     1       1.605   5.417  20.662  0.00  0.00    +0.000 C 
ENDROOT
BRANCH   7  20
ATOM     20  C   UNL     1       5.748   4.324  14.695  0.00  0.00    +0.000 A 
ATOM     21  C   UNL     1       5.366   3.660  13.521  0.00  0.00    +0.000 A 
ATOM     22  C   UNL     1       6.169   3.722  12.377  0.00  0.00    +0.000 A 
ATOM     23  C   UNL     1       7.370   4.431  12.399  0.00  0.00    +0.000 A 
ATOM     24  C   UNL     1       7.768   5.081  13.564  0.00  0.00    +0.000 A 
ATOM     25  C   UNL     1       6.959   5.026  14.698  0.00  0.00    +0.000 A 
ATOM     26  F   UNL     1       7.387   5.663  15.800  0.00  0.00    +0.000 F 
ENDBRANCH   7  20
BRANCH   1  27
ATOM     27  O   UNL     1       2.850   1.556  18.209  0.00  0.00    +0.000 OA
ATOM     28  H   UNL     1       2.163   1.375  17.545  0.00  0.00    +0.000 HD
ENDBRANCH   1  27
TORSDOF 2
ENDMDL
MODEL 2
REMARK VINA RESULT:      -8.2      4.419      7.386
REMARK  Name = 
REMARK  2 active torsions:
REMARK  status: ('A' for Active; 'I' for Inactive)
REMARK    1  A    between atoms: O_1  and  C_2
REMARK    2  A    between atoms: C_8  and  C_9
REMARK                            x       y       z     vdW  Elec       q    Type
REMARK                         _______ _______ _______ _____ _____    ______ ____
ROOT
ATOM      1  C   UNL     1      -0.038  10.036  23.045  0.00  0.00    +0.000 A 
ATOM      2  N   UNL     1      -0.920  10.962  23.203  0.00  0.00    +0.000 NA
ATOM      3  C   UNL     1      -1.475  11.474  22.034  0.00  0.00    +0.000 A 
ATOM      4  C   UNL     1      -1.138  11.081  20.771  0.00  0.00    +0.000 A 
ATOM      5  C   UNL     1      -0.124  10.078  20.650  0.00  0.00    +0.000 A 
ATOM      6  N   UNL     1       0.452   9.532  19.599  0.00  0.00    +0.000 NA
ATOM      7  C   UNL     1       1.322   8.584  20.110  0.00  0.00    +0.000 A 
ATOM      8  C   UNL     1       1.300   8.604  21.485  0.00  0.00    +0.000 A 
ATOM      9  N   UNL     1       0.385   9.563  21.818  0.00  0.00    +0.000 N 
ATOM     10  C   UNL     1      -1.814  11.652  19.535  0.00  0.00    +0.000 C 
ATOM     11  N   UNL     1      -2.952  12.484  19.887  0.00  0.00    +0.000 N 
ATOM     12  C   UNL     1      -4.168  12.298  19.282  0.00  0.00    +0.000 A 
ATOM     13  N   UNL     1      -4.317  11.298  18.399  0.00  0.00    +0.000 NA
ATOM     14  C   UNL     1      -5.514  11.151  17.806  0.00  0.00    +0.000 A 
ATOM     15  C   UNL     1      -6.578  11.980  18.038  0.00  0.00    +0.000 A 
ATOM     16  C   UNL     1      -6.345  12.976  18.949  0.00  0.00    +0.000 A 
ATOM     17  N   UNL     1      -5.171  13.141  19.583  0.00  0.00    +0.000 NA
ATOM     18  C   UNL     1      -2.821  13.374  21.020  0.00  0.00    +0.000 C 
ATOM     19  C   UNL     1      -2.517  12.549  22.269  0.00  0.00    +0.000 C 
ENDROOT
BRANCH   7  20
ATOM     20  C   UNL     1       2.158   7.726  19.294  0.00  0.00    +0.000 A 
ATOM     21  C   UNL     1       2.746   8.225  18.124  0.00  0.00    +0.000 A 
ATOM     22  C   UNL     1       3.580   7.414  17.346  0.00  0.00    +0.000 A 
ATOM     23  C   UNL     1       3.820   6.091  17.719  0.00  0.00    +0.000 A 
ATOM     24  C   UNL     1       3.227   5.579  18.870  0.00  0.00    +0.000 A 
ATOM     25  C   UNL     1       2.406   6.394  19.647  0.00  0.00    +0.000 A 
ATOM     26  F   UNL     1       1.852   5.855  20.744  0.00  0.00    +0.000 F 
ENDBRANCH   7  20
BRANCH   1  27
ATOM     27  O   UNL     1       0.576   9.447  24.084  0.00  0.00    +0.000 OA
ATOM     28  H   UNL     1       0.043   9.626  24.876  0.00  0.00    +0.000 HD
ENDBRANCH   1  27
TORSDOF 2
ENDMDL
MODEL 3
REMARK VINA RESULT:      -8.1      4.449      7.468
REMARK  Name = 
REMARK  2 active torsions:
REMARK  status: ('A' for Active; 'I' for Inactive)
REMARK    1  A    between atoms: O_1  and  C_2
REMARK    2  A    between atoms: C_8  and  C_9
REMARK                            x       y       z     vdW  Elec       q    Type
REMARK                         _______ _______ _______ _____ _____    ______ ____
ROOT
ATOM      1  C   UNL     1      -0.161  10.137  23.051  0.00  0.00    +0.000 A 
ATOM      2  N   UNL     1      -1.058  11.049  23.206  0.00  0.00    +0.000 NA
ATOM      3  C   UNL     1      -1.613  11.555  22.034  0.00  0.00    +0.000 A 
ATOM      4  C   UNL     1      -1.262  11.171  20.772  0.00  0.00    +0.000 A 
ATOM      5  C   UNL     1      -0.232  10.184  20.656  0.00  0.00    +0.000 A 
ATOM      6  N   UNL     1       0.359   9.649  19.607  0.00  0.00    +0.000 NA
ATOM      7  C   UNL     1       1.241   8.714  20.121  0.00  0.00    +0.000 A 
ATOM      8  C   UNL     1       1.210   8.730  21.496  0.00  0.00    +0.000 A 
ATOM      9  N   UNL     1       0.277   9.674  21.826  0.00  0.00    +0.000 N 
ATOM     10  C   UNL     1      -1.939  11.733  19.534  0.00  0.00    +0.000 C 
ATOM     11  N   UNL     1      -3.093  12.546  19.880  0.00  0.00    +0.000 N 
ATOM     12  C   UNL     1      -4.302  12.343  19.267  0.00  0.00    +0.000 A 
ATOM     13  N   UNL     1      -4.429  11.343  18.380  0.00  0.00    +0.000 NA
ATOM     14  C   UNL     1      -5.620  11.178  17.780  0.00  0.00    +0.000 A 
ATOM     15  C   UNL     1      -6.698  11.991  18.007  0.00  0.00    +0.000 A 
ATOM     16  C   UNL     1      -6.486  12.988  18.922  0.00  0.00    +0.000 A 
ATOM     17  N   UNL     1      -5.320  13.169  19.563  0.00  0.00    +0.000 NA
ATOM     18  C   UNL     1      -2.983  13.437  21.016  0.00  0.00    +0.000 C 
ATOM     19  C   UNL     1      -2.674  12.613  22.265  0.00  0.00    +0.000 C 
ENDROOT
BRANCH   7  20
ATOM     20  C   UNL     1       2.095   7.871  19.308  0.00  0.00    +0.000 A 
ATOM     21  C   UNL     1       2.430   6.582  19.747  0.00  0.00    +0.000 A 
ATOM     22  C   UNL     1       3.228   5.748  18.955  0.00  0.00    +0.000 A 
ATOM     23  C   UNL     1       3.714   6.199  17.728  0.00  0.00    +0.000 A 
ATOM     24  C   UNL     1       3.402   7.483  17.290  0.00  0.00    +0.000 A 
ATOM     25  C   UNL     1       2.598   8.306  18.077  0.00  0.00    +0.000 A 
ATOM     26  F   UNL     1       2.328   9.538  17.616  0.00  0.00    +0.000 F 
ENDBRANCH   7  20
BRANCH   1  27
ATOM     27  O   UNL     1       0.456   9.556  24.092  0.00  0.00    +0.000 OA
ATOM     28  H   UNL     1       1.344   9.945  24.158  0.00  0.00    +0.000 HD
ENDBRANCH   1  27
TORSDOF 2
ENDMDL
MODEL 4
REMARK VINA RESULT:      -7.8      2.157      3.406
REMARK  Name = 
REMARK  2 active torsions:
REMARK  status: ('A' for Active; 'I' for Inactive)
REMARK    1  A    between atoms: O_1  and  C_2
REMARK    2  A    between atoms: C_8  and  C_9
REMARK                            x       y       z     vdW  Elec       q    Type
REMARK                         _______ _______ _______ _____ _____    ______ ____
ROOT
ATOM      1  C   UNL     1       2.183   6.030  20.899  0.00  0.00    +0.000 A 
ATOM      2  N   UNL     1       1.400   6.914  21.415  0.00  0.00    +0.000 NA
ATOM      3  C   UNL     1       1.093   7.999  20.599  0.00  0.00    +0.000 A 
ATOM      4  C   UNL     1       1.570   8.187  19.334  0.00  0.00    +0.000 A 
ATOM      5  C   UNL     1       2.468   7.196  18.823  0.00  0.00    +0.000 A 
ATOM      6  N   UNL     1       3.130   7.110  17.687  0.00  0.00    +0.000 NA
ATOM      7  C   UNL     1       3.796   5.898  17.744  0.00  0.00    +0.000 A 
ATOM      8  C   UNL     1       3.568   5.279  18.951  0.00  0.00    +0.000 A 
ATOM      9  N   UNL     1       2.730   6.116  19.633  0.00  0.00    +0.000 N 
ATOM     10  C   UNL     1       1.160   9.374  18.479  0.00  0.00    +0.000 C 
ATOM     11  N   UNL     1       0.085  10.131  19.098  0.00  0.00    +0.000 N 
ATOM     12  C   UNL     1      -1.037  10.463  18.387  0.00  0.00    +0.000 A 
ATOM     13  N   UNL     1      -1.165  10.032  17.121  0.00  0.00    +0.000 NA
ATOM     14  C   UNL     1      -2.267  10.388  16.440  0.00  0.00    +0.000 A 
ATOM     15  C   UNL     1      -3.251  11.186  16.959  0.00  0.00    +0.000 A 
ATOM     16  C   UNL     1      -3.045  11.586  18.253  0.00  0.00    +0.000 A 
ATOM     17  N   UNL     1      -1.970  11.229  18.977  0.00  0.00    +0.000 NA
ATOM     18  C   UNL     1       0.145  10.354  20.528  0.00  0.00    +0.000 C 
ATOM     19  C   UNL     1       0.158   9.004  21.241  0.00  0.00    +0.000 C 
ENDROOT
BRANCH   7  20
ATOM     20  C   UNL     1       4.642   5.387  16.683  0.00  0.00    +0.000 A 
ATOM     21  C   UNL     1       5.259   6.273  15.788  0.00  0.00    +0.000 A 
ATOM     22  C   UNL     1       6.102   5.791  14.781  0.00  0.00    +0.000 A 
ATOM     23  C   UNL     1       6.322   4.420  14.644  0.00  0.00    +0.000 A 
ATOM     24  C   UNL     1       5.701   3.530  15.515  0.00  0.00    +0.000 A 
ATOM     25  C   UNL     1       4.871   4.015  16.525  0.00  0.00    +0.000 A 
ATOM     26  F   UNL     1       4.289   3.119  17.337  0.00  0.00    +0.000 F 
ENDBRANCH   7  20
BRANCH   1  27
ATOM     27  O   UNL     1       2.560   4.929  21.568  0.00  0.00    +0.000 OA
ATOM     28  H   UNL     1       3.525   4.968  21.672  0.00  0.00    +0.000 HD
ENDBRANCH   1  27
TORSDOF 2
ENDMDL
MODEL 5
REMARK VINA RESULT:      -7.8      2.064      3.287
REMARK  Name = 
REMARK  2 active torsions:
REMARK  status: ('A' for Active; 'I' for Inactive)
REMARK    1  A    between atoms: O_1  and  C_2
REMARK    2  A    between atoms: C_8  and  C_9
REMARK                            x       y       z     vdW  Elec       q    Type
REMARK                         _______ _______ _______ _____ _____    ______ ____
ROOT
ATOM      1  C   UNL     1       2.181   6.052  20.910  0.00  0.00    +0.000 A 
ATOM      2  N   UNL     1       1.344   6.893  21.415  0.00  0.00    +0.000 NA
ATOM      3  C   UNL     1       1.034   7.989  20.616  0.00  0.00    +0.000 A 
ATOM      4  C   UNL     1       1.560   8.231  19.380  0.00  0.00    +0.000 A 
ATOM      5  C   UNL     1       2.515   7.287  18.883  0.00  0.00    +0.000 A 
ATOM      6  N   UNL     1       3.229   7.258  17.777  0.00  0.00    +0.000 NA
ATOM      7  C   UNL     1       3.937   6.070  17.830  0.00  0.00    +0.000 A 
ATOM      8  C   UNL     1       3.678   5.408  19.008  0.00  0.00    +0.000 A 
ATOM      9  N   UNL     1       2.780   6.195  19.674  0.00  0.00    +0.000 N 
ATOM     10  C   UNL     1       1.145   9.428  18.540  0.00  0.00    +0.000 C 
ATOM     11  N   UNL     1       0.017  10.128  19.131  0.00  0.00    +0.000 N 
ATOM     12  C   UNL     1      -1.085  10.440  18.378  0.00  0.00    +0.000 A 
ATOM     13  N   UNL     1      -1.140  10.042  17.097  0.00  0.00    +0.000 NA
ATOM     14  C   UNL     1      -2.223  10.379  16.376  0.00  0.00    +0.000 A 
ATOM     15  C   UNL     1      -3.257  11.126  16.872  0.00  0.00    +0.000 A 
ATOM     16  C   UNL     1      -3.124  11.495  18.184  0.00  0.00    +0.000 A 
ATOM     17  N   UNL     1      -2.070  11.156  18.946  0.00  0.00    +0.000 NA
ATOM     18  C   UNL     1       0.005  10.311  20.567  0.00  0.00    +0.000 C 
ATOM     19  C   UNL     1       0.035   8.942  21.243  0.00  0.00    +0.000 C 
ENDROOT
BRANCH   7  20
ATOM     20  C   UNL     1       4.847   5.620  16.795  0.00  0.00    +0.000 A 
ATOM     21  C   UNL     1       4.541   4.479  16.039  0.00  0.00    +0.000 A 
ATOM     22  C   UNL     1       5.396   4.055  15.017  0.00  0.00    +0.000 A 
ATOM     23  C   UNL     1       6.574   4.754  14.750  0.00  0.00    +0.000 A 
ATOM     24  C   UNL     1       6.897   5.878  15.506  0.00  0.00    +0.000 A 
ATOM     25  C   UNL     1       6.036   6.303  16.515  0.00  0.00    +0.000 A 
ATOM     26  F   UNL     1       6.391   7.389  17.220  0.00  0.00    +0.000 F 
ENDBRANCH   7  20
BRANCH   1  27
ATOM     27  O   UNL     1       2.568   4.946  21.566  0.00  0.00    +0.000 OA
ATOM     28  H   UNL     1       2.320   5.059  22.499  0.00  0.00    +0.000 HD
ENDBRANCH   1  27
TORSDOF 2
ENDMDL
MODEL 6
REMARK VINA RESULT:      -7.8      1.542      2.189
REMARK  Name = 
REMARK  2 active torsions:
REMARK  status: ('A' for Active; 'I' for Inactive)
REMARK    1  A    between atoms: O_1  and  C_2
REMARK    2  A    between atoms: C_8  and  C_9
REMARK                            x       y       z     vdW  Elec       q    Type
REMARK                         _______ _______ _______ _____ _____    ______ ____
ROOT
ATOM      1  C   UNL     1       2.522   4.758  20.451  0.00  0.00    +0.000 A 
ATOM      2  N   UNL     1       1.793   5.550  21.161  0.00  0.00    +0.000 NA
ATOM      3  C   UNL     1       1.634   6.838  20.658  0.00  0.00    +0.000 A 
ATOM      4  C   UNL     1       2.201   7.304  19.507  0.00  0.00    +0.000 A 
ATOM      5  C   UNL     1       3.034   6.397  18.778  0.00  0.00    +0.000 A 
ATOM      6  N   UNL     1       3.752   6.548  17.684  0.00  0.00    +0.000 NA
ATOM      7  C   UNL     1       4.302   5.303  17.433  0.00  0.00    +0.000 A 
ATOM      8  C   UNL     1       3.947   4.413  18.420  0.00  0.00    +0.000 A 
ATOM      9  N   UNL     1       3.149   5.120  19.275  0.00  0.00    +0.000 N 
ATOM     10  C   UNL     1       1.952   8.712  18.991  0.00  0.00    +0.000 C 
ATOM     11  N   UNL     1       0.915   9.384  19.756  0.00  0.00    +0.000 N 
ATOM     12  C   UNL     1      -0.128  10.007  19.124  0.00  0.00    +0.000 A 
ATOM     13  N   UNL     1      -0.218   9.943  17.785  0.00  0.00    +0.000 NA
ATOM     14  C   UNL     1      -1.242  10.579  17.189  0.00  0.00    +0.000 A 
ATOM     15  C   UNL     1      -2.178  11.307  17.872  0.00  0.00    +0.000 A 
ATOM     16  C   UNL     1      -2.014  11.326  19.232  0.00  0.00    +0.000 A 
ATOM     17  N   UNL     1      -1.021  10.681  19.868  0.00  0.00    +0.000 NA
ATOM     18  C   UNL     1       0.910   9.213  21.194  0.00  0.00    +0.000 C 
ATOM     19  C   UNL     1       0.758   7.728  21.516  0.00  0.00    +0.000 C 
ENDROOT
BRANCH   7  20
ATOM     20  C   UNL     1       5.159   5.007  16.302  0.00  0.00    +0.000 A 
ATOM     21  C   UNL     1       4.637   4.349  15.179  0.00  0.00    +0.000 A 
ATOM     22  C   UNL     1       5.448   4.087  14.069  0.00  0.00    +0.000 A 
ATOM     23  C   UNL     1       6.792   4.462  14.076  0.00  0.00    +0.000 A 
ATOM     24  C   UNL     1       7.325   5.101  15.193  0.00  0.00    +0.000 A 
ATOM     25  C   UNL     1       6.511   5.370  16.291  0.00  0.00    +0.000 A 
ATOM     26  F   UNL     1       7.071   5.983  17.346  0.00  0.00    +0.000 F 
ENDBRANCH   7  20
BRANCH   1  27
ATOM     27  O   UNL     1       2.757   3.487  20.811  0.00  0.00    +0.000 OA
ATOM     28  H   UNL     1       2.885   2.973  19.996  0.00  0.00    +0.000 HD
ENDBRANCH   1  27
TORSDOF 2
ENDMDL
MODEL 7
REMARK VINA RESULT:      -7.5      0.933      1.314
REMARK  Name = 
REMARK  2 active torsions:
REMARK  status: ('A' for Active; 'I' for Inactive)
REMARK    1  A    between atoms: O_1  and  C_2
REMARK    2  A    between atoms: C_8  and  C_9
REMARK                            x       y       z     vdW  Elec       q    Type
REMARK                         _______ _______ _______ _____ _____    ______ ____
ROOT
ATOM      1  C   UNL     1       3.019   2.893  18.165  0.00  0.00    +0.000 A 
ATOM      2  N   UNL     1       2.394   3.400  19.171  0.00  0.00    +0.000 NA
ATOM      3  C   UNL     1       2.480   4.783  19.302  0.00  0.00    +0.000 A 
ATOM      4  C   UNL     1       3.180   5.606  18.468  0.00  0.00    +0.000 A 
ATOM      5  C   UNL     1       3.890   4.988  17.389  0.00  0.00    +0.000 A 
ATOM      6  N   UNL     1       4.683   5.482  16.460  0.00  0.00    +0.000 NA
ATOM      7  C   UNL     1       5.030   4.404  15.665  0.00  0.00    +0.000 A 
ATOM      8  C   UNL     1       4.477   3.244  16.158  0.00  0.00    +0.000 A 
ATOM      9  N   UNL     1       3.762   3.625  17.259  0.00  0.00    +0.000 N 
ATOM     10  C   UNL     1       3.199   7.115  18.642  0.00  0.00    +0.000 C 
ATOM     11  N   UNL     1       2.248   7.547  19.653  0.00  0.00    +0.000 N 
ATOM     12  C   UNL     1       1.359   8.557  19.392  0.00  0.00    +0.000 A 
ATOM     13  N   UNL     1       1.334   9.111  18.170  0.00  0.00    +0.000 NA
ATOM     14  C   UNL     1       0.467  10.113  17.947  0.00  0.00    +0.000 A 
ATOM     15  C   UNL     1      -0.372  10.612  18.907  0.00  0.00    +0.000 A 
ATOM     16  C   UNL     1      -0.283   9.996  20.127  0.00  0.00    +0.000 A 
ATOM     17  N   UNL     1       0.551   8.974  20.382  0.00  0.00    +0.000 NA
ATOM     18  C   UNL     1       2.134   6.758  20.862  0.00  0.00    +0.000 C 
ATOM     19  C   UNL     1       1.718   5.336  20.490  0.00  0.00    +0.000 C 
ENDROOT
BRANCH   7  20
ATOM     20  C   UNL     1       5.888   4.497  14.500  0.00  0.00    +0.000 A 
ATOM     21  C   UNL     1       7.121   5.159  14.587  0.00  0.00    +0.000 A 
ATOM     22  C   UNL     1       7.970   5.227  13.477  0.00  0.00    +0.000 A 
ATOM     23  C   UNL     1       7.589   4.652  12.264  0.00  0.00    +0.000 A 
ATOM     24  C   UNL     1       6.358   4.007  12.161  0.00  0.00    +0.000 A 
ATOM     25  C   UNL     1       5.521   3.932  13.273  0.00  0.00    +0.000 A 
ATOM     26  F   UNL     1       4.343   3.306  13.124  0.00  0.00    +0.000 F 
ENDBRANCH   7  20
BRANCH   1  27
ATOM     27  O   UNL     1       3.018   1.575  17.911  0.00  0.00    +0.000 OA
ATOM     28  H   UNL     1       2.509   1.436  17.096  0.00  0.00    +0.000 HD
ENDBRANCH   1  27
TORSDOF 2
ENDMDL
MODEL 8
REMARK VINA RESULT:      -7.3      3.551      6.161
REMARK  Name = 
REMARK  2 active torsions:
REMARK  status: ('A' for Active; 'I' for Inactive)
REMARK    1  A    between atoms: O_1  and  C_2
REMARK    2  A    between atoms: C_8  and  C_9
REMARK                            x       y       z     vdW  Elec       q    Type
REMARK                         _______ _______ _______ _____ _____    ______ ____
ROOT
ATOM      1  C   UNL     1       1.198   9.416  22.058  0.00  0.00    +0.000 A 
ATOM      2  N   UNL     1       0.375  10.391  22.237  0.00  0.00    +0.000 NA
ATOM      3  C   UNL     1      -0.289  10.838  21.099  0.00  0.00    +0.000 A 
ATOM      4  C   UNL     1      -0.113  10.335  19.842  0.00  0.00    +0.000 A 
ATOM      5  C   UNL     1       0.843   9.281  19.691  0.00  0.00    +0.000 A 
ATOM      6  N   UNL     1       1.275   8.630  18.630  0.00  0.00    +0.000 NA
ATOM      7  C   UNL     1       2.162   7.685  19.117  0.00  0.00    +0.000 A 
ATOM      8  C   UNL     1       2.297   7.810  20.481  0.00  0.00    +0.000 A 
ATOM      9  N   UNL     1       1.461   8.832  20.834  0.00  0.00    +0.000 N 
ATOM     10  C   UNL     1      -0.903  10.841  18.646  0.00  0.00    +0.000 C 
ATOM     11  N   UNL     1      -1.963  11.748  19.053  0.00  0.00    +0.000 N 
ATOM     12  C   UNL     1      -3.245  11.573  18.603  0.00  0.00    +0.000 A 
ATOM     13  N   UNL     1      -3.530  10.517  17.825  0.00  0.00    +0.000 NA
ATOM     14  C   UNL     1      -4.792  10.380  17.382  0.00  0.00    +0.000 A 
ATOM     15  C   UNL     1      -5.791  11.273  17.662  0.00  0.00    +0.000 A 
ATOM     16  C   UNL     1      -5.419  12.323  18.458  0.00  0.00    +0.000 A 
ATOM     17  N   UNL     1      -4.176  12.481  18.943  0.00  0.00    +0.000 NA
ATOM     18  C   UNL     1      -1.670  12.716  20.090  0.00  0.00    +0.000 C 
ATOM     19  C   UNL     1      -1.258  11.974  21.360  0.00  0.00    +0.000 C 
ENDROOT
BRANCH   7  20
ATOM     20  C   UNL     1       2.867   6.730  18.286  0.00  0.00    +0.000 A 
ATOM     21  C   UNL     1       3.937   7.152  17.484  0.00  0.00    +0.000 A 
ATOM     22  C   UNL     1       4.645   6.232  16.703  0.00  0.00    +0.000 A 
ATOM     23  C   UNL     1       4.280   4.885  16.699  0.00  0.00    +0.000 A 
ATOM     24  C   UNL     1       3.208   4.458  17.478  0.00  0.00    +0.000 A 
ATOM     25  C   UNL     1       2.513   5.376  18.263  0.00  0.00    +0.000 A 
ATOM     26  F   UNL     1       1.484   4.918  18.993  0.00  0.00    +0.000 F 
ENDBRANCH   7  20
BRANCH   1  27
ATOM     27  O   UNL     1       1.904   8.881  23.067  0.00  0.00    +0.000 OA
ATOM     28  H   UNL     1       1.584   7.972  23.196  0.00  0.00    +0.000 HD
ENDBRANCH   1  27
TORSDOF 2
ENDMDL
MODEL 9
REMARK VINA RESULT:      -7.3      4.188      8.973
REMARK  Name = 
REMARK  2 active torsions:
REMARK  status: ('A' for Active; 'I' for Inactive)
REMARK    1  A    between atoms: O_1  and  C_2
REMARK    2  A    between atoms: C_8  and  C_9
REMARK                            x       y       z     vdW  Elec       q    Type
REMARK                         _______ _______ _______ _____ _____    ______ ____
ROOT
ATOM      1  C   UNL     1       2.328  10.065  17.734  0.00  0.00    +0.000 A 
ATOM      2  N   UNL     1       3.094   9.087  17.390  0.00  0.00    +0.000 NA
ATOM      3  C   UNL     1       3.015   7.949  18.187  0.00  0.00    +0.000 A 
ATOM      4  C   UNL     1       2.217   7.817  19.287  0.00  0.00    +0.000 A 
ATOM      5  C   UNL     1       1.417   8.947  19.649  0.00  0.00    +0.000 A 
ATOM      6  N   UNL     1       0.599   9.158  20.660  0.00  0.00    +0.000 NA
ATOM      7  C   UNL     1       0.074  10.420  20.448  0.00  0.00    +0.000 A 
ATOM      8  C   UNL     1       0.626  10.988  19.323  0.00  0.00    +0.000 A 
ATOM      9  N   UNL     1       1.485  10.047  18.828  0.00  0.00    +0.000 N 
ATOM     10  C   UNL     1       2.147   6.529  20.090  0.00  0.00    +0.000 C 
ATOM     11  N   UNL     1       2.863   5.450  19.431  0.00  0.00    +0.000 N 
ATOM     12  C   UNL     1       2.270   4.229  19.242  0.00  0.00    +0.000 A 
ATOM     13  N   UNL     1       0.995   4.052  19.622  0.00  0.00    +0.000 NA
ATOM     14  C   UNL     1       0.444   2.839  19.443  0.00  0.00    +0.000 A 
ATOM     15  C   UNL     1       1.123   1.772  18.919  0.00  0.00    +0.000 A 
ATOM     16  C   UNL     1       2.419   2.033  18.560  0.00  0.00    +0.000 A 
ATOM     17  N   UNL     1       2.997   3.238  18.698  0.00  0.00    +0.000 NA
ATOM     18  C   UNL     1       4.135   5.756  18.811  0.00  0.00    +0.000 C 
ATOM     19  C   UNL     1       3.921   6.820  17.737  0.00  0.00    +0.000 C 
ENDROOT
BRANCH   7  20
ATOM     20  C   UNL     1      -0.895  11.054  21.321  0.00  0.00    +0.000 A 
ATOM     21  C   UNL     1      -1.831  11.955  20.794  0.00  0.00    +0.000 A 
ATOM     22  C   UNL     1      -2.791  12.547  21.622  0.00  0.00    +0.000 A 
ATOM     23  C   UNL     1      -2.814  12.261  22.988  0.00  0.00    +0.000 A 
ATOM     24  C   UNL     1      -1.878  11.381  23.525  0.00  0.00    +0.000 A 
ATOM     25  C   UNL     1      -0.931  10.785  22.694  0.00  0.00    +0.000 A 
ATOM     26  F   UNL     1      -0.046   9.947  23.259  0.00  0.00    +0.000 F 
ENDBRANCH   7  20
BRANCH   1  27
ATOM     27  O   UNL     1       2.296  11.222  17.055  0.00  0.00    +0.000 OA
ATOM     28  H   UNL     1       2.094  11.928  17.691  0.00  0.00    +0.000 HD
ENDBRANCH   1  27
TORSDOF 2
ENDMDL
