MODEL 1
REMARK VINA RESULT:      -5.8      0.000      0.000
REMARK  Name = 
REMARK  9 active torsions:
REMARK  status: ('A' for Active; 'I' for Inactive)
REMARK    1  A    between atoms: N_1  and  C_2
REMARK    2  A    between atoms: C_2  and  C_3
REMARK    3  A    between atoms: C_3  and  C_4
REMARK    4  A    between atoms: C_4  and  C_5
REMARK    5  A    between atoms: C_5  and  C_6
REMARK    6  A    between atoms: C_6  and  C_7
REMARK    7  A    between atoms: C_7  and  C_8
REMARK    8  A    between atoms: C_8  and  O_10
REMARK    9  A    between atoms: P_14  and  O_16
REMARK                            x       y       z     vdW  Elec       q    Type
REMARK                         _______ _______ _______ _____ _____    ______ ____
ROOT
ATOM      1  C   UNL     1       3.461   4.044  18.903  0.00  0.00    +0.000 C 
ATOM      2  C   UNL     1       2.871   4.994  19.990  0.00  0.00    +0.000 C 
ATOM      3  C   UNL     1       2.343   4.117  21.135  0.00  0.00    +0.000 C 
ATOM      4  C   UNL     1       1.530   2.985  20.506  0.00  0.00    +0.000 C 
ATOM      5  P   UNL     1       2.208   2.754  18.861  0.00  0.00    +0.000 P 
ATOM      6  O   UNL     1       2.747   1.392  18.522  0.00  0.00    +0.000 OA
ENDROOT
BRANCH   1   7
ATOM      7  C   UNL     1       4.818   3.567  19.393  0.00  0.00    +0.000 C 
ATOM      8  O   UNL     1       5.788   4.320  19.450  0.00  0.00    +0.000 OA
BRANCH   7   9
ATOM      9  O   UNL     1       4.929   2.280  19.761  0.00  0.00    +0.000 OA
ATOM     10  H   UNL     1       5.430   1.658  19.175  0.00  0.00    +0.000 HD
ENDBRANCH   7   9
ENDBRANCH   1   7
BRANCH   5  11
ATOM     11  O   UNL     1       1.041   3.290  17.901  0.00  0.00    +0.000 OA
ATOM     12  H   UNL     1       1.184   4.152  17.460  0.00  0.00    +0.000 HD
ENDBRANCH   5  11
BRANCH   1  13
ATOM     13  C   UNL     1       3.639   4.805  17.571  0.00  0.00    +0.000 C 
BRANCH  13  14
ATOM     14  C   UNL     1       3.637   6.334  17.710  0.00  0.00    +0.000 C 
BRANCH  14  15
ATOM     15  C   UNL     1       4.909   6.947  17.106  0.00  0.00    +0.000 C 
BRANCH  15  16
ATOM     16  C   UNL     1       5.680   5.924  16.265  0.00  0.00    +0.000 C 
BRANCH  16  17
ATOM     17  C   UNL     1       7.156   5.795  16.649  0.00  0.00    +0.000 C 
BRANCH  17  18
ATOM     18  N   UNL     1       7.519   4.419  16.980  0.00  0.00    +0.000 NA
ATOM     19  H   UNL     1       6.891   4.069  17.704  0.00  0.00    +0.000 HD
ATOM     20  H   UNL     1       8.454   4.400  17.380  0.00  0.00    +0.000 HD
ENDBRANCH  17  18
ENDBRANCH  16  17
ENDBRANCH  15  16
ENDBRANCH  14  15
ENDBRANCH  13  14
ENDBRANCH   1  13
TORSDOF 9
ENDMDL
MODEL 2
REMARK VINA RESULT:      -5.8      2.985      5.192
REMARK  Name = 
REMARK  9 active torsions:
REMARK  status: ('A' for Active; 'I' for Inactive)
REMARK    1  A    between atoms: N_1  and  C_2
REMARK    2  A    between atoms: C_2  and  C_3
REMARK    3  A    between atoms: C_3  and  C_4
REMARK    4  A    between atoms: C_4  and  C_5
REMARK    5  A    between atoms: C_5  and  C_6
REMARK    6  A    between atoms: C_6  and  C_7
REMARK    7  A    between atoms: C_7  and  C_8
REMARK    8  A    between atoms: C_8  and  O_10
REMARK    9  A    between atoms: P_14  and  O_16
REMARK                            x       y       z     vdW  Elec       q    Type
REMARK                         _______ _______ _______ _____ _____    ______ ____
ROOT
ATOM      1  C   UNL     1       5.673   4.682  16.403  0.00  0.00    +0.000 C 
ATOM      2  C   UNL     1       4.862   5.973  16.731  0.00  0.00    +0.000 C 
ATOM      3  C   UNL     1       5.871   7.105  16.974  0.00  0.00    +0.000 C 
ATOM      4  C   UNL     1       6.956   6.558  17.904  0.00  0.00    +0.000 C 
ATOM      5  P   UNL     1       6.991   4.787  17.624  0.00  0.00    +0.000 P 
ATOM      6  O   UNL     1       8.291   4.185  17.169  0.00  0.00    +0.000 OA
ENDROOT
BRANCH   1   7
ATOM      7  C   UNL     1       6.156   4.792  14.966  0.00  0.00    +0.000 C 
ATOM      8  O   UNL     1       5.448   4.465  14.016  0.00  0.00    +0.000 OA
BRANCH   7   9
ATOM      9  O   UNL     1       7.400   5.257  14.762  0.00  0.00    +0.000 OA
ATOM     10  H   UNL     1       7.675   5.497  13.841  0.00  0.00    +0.000 HD
ENDBRANCH   7   9
ENDBRANCH   1   7
BRANCH   5  11
ATOM     11  O   UNL     1       6.392   4.185  18.984  0.00  0.00    +0.000 OA
ATOM     12  H   UNL     1       6.471   4.735  19.790  0.00  0.00    +0.000 HD
ENDBRANCH   5  11
BRANCH   1  13
ATOM     13  C   UNL     1       4.771   3.437  16.543  0.00  0.00    +0.000 C 
BRANCH  13  14
ATOM     14  C   UNL     1       3.438   3.698  17.258  0.00  0.00    +0.000 C 
BRANCH  14  15
ATOM     15  C   UNL     1       2.787   2.384  17.715  0.00  0.00    +0.000 C 
BRANCH  15  16
ATOM     16  C   UNL     1       2.459   2.412  19.213  0.00  0.00    +0.000 C 
BRANCH  16  17
ATOM     17  C   UNL     1       3.666   2.711  20.104  0.00  0.00    +0.000 C 
BRANCH  17  18
ATOM     18  N   UNL     1       4.787   1.815  19.830  0.00  0.00    +0.000 NA
ATOM     19  H   UNL     1       5.631   2.188  20.266  0.00  0.00    +0.000 HD
ATOM     20  H   UNL     1       4.970   1.795  18.829  0.00  0.00    +0.000 HD
ENDBRANCH  17  18
ENDBRANCH  16  17
ENDBRANCH  15  16
ENDBRANCH  14  15
ENDBRANCH  13  14
ENDBRANCH   1  13
TORSDOF 9
ENDMDL
MODEL 3
REMARK VINA RESULT:      -5.8      2.577      4.887
REMARK  Name = 
REMARK  9 active torsions:
REMARK  status: ('A' for Active; 'I' for Inactive)
REMARK    1  A    between atoms: N_1  and  C_2
REMARK    2  A    between atoms: C_2  and  C_3
REMARK    3  A    between atoms: C_3  and  C_4
REMARK    4  A    between atoms: C_4  and  C_5
REMARK    5  A    between atoms: C_5  and  C_6
REMARK    6  A    between atoms: C_6  and  C_7
REMARK    7  A    between atoms: C_7  and  C_8
REMARK    8  A    between atoms: C_8  and  O_10
REMARK    9  A    between atoms: P_14  and  O_16
REMARK                            x       y       z     vdW  Elec       q    Type
REMARK                         _______ _______ _______ _____ _____    ______ ____
ROOT
ATOM      1  C   UNL     1       4.243   4.139  18.121  0.00  0.00    +0.000 C 
ATOM      2  C   UNL     1       4.225   3.936  16.575  0.00  0.00    +0.000 C 
ATOM      3  C   UNL     1       5.668   3.655  16.128  0.00  0.00    +0.000 C 
ATOM      4  C   UNL     1       6.566   4.688  16.810  0.00  0.00    +0.000 C 
ATOM      5  P   UNL     1       5.711   5.161  18.315  0.00  0.00    +0.000 P 
ATOM      6  O   UNL     1       6.434   4.948  19.616  0.00  0.00    +0.000 OA
ENDROOT
BRANCH   1   7
ATOM      7  C   UNL     1       4.358   2.768  18.766  0.00  0.00    +0.000 C 
ATOM      8  O   UNL     1       3.824   1.774  18.279  0.00  0.00    +0.000 OA
BRANCH   7   9
ATOM      9  O   UNL     1       5.065   2.674  19.905  0.00  0.00    +0.000 OA
ATOM     10  H   UNL     1       4.846   3.284  20.654  0.00  0.00    +0.000 HD
ENDBRANCH   7   9
ENDBRANCH   1   7
BRANCH   5  11
ATOM     11  O   UNL     1       5.252   6.669  18.021  0.00  0.00    +0.000 OA
ATOM     12  H   UNL     1       5.787   7.184  17.384  0.00  0.00    +0.000 HD
ENDBRANCH   5  11
BRANCH   1  13
ATOM     13  C   UNL     1       2.932   4.811  18.584  0.00  0.00    +0.000 C 
BRANCH  13  14
ATOM     14  C   UNL     1       1.667   4.267  17.905  0.00  0.00    +0.000 C 
BRANCH  14  15
ATOM     15  C   UNL     1       0.821   3.442  18.885  0.00  0.00    +0.000 C 
BRANCH  15  16
ATOM     16  C   UNL     1       1.090   3.850  20.339  0.00  0.00    +0.000 C 
BRANCH  16  17
ATOM     17  C   UNL     1       1.347   2.668  21.275  0.00  0.00    +0.000 C 
BRANCH  17  18
ATOM     18  N   UNL     1       2.639   2.770  21.948  0.00  0.00    +0.000 NA
ATOM     19  H   UNL     1       2.777   1.951  22.541  0.00  0.00    +0.000 HD
ATOM     20  H   UNL     1       2.637   3.575  22.570  0.00  0.00    +0.000 HD
ENDBRANCH  17  18
ENDBRANCH  16  17
ENDBRANCH  15  16
ENDBRANCH  14  15
ENDBRANCH  13  14
ENDBRANCH   1  13
TORSDOF 9
ENDMDL
MODEL 4
REMARK VINA RESULT:      -5.8      3.014      5.124
REMARK  Name = 
REMARK  9 active torsions:
REMARK  status: ('A' for Active; 'I' for Inactive)
REMARK    1  A    between atoms: N_1  and  C_2
REMARK    2  A    between atoms: C_2  and  C_3
REMARK    3  A    between atoms: C_3  and  C_4
REMARK    4  A    between atoms: C_4  and  C_5
REMARK    5  A    between atoms: C_5  and  C_6
REMARK    6  A    between atoms: C_6  and  C_7
REMARK    7  A    between atoms: C_7  and  C_8
REMARK    8  A    between atoms: C_8  and  O_10
REMARK    9  A    between atoms: P_14  and  O_16
REMARK                            x       y       z     vdW  Elec       q    Type
REMARK                         _______ _______ _______ _____ _____    ______ ____
ROOT
ATOM      1  C   UNL     1       5.991   5.350  16.747  0.00  0.00    +0.000 C 
ATOM      2  C   UNL     1       5.638   6.828  17.100  0.00  0.00    +0.000 C 
ATOM      3  C   UNL     1       6.956   7.561  17.394  0.00  0.00    +0.000 C 
ATOM      4  C   UNL     1       7.777   6.668  18.325  0.00  0.00    +0.000 C 
ATOM      5  P   UNL     1       7.238   4.990  17.993  0.00  0.00    +0.000 P 
ATOM      6  O   UNL     1       8.282   4.006  17.543  0.00  0.00    +0.000 OA
ENDROOT
BRANCH   1   7
ATOM      7  C   UNL     1       6.521   5.328  15.323  0.00  0.00    +0.000 C 
ATOM      8  O   UNL     1       5.785   5.503  14.354  0.00  0.00    +0.000 OA
BRANCH   7   9
ATOM      9  O   UNL     1       7.833   5.103  15.151  0.00  0.00    +0.000 OA
ATOM     10  H   UNL     1       8.460   5.350  15.878  0.00  0.00    +0.000 HD
ENDBRANCH   7   9
ENDBRANCH   1   7
BRANCH   5  11
ATOM     11  O   UNL     1       6.441   4.587  19.325  0.00  0.00    +0.000 OA
ATOM     12  H   UNL     1       6.496   3.655  19.616  0.00  0.00    +0.000 HD
ENDBRANCH   5  11
BRANCH   1  13
ATOM     13  C   UNL     1       4.728   4.467  16.834  0.00  0.00    +0.000 C 
BRANCH  13  14
ATOM     14  C   UNL     1       3.560   5.105  17.601  0.00  0.00    +0.000 C 
BRANCH  14  15
ATOM     15  C   UNL     1       2.500   4.057  17.970  0.00  0.00    +0.000 C 
BRANCH  15  16
ATOM     16  C   UNL     1       3.094   2.644  17.997  0.00  0.00    +0.000 C 
BRANCH  16  17
ATOM     17  C   UNL     1       3.403   2.131  19.405  0.00  0.00    +0.000 C 
BRANCH  17  18
ATOM     18  N   UNL     1       4.833   2.162  19.700  0.00  0.00    +0.000 NA
ATOM     19  H   UNL     1       5.322   1.525  19.069  0.00  0.00    +0.000 HD
ATOM     20  H   UNL     1       4.995   1.810  20.640  0.00  0.00    +0.000 HD
ENDBRANCH  17  18
ENDBRANCH  16  17
ENDBRANCH  15  16
ENDBRANCH  14  15
ENDBRANCH  13  14
ENDBRANCH   1  13
TORSDOF 9
ENDMDL
MODEL 5
REMARK VINA RESULT:      -5.7      1.246      1.430
REMARK  Name = 
REMARK  9 active torsions:
REMARK  status: ('A' for Active; 'I' for Inactive)
REMARK    1  A    between atoms: N_1  and  C_2
REMARK    2  A    between atoms: C_2  and  C_3
REMARK    3  A    between atoms: C_3  and  C_4
REMARK    4  A    between atoms: C_4  and  C_5
REMARK    5  A    between atoms: C_5  and  C_6
REMARK    6  A    between atoms: C_6  and  C_7
REMARK    7  A    between atoms: C_7  and  C_8
REMARK    8  A    between atoms: C_8  and  O_10
REMARK    9  A    between atoms: P_14  and  O_16
REMARK                            x       y       z     vdW  Elec       q    Type
REMARK                         _______ _______ _______ _____ _____    ______ ____
ROOT
ATOM      1  C   UNL     1       3.463   3.901  18.241  0.00  0.00    +0.000 C 
ATOM      2  C   UNL     1       2.221   4.782  18.579  0.00  0.00    +0.000 C 
ATOM      3  C   UNL     1       1.617   4.249  19.886  0.00  0.00    +0.000 C 
ATOM      4  C   UNL     1       1.535   2.727  19.764  0.00  0.00    +0.000 C 
ATOM      5  P   UNL     1       2.828   2.259  18.612  0.00  0.00    +0.000 P 
ATOM      6  O   UNL     1       3.875   1.298  19.103  0.00  0.00    +0.000 OA
ENDROOT
BRANCH   1   7
ATOM      7  C   UNL     1       4.602   4.340  19.147  0.00  0.00    +0.000 C 
ATOM      8  O   UNL     1       4.619   5.448  19.677  0.00  0.00    +0.000 OA
BRANCH   7   9
ATOM      9  O   UNL     1       5.606   3.471  19.348  0.00  0.00    +0.000 OA
ATOM     10  H   UNL     1       5.894   3.281  20.277  0.00  0.00    +0.000 HD
ENDBRANCH   7   9
ENDBRANCH   1   7
BRANCH   5  11
ATOM     11  O   UNL     1       2.015   1.787  17.314  0.00  0.00    +0.000 OA
ATOM     12  H   UNL     1       1.972   2.410  16.561  0.00  0.00    +0.000 HD
ENDBRANCH   5  11
BRANCH   1  13
ATOM     13  C   UNL     1       3.877   4.108  16.768  0.00  0.00    +0.000 C 
BRANCH  13  14
ATOM     14  C   UNL     1       4.624   5.422  16.497  0.00  0.00    +0.000 C 
BRANCH  14  15
ATOM     15  C   UNL     1       5.519   5.305  15.255  0.00  0.00    +0.000 C 
BRANCH  15  16
ATOM     16  C   UNL     1       6.892   4.718  15.606  0.00  0.00    +0.000 C 
BRANCH  16  17
ATOM     17  C   UNL     1       7.443   5.196  16.951  0.00  0.00    +0.000 C 
BRANCH  17  18
ATOM     18  N   UNL     1       8.089   4.119  17.695  0.00  0.00    +0.000 NA
ATOM     19  H   UNL     1       7.394   3.644  18.273  0.00  0.00    +0.000 HD
ATOM     20  H   UNL     1       8.773   4.510  18.337  0.00  0.00    +0.000 HD
ENDBRANCH  17  18
ENDBRANCH  16  17
ENDBRANCH  15  16
ENDBRANCH  14  15
ENDBRANCH  13  14
ENDBRANCH   1  13
TORSDOF 9
ENDMDL
MODEL 6
REMARK VINA RESULT:      -5.7      1.011      1.251
REMARK  Name = 
REMARK  9 active torsions:
REMARK  status: ('A' for Active; 'I' for Inactive)
REMARK    1  A    between atoms: N_1  and  C_2
REMARK    2  A    between atoms: C_2  and  C_3
REMARK    3  A    between atoms: C_3  and  C_4
REMARK    4  A    between atoms: C_4  and  C_5
REMARK    5  A    between atoms: C_5  and  C_6
REMARK    6  A    between atoms: C_6  and  C_7
REMARK    7  A    between atoms: C_7  and  C_8
REMARK    8  A    between atoms: C_8  and  O_10
REMARK    9  A    between atoms: P_14  and  O_16
REMARK                            x       y       z     vdW  Elec       q    Type
REMARK                         _______ _______ _______ _____ _____    ______ ____
ROOT
ATOM      1  C   UNL     1       3.587   4.451  18.673  0.00  0.00    +0.000 C 
ATOM      2  C   UNL     1       2.958   5.309  19.815  0.00  0.00    +0.000 C 
ATOM      3  C   UNL     1       2.285   4.343  20.802  0.00  0.00    +0.000 C 
ATOM      4  C   UNL     1       1.469   3.345  19.980  0.00  0.00    +0.000 C 
ATOM      5  P   UNL     1       2.273   3.258  18.379  0.00  0.00    +0.000 P 
ATOM      6  O   UNL     1       2.764   1.912  17.925  0.00  0.00    +0.000 OA
ENDROOT
BRANCH   1   7
ATOM      7  C   UNL     1       4.868   3.835  19.211  0.00  0.00    +0.000 C 
ATOM      8  O   UNL     1       5.835   4.524  19.530  0.00  0.00    +0.000 OA
BRANCH   7   9
ATOM      9  O   UNL     1       4.916   2.498  19.321  0.00  0.00    +0.000 OA
ATOM     10  H   UNL     1       4.368   2.056  20.019  0.00  0.00    +0.000 HD
ENDBRANCH   7   9
ENDBRANCH   1   7
BRANCH   5  11
ATOM     11  O   UNL     1       1.226   3.975  17.399  0.00  0.00    +0.000 OA
ATOM     12  H   UNL     1       0.297   4.034  17.702  0.00  0.00    +0.000 HD
ENDBRANCH   5  11
BRANCH   1  13
ATOM     13  C   UNL     1       3.922   5.345  17.460  0.00  0.00    +0.000 C 
BRANCH  13  14
ATOM     14  C   UNL     1       4.713   4.638  16.350  0.00  0.00    +0.000 C 
BRANCH  14  15
ATOM     15  C   UNL     1       5.724   5.590  15.696  0.00  0.00    +0.000 C 
BRANCH  15  16
ATOM     16  C   UNL     1       7.053   5.610  16.460  0.00  0.00    +0.000 C 
BRANCH  16  17
ATOM     17  C   UNL     1       7.275   6.883  17.279  0.00  0.00    +0.000 C 
BRANCH  17  18
ATOM     18  N   UNL     1       7.885   6.602  18.576  0.00  0.00    +0.000 NA
ATOM     19  H   UNL     1       7.150   6.453  19.269  0.00  0.00    +0.000 HD
ATOM     20  H   UNL     1       8.409   7.416  18.889  0.00  0.00    +0.000 HD
ENDBRANCH  17  18
ENDBRANCH  16  17
ENDBRANCH  15  16
ENDBRANCH  14  15
ENDBRANCH  13  14
ENDBRANCH   1  13
TORSDOF 9
ENDMDL
MODEL 7
REMARK VINA RESULT:      -5.7      1.778      2.818
REMARK  Name = 
REMARK  9 active torsions:
REMARK  status: ('A' for Active; 'I' for Inactive)
REMARK    1  A    between atoms: N_1  and  C_2
REMARK    2  A    between atoms: C_2  and  C_3
REMARK    3  A    between atoms: C_3  and  C_4
REMARK    4  A    between atoms: C_4  and  C_5
REMARK    5  A    between atoms: C_5  and  C_6
REMARK    6  A    between atoms: C_6  and  C_7
REMARK    7  A    between atoms: C_7  and  C_8
REMARK    8  A    between atoms: C_8  and  O_10
REMARK    9  A    between atoms: P_14  and  O_16
REMARK                            x       y       z     vdW  Elec       q    Type
REMARK                         _______ _______ _______ _____ _____    ______ ____
ROOT
ATOM      1  C   UNL     1       2.953   3.993  19.458  0.00  0.00    +0.000 C 
ATOM      2  C   UNL     1       2.481   3.721  17.996  0.00  0.00    +0.000 C 
ATOM      3  C   UNL     1       2.282   2.205  17.848  0.00  0.00    +0.000 C 
ATOM      4  C   UNL     1       3.508   1.522  18.456  0.00  0.00    +0.000 C 
ATOM      5  P   UNL     1       4.143   2.663  19.686  0.00  0.00    +0.000 P 
ATOM      6  O   UNL     1       4.239   2.169  21.102  0.00  0.00    +0.000 OA
ENDROOT
BRANCH   1   7
ATOM      7  C   UNL     1       1.736   3.891  20.363  0.00  0.00    +0.000 C 
ATOM      8  O   UNL     1       0.940   4.820  20.487  0.00  0.00    +0.000 OA
BRANCH   7   9
ATOM      9  O   UNL     1       1.557   2.743  21.036  0.00  0.00    +0.000 OA
ATOM     10  H   UNL     1       1.063   2.004  20.598  0.00  0.00    +0.000 HD
ENDBRANCH   7   9
ENDBRANCH   1   7
BRANCH   5  11
ATOM     11  O   UNL     1       5.519   3.175  19.040  0.00  0.00    +0.000 OA
ATOM     12  H   UNL     1       5.485   3.511  18.122  0.00  0.00    +0.000 HD
ENDBRANCH   5  11
BRANCH   1  13
ATOM     13  C   UNL     1       3.551   5.412  19.568  0.00  0.00    +0.000 C 
BRANCH  13  14
ATOM     14  C   UNL     1       3.520   6.217  18.261  0.00  0.00    +0.000 C 
BRANCH  14  15
ATOM     15  C   UNL     1       4.933   6.402  17.689  0.00  0.00    +0.000 C 
BRANCH  15  16
ATOM     16  C   UNL     1       5.036   5.855  16.260  0.00  0.00    +0.000 C 
BRANCH  16  17
ATOM     17  C   UNL     1       6.222   4.913  16.043  0.00  0.00    +0.000 C 
BRANCH  17  18
ATOM     18  N   UNL     1       5.834   3.509  16.146  0.00  0.00    +0.000 NA
ATOM     19  H   UNL     1       5.575   3.300  17.110  0.00  0.00    +0.000 HD
ATOM     20  H   UNL     1       6.634   2.918  15.932  0.00  0.00    +0.000 HD
ENDBRANCH  17  18
ENDBRANCH  16  17
ENDBRANCH  15  16
ENDBRANCH  14  15
ENDBRANCH  13  14
ENDBRANCH   1  13
TORSDOF 9
ENDMDL
MODEL 8
REMARK VINA RESULT:      -5.7      1.879      2.683
REMARK  Name = 
REMARK  9 active torsions:
REMARK  status: ('A' for Active; 'I' for Inactive)
REMARK    1  A    between atoms: N_1  and  C_2
REMARK    2  A    between atoms: C_2  and  C_3
REMARK    3  A    between atoms: C_3  and  C_4
REMARK    4  A    between atoms: C_4  and  C_5
REMARK    5  A    between atoms: C_5  and  C_6
REMARK    6  A    between atoms: C_6  and  C_7
REMARK    7  A    between atoms: C_7  and  C_8
REMARK    8  A    between atoms: C_8  and  O_10
REMARK    9  A    between atoms: P_14  and  O_16
REMARK                            x       y       z     vdW  Elec       q    Type
REMARK                         _______ _______ _______ _____ _____    ______ ____
ROOT
ATOM      1  C   UNL     1       3.627   4.418  17.828  0.00  0.00    +0.000 C 
ATOM      2  C   UNL     1       2.076   4.311  17.708  0.00  0.00    +0.000 C 
ATOM      3  C   UNL     1       1.527   3.946  19.095  0.00  0.00    +0.000 C 
ATOM      4  C   UNL     1       2.389   2.806  19.641  0.00  0.00    +0.000 C 
ATOM      5  P   UNL     1       3.990   2.983  18.851  0.00  0.00    +0.000 P 
ATOM      6  O   UNL     1       5.185   3.160  19.746  0.00  0.00    +0.000 OA
ENDROOT
BRANCH   1   7
ATOM      7  C   UNL     1       3.949   5.745  18.494  0.00  0.00    +0.000 C 
ATOM      8  O   UNL     1       3.880   6.811  17.885  0.00  0.00    +0.000 OA
BRANCH   7   9
ATOM      9  O   UNL     1       4.323   5.719  19.784  0.00  0.00    +0.000 OA
ATOM     10  H   UNL     1       3.744   5.255  20.440  0.00  0.00    +0.000 HD
ENDBRANCH   7   9
ENDBRANCH   1   7
BRANCH   5  11
ATOM     11  O   UNL     1       4.053   1.726  17.858  0.00  0.00    +0.000 OA
ATOM     12  H   UNL     1       4.231   0.850  18.255  0.00  0.00    +0.000 HD
ENDBRANCH   5  11
BRANCH   1  13
ATOM     13  C   UNL     1       4.273   4.382  16.426  0.00  0.00    +0.000 C 
BRANCH  13  14
ATOM     14  C   UNL     1       5.686   3.783  16.394  0.00  0.00    +0.000 C 
BRANCH  14  15
ATOM     15  C   UNL     1       6.756   4.879  16.493  0.00  0.00    +0.000 C 
BRANCH  15  16
ATOM     16  C   UNL     1       7.647   4.683  17.726  0.00  0.00    +0.000 C 
BRANCH  16  17
ATOM     17  C   UNL     1       7.645   5.876  18.684  0.00  0.00    +0.000 C 
BRANCH  17  18
ATOM     18  N   UNL     1       7.548   5.460  20.081  0.00  0.00    +0.000 NA
ATOM     19  H   UNL     1       8.016   6.148  20.672  0.00  0.00    +0.000 HD
ATOM     20  H   UNL     1       8.050   4.585  20.211  0.00  0.00    +0.000 HD
ENDBRANCH  17  18
ENDBRANCH  16  17
ENDBRANCH  15  16
ENDBRANCH  14  15
ENDBRANCH  13  14
ENDBRANCH   1  13
TORSDOF 9
ENDMDL
MODEL 9
REMARK VINA RESULT:      -5.7      0.945      1.118
REMARK  Name = 
REMARK  9 active torsions:
REMARK  status: ('A' for Active; 'I' for Inactive)
REMARK    1  A    between atoms: N_1  and  C_2
REMARK    2  A    between atoms: C_2  and  C_3
REMARK    3  A    between atoms: C_3  and  C_4
REMARK    4  A    between atoms: C_4  and  C_5
REMARK    5  A    between atoms: C_5  and  C_6
REMARK    6  A    between atoms: C_6  and  C_7
REMARK    7  A    between atoms: C_7  and  C_8
REMARK    8  A    between atoms: C_8  and  O_10
REMARK    9  A    between atoms: P_14  and  O_16
REMARK                            x       y       z     vdW  Elec       q    Type
REMARK                         _______ _______ _______ _____ _____    ______ ____
ROOT
ATOM      1  C   UNL     1       3.144   4.153  19.071  0.00  0.00    +0.000 C 
ATOM      2  C   UNL     1       2.343   4.956  20.143  0.00  0.00    +0.000 C 
ATOM      3  C   UNL     1       2.111   4.024  21.341  0.00  0.00    +0.000 C 
ATOM      4  C   UNL     1       1.627   2.682  20.789  0.00  0.00    +0.000 C 
ATOM      5  P   UNL     1       2.297   2.567  19.129  0.00  0.00    +0.000 P 
ATOM      6  O   UNL     1       3.183   1.392  18.822  0.00  0.00    +0.000 OA
ENDROOT
BRANCH   1   7
ATOM      7  C   UNL     1       4.593   4.094  19.525  0.00  0.00    +0.000 C 
ATOM      8  O   UNL     1       5.233   5.110  19.787  0.00  0.00    +0.000 OA
BRANCH   7   9
ATOM      9  O   UNL     1       5.163   2.882  19.626  0.00  0.00    +0.000 OA
ATOM     10  H   UNL     1       5.344   2.369  18.799  0.00  0.00    +0.000 HD
ENDBRANCH   7   9
ENDBRANCH   1   7
BRANCH   5  11
ATOM     11  O   UNL     1       1.001   2.714  18.196  0.00  0.00    +0.000 OA
ATOM     12  H   UNL     1       1.065   2.368  17.283  0.00  0.00    +0.000 HD
ENDBRANCH   5  11
BRANCH   1  13
ATOM     13  C   UNL     1       3.067   4.868  17.705  0.00  0.00    +0.000 C 
BRANCH  13  14
ATOM     14  C   UNL     1       3.851   4.175  16.581  0.00  0.00    +0.000 C 
BRANCH  14  15
ATOM     15  C   UNL     1       5.007   5.056  16.086  0.00  0.00    +0.000 C 
BRANCH  15  16
ATOM     16  C   UNL     1       6.269   4.228  15.818  0.00  0.00    +0.000 C 
BRANCH  16  17
ATOM     17  C   UNL     1       7.506   4.727  16.567  0.00  0.00    +0.000 C 
BRANCH  17  18
ATOM     18  N   UNL     1       7.542   4.251  17.947  0.00  0.00    +0.000 NA
ATOM     19  H   UNL     1       6.994   4.880  18.536  0.00  0.00    +0.000 HD
ATOM     20  H   UNL     1       8.496   4.293  18.297  0.00  0.00    +0.000 HD
ENDBRANCH  17  18
ENDBRANCH  16  17
ENDBRANCH  15  16
ENDBRANCH  14  15
ENDBRANCH  13  14
ENDBRANCH   1  13
TORSDOF 9
ENDMDL
