MODEL 1
REMARK VINA RESULT:      -8.3      0.000      0.000
REMARK  Name = 
REMARK  17 active torsions:
REMARK  status: ('A' for Active; 'I' for Inactive)
REMARK    1  A    between atoms: C_1  and  C_2
REMARK    2  A    between atoms: C_2  and  C_4
REMARK    3  A    between atoms: C_5  and  C_6
REMARK    4  A    between atoms: C_6  and  C_7
REMARK    5  A    between atoms: C_6  and  N_15
REMARK    6  A    between atoms: C_7  and  C_8
REMARK    7  A    between atoms: C_8  and  C_9
REMARK    8  A    between atoms: C_16  and  C_18
REMARK    9  A    between atoms: C_18  and  C_19
REMARK   10  A    between atoms: C_18  and  N_23
REMARK   11  A    between atoms: C_19  and  C_20
REMARK   12  A    between atoms: C_20  and  C_21
REMARK   13  A    between atoms: C_20  and  C_22
REMARK   14  A    between atoms: C_24  and  O_26
REMARK   15  A    between atoms: O_26  and  C_27
REMARK   16  A    between atoms: C_27  and  C_28
REMARK   17  A    between atoms: C_31  and  N_32
REMARK                            x       y       z     vdW  Elec       q    Type
REMARK                         _______ _______ _______ _____ _____    ______ ____
ROOT
ATOM      1  C   UNL     1       5.087   6.200  16.718  0.00  0.00    +0.000 C 
ENDROOT
BRANCH   1   3
ATOM      2  N   UNL     1       3.370   6.778  18.437  0.00  0.00    +0.000 N 
ATOM      3  C   UNL     1       4.509   6.051  18.154  0.00  0.00    +0.000 C 
ATOM      4  O   UNL     1       4.997   5.274  18.971  0.00  0.00    +0.000 OA
ATOM      5  H   UNL     1       2.984   7.401  17.746  0.00  0.00    +0.000 HD
BRANCH   2   6
ATOM      6  C   UNL     1       2.710   6.707  19.727  0.00  0.00    +0.000 C 
BRANCH   6   8
ATOM      7  C   UNL     1       2.134   4.494  20.758  0.00  0.00    +0.000 C 
ATOM      8  C   UNL     1       2.019   5.373  19.752  0.00  0.00    +0.000 C 
BRANCH   7  10
ATOM      9  C   UNL     1       0.815   2.806  19.390  0.00  0.00    +0.000 C 
ATOM     10  C   UNL     1       1.362   3.221  20.727  0.00  0.00    +0.000 C 
ATOM     11  O   UNL     1       1.193   2.547  21.740  0.00  0.00    +0.000 OA
ENDBRANCH   7  10
ENDBRANCH   6   8
BRANCH   6  12
ATOM     12  C   UNL     1       1.716   7.867  19.908  0.00  0.00    +0.000 C 
BRANCH  12  13
ATOM     13  C   UNL     1       1.071   7.865  21.301  0.00  0.00    +0.000 C 
BRANCH  13  14
ATOM     14  C   UNL     1       0.298   9.131  21.577  0.00  0.00    +0.000 A 
ATOM     15  C   UNL     1      -0.233   9.373  22.852  0.00  0.00    +0.000 A 
ATOM     16  C   UNL     1      -0.940  10.547  23.115  0.00  0.00    +0.000 A 
ATOM     17  C   UNL     1      -1.124  11.488  22.103  0.00  0.00    +0.000 A 
ATOM     18  C   UNL     1      -0.609  11.253  20.829  0.00  0.00    +0.000 A 
ATOM     19  C   UNL     1       0.097  10.078  20.566  0.00  0.00    +0.000 A 
ENDBRANCH  13  14
ENDBRANCH  12  13
ENDBRANCH   6  12
ENDBRANCH   2   6
ENDBRANCH   1   3
BRANCH   1  20
ATOM     20  N   UNL     1       6.037   7.305  16.653  0.00  0.00    +0.000 N 
ATOM     21  C   UNL     1       7.228   7.226  17.311  0.00  0.00    +0.000 C 
ATOM     22  O   UNL     1       7.648   6.227  17.875  0.00  0.00    +0.000 OA
ATOM     23  H   UNL     1       5.769   8.218  16.309  0.00  0.00    +0.000 HD
BRANCH  21  24
ATOM     24  O   UNL     1       7.846   8.431  17.308  0.00  0.00    +0.000 OA
BRANCH  24  25
ATOM     25  C   UNL     1       8.500   8.770  18.536  0.00  0.00    +0.000 C 
BRANCH  25  26
ATOM     26  C   UNL     1       8.887  10.227  18.496  0.00  0.00    +0.000 A 
ATOM     27  C   UNL     1       8.227  11.120  17.642  0.00  0.00    +0.000 A 
ATOM     28  C   UNL     1       8.586  12.470  17.616  0.00  0.00    +0.000 A 
ATOM     29  C   UNL     1       9.617  12.926  18.447  0.00  0.00    +0.000 A 
ATOM     30  C   UNL     1      10.294  12.042  19.296  0.00  0.00    +0.000 A 
ATOM     31  C   UNL     1       9.929  10.694  19.315  0.00  0.00    +0.000 A 
BRANCH  29  32
ATOM     32  N   UNL     1       9.992  14.345  18.428  0.00  0.00    +0.000 N 
ATOM     33  O   UNL     1      11.143  14.632  18.068  0.00  0.00    +0.000 OA
ATOM     34  O   UNL     1       9.137  15.173  18.771  0.00  0.00    +0.000 OA
ENDBRANCH  29  32
ENDBRANCH  25  26
ENDBRANCH  24  25
ENDBRANCH  21  24
ENDBRANCH   1  20
BRANCH   1  35
ATOM     35  C   UNL     1       5.684   4.908  16.129  0.00  0.00    +0.000 C 
BRANCH  35  36
ATOM     36  C   UNL     1       5.980   4.987  14.615  0.00  0.00    +0.000 C 
ATOM     37  C   UNL     1       7.480   5.020  14.320  0.00  0.00    +0.000 C 
ATOM     38  C   UNL     1       5.333   3.809  13.884  0.00  0.00    +0.000 C 
ENDBRANCH  35  36
ENDBRANCH   1  35
TORSDOF 14
ENDMDL
MODEL 2
REMARK VINA RESULT:      -8.3      3.369      9.269
REMARK  Name = 
REMARK  17 active torsions:
REMARK  status: ('A' for Active; 'I' for Inactive)
REMARK    1  A    between atoms: C_1  and  C_2
REMARK    2  A    between atoms: C_2  and  C_4
REMARK    3  A    between atoms: C_5  and  C_6
REMARK    4  A    between atoms: C_6  and  C_7
REMARK    5  A    between atoms: C_6  and  N_15
REMARK    6  A    between atoms: C_7  and  C_8
REMARK    7  A    between atoms: C_8  and  C_9
REMARK    8  A    between atoms: C_16  and  C_18
REMARK    9  A    between atoms: C_18  and  C_19
REMARK   10  A    between atoms: C_18  and  N_23
REMARK   11  A    between atoms: C_19  and  C_20
REMARK   12  A    between atoms: C_20  and  C_21
REMARK   13  A    between atoms: C_20  and  C_22
REMARK   14  A    between atoms: C_24  and  O_26
REMARK   15  A    between atoms: O_26  and  C_27
REMARK   16  A    between atoms: C_27  and  C_28
REMARK   17  A    between atoms: C_31  and  N_32
REMARK                            x       y       z     vdW  Elec       q    Type
REMARK                         _______ _______ _______ _____ _____    ______ ____
ROOT
ATOM      1  C   UNL     1       3.001   5.053  19.271  0.00  0.00    +0.000 C 
ENDROOT
BRANCH   1   3
ATOM      2  N   UNL     1       5.033   5.386  17.859  0.00  0.00    +0.000 N 
ATOM      3  C   UNL     1       4.546   5.144  19.128  0.00  0.00    +0.000 C 
ATOM      4  O   UNL     1       5.292   5.076  20.102  0.00  0.00    +0.000 OA
ATOM      5  H   UNL     1       4.400   5.447  17.078  0.00  0.00    +0.000 HD
BRANCH   2   6
ATOM      6  C   UNL     1       6.452   5.526  17.591  0.00  0.00    +0.000 C 
BRANCH   6   8
ATOM      7  C   UNL     1       7.867   7.546  18.047  0.00  0.00    +0.000 C 
ATOM      8  C   UNL     1       6.721   7.003  17.609  0.00  0.00    +0.000 C 
BRANCH   7  10
ATOM      9  C   UNL     1       9.093   9.602  18.903  0.00  0.00    +0.000 C 
ATOM     10  C   UNL     1       8.070   9.020  17.969  0.00  0.00    +0.000 C 
ATOM     11  O   UNL     1       7.440   9.713  17.175  0.00  0.00    +0.000 OA
ENDBRANCH   7  10
ENDBRANCH   6   8
BRANCH   6  12
ATOM     12  C   UNL     1       6.828   4.894  16.240  0.00  0.00    +0.000 C 
BRANCH  12  13
ATOM     13  C   UNL     1       5.594   4.570  15.387  0.00  0.00    +0.000 C 
BRANCH  13  14
ATOM     14  C   UNL     1       5.953   4.234  13.961  0.00  0.00    +0.000 A 
ATOM     15  C   UNL     1       7.152   4.701  13.404  0.00  0.00    +0.000 A 
ATOM     16  C   UNL     1       7.492   4.383  12.088  0.00  0.00    +0.000 A 
ATOM     17  C   UNL     1       6.635   3.599  11.318  0.00  0.00    +0.000 A 
ATOM     18  C   UNL     1       5.435   3.139  11.860  0.00  0.00    +0.000 A 
ATOM     19  C   UNL     1       5.094   3.456  13.175  0.00  0.00    +0.000 A 
ENDBRANCH  13  14
ENDBRANCH  12  13
ENDBRANCH   6  12
ENDBRANCH   2   6
ENDBRANCH   1   3
BRANCH   1  20
ATOM     20  N   UNL     1       2.459   6.277  19.848  0.00  0.00    +0.000 N 
ATOM     21  C   UNL     1       2.369   7.410  19.096  0.00  0.00    +0.000 C 
ATOM     22  O   UNL     1       2.594   7.470  17.896  0.00  0.00    +0.000 OA
ATOM     23  H   UNL     1       2.335   6.386  20.847  0.00  0.00    +0.000 HD
BRANCH  21  24
ATOM     24  O   UNL     1       2.061   8.471  19.879  0.00  0.00    +0.000 OA
BRANCH  24  25
ATOM     25  C   UNL     1       1.456   8.132  21.132  0.00  0.00    +0.000 C 
BRANCH  25  26
ATOM     26  C   UNL     1       0.571   9.272  21.569  0.00  0.00    +0.000 A 
ATOM     27  C   UNL     1      -0.066   9.247  22.817  0.00  0.00    +0.000 A 
ATOM     28  C   UNL     1      -0.879  10.311  23.218  0.00  0.00    +0.000 A 
ATOM     29  C   UNL     1      -1.061  11.402  22.359  0.00  0.00    +0.000 A 
ATOM     30  C   UNL     1      -0.442  11.433  21.103  0.00  0.00    +0.000 A 
ATOM     31  C   UNL     1       0.369  10.366  20.711  0.00  0.00    +0.000 A 
BRANCH  29  32
ATOM     32  N   UNL     1      -1.908  12.524  22.779  0.00  0.00    +0.000 N 
ATOM     33  O   UNL     1      -2.936  12.262  23.420  0.00  0.00    +0.000 OA
ATOM     34  O   UNL     1      -1.546  13.668  22.471  0.00  0.00    +0.000 OA
ENDBRANCH  29  32
ENDBRANCH  25  26
ENDBRANCH  24  25
ENDBRANCH  21  24
ENDBRANCH   1  20
BRANCH   1  35
ATOM     35  C   UNL     1       2.258   4.663  17.978  0.00  0.00    +0.000 C 
BRANCH  35  36
ATOM     36  C   UNL     1       1.627   3.254  18.017  0.00  0.00    +0.000 C 
ATOM     37  C   UNL     1       2.645   2.156  17.704  0.00  0.00    +0.000 C 
ATOM     38  C   UNL     1       0.986   2.995  19.381  0.00  0.00    +0.000 C 
ENDBRANCH  35  36
ENDBRANCH   1  35
TORSDOF 14
ENDMDL
MODEL 3
REMARK VINA RESULT:      -8.2      3.754      8.608
REMARK  Name = 
REMARK  17 active torsions:
REMARK  status: ('A' for Active; 'I' for Inactive)
REMARK    1  A    between atoms: C_1  and  C_2
REMARK    2  A    between atoms: C_2  and  C_4
REMARK    3  A    between atoms: C_5  and  C_6
REMARK    4  A    between atoms: C_6  and  C_7
REMARK    5  A    between atoms: C_6  and  N_15
REMARK    6  A    between atoms: C_7  and  C_8
REMARK    7  A    between atoms: C_8  and  C_9
REMARK    8  A    between atoms: C_16  and  C_18
REMARK    9  A    between atoms: C_18  and  C_19
REMARK   10  A    between atoms: C_18  and  N_23
REMARK   11  A    between atoms: C_19  and  C_20
REMARK   12  A    between atoms: C_20  and  C_21
REMARK   13  A    between atoms: C_20  and  C_22
REMARK   14  A    between atoms: C_24  and  O_26
REMARK   15  A    between atoms: O_26  and  C_27
REMARK   16  A    between atoms: C_27  and  C_28
REMARK   17  A    between atoms: C_31  and  N_32
REMARK                            x       y       z     vdW  Elec       q    Type
REMARK                         _______ _______ _______ _____ _____    ______ ____
ROOT
ATOM      1  C   UNL     1       3.021   4.765  18.119  0.00  0.00    +0.000 C 
ENDROOT
BRANCH   1   3
ATOM      2  N   UNL     1       4.591   4.427  16.207  0.00  0.00    +0.000 N 
ATOM      3  C   UNL     1       4.009   5.339  17.064  0.00  0.00    +0.000 C 
ATOM      4  O   UNL     1       4.207   6.546  16.952  0.00  0.00    +0.000 OA
ATOM      5  H   UNL     1       4.405   3.443  16.314  0.00  0.00    +0.000 HD
BRANCH   2   6
ATOM      6  C   UNL     1       5.506   4.831  15.156  0.00  0.00    +0.000 C 
BRANCH   6   8
ATOM      7  C   UNL     1       5.950   3.621  13.004  0.00  0.00    +0.000 C 
ATOM      8  C   UNL     1       5.092   4.052  13.941  0.00  0.00    +0.000 C 
BRANCH   7  10
ATOM      9  C   UNL     1       4.160   3.236  11.240  0.00  0.00    +0.000 C 
ATOM     10  C   UNL     1       5.456   2.800  11.864  0.00  0.00    +0.000 C 
ATOM     11  O   UNL     1       6.085   1.828  11.454  0.00  0.00    +0.000 OA
ENDBRANCH   7  10
ENDBRANCH   6   8
BRANCH   6  12
ATOM     12  C   UNL     1       6.965   4.543  15.548  0.00  0.00    +0.000 C 
BRANCH  12  13
ATOM     13  C   UNL     1       7.156   4.480  17.070  0.00  0.00    +0.000 C 
BRANCH  13  14
ATOM     14  C   UNL     1       7.577   5.806  17.652  0.00  0.00    +0.000 A 
ATOM     15  C   UNL     1       7.454   6.982  16.897  0.00  0.00    +0.000 A 
ATOM     16  C   UNL     1       7.833   8.212  17.436  0.00  0.00    +0.000 A 
ATOM     17  C   UNL     1       8.340   8.277  18.733  0.00  0.00    +0.000 A 
ATOM     18  C   UNL     1       8.476   7.112  19.488  0.00  0.00    +0.000 A 
ATOM     19  C   UNL     1       8.098   5.881  18.949  0.00  0.00    +0.000 A 
ENDBRANCH  13  14
ENDBRANCH  12  13
ENDBRANCH   6  12
ENDBRANCH   2   6
ENDBRANCH   1   3
BRANCH   1  20
ATOM     20  N   UNL     1       2.344   5.839  18.837  0.00  0.00    +0.000 N 
ATOM     21  C   UNL     1       2.108   5.729  20.175  0.00  0.00    +0.000 C 
ATOM     22  O   UNL     1       2.536   4.832  20.886  0.00  0.00    +0.000 OA
ATOM     23  H   UNL     1       1.855   6.579  18.351  0.00  0.00    +0.000 HD
BRANCH  21  24
ATOM     24  O   UNL     1       1.278   6.715  20.588  0.00  0.00    +0.000 OA
BRANCH  24  25
ATOM     25  C   UNL     1       1.935   7.834  21.194  0.00  0.00    +0.000 C 
BRANCH  25  26
ATOM     26  C   UNL     1       0.925   8.931  21.416  0.00  0.00    +0.000 A 
ATOM     27  C   UNL     1       0.408   9.659  20.335  0.00  0.00    +0.000 A 
ATOM     28  C   UNL     1      -0.533  10.669  20.548  0.00  0.00    +0.000 A 
ATOM     29  C   UNL     1      -0.954  10.956  21.853  0.00  0.00    +0.000 A 
ATOM     30  C   UNL     1      -0.436  10.246  22.943  0.00  0.00    +0.000 A 
ATOM     31  C   UNL     1       0.505   9.238  22.721  0.00  0.00    +0.000 A 
BRANCH  29  32
ATOM     32  N   UNL     1      -1.949  12.011  22.080  0.00  0.00    +0.000 N 
ATOM     33  O   UNL     1      -2.204  12.320  23.254  0.00  0.00    +0.000 OA
ATOM     34  O   UNL     1      -2.474  12.533  21.088  0.00  0.00    +0.000 OA
ENDBRANCH  29  32
ENDBRANCH  25  26
ENDBRANCH  24  25
ENDBRANCH  21  24
ENDBRANCH   1  20
BRANCH   1  35
ATOM     35  C   UNL     1       2.016   3.737  17.565  0.00  0.00    +0.000 C 
BRANCH  35  36
ATOM     36  C   UNL     1       2.144   2.332  18.194  0.00  0.00    +0.000 C 
ATOM     37  C   UNL     1       3.510   2.113  18.845  0.00  0.00    +0.000 C 
ATOM     38  C   UNL     1       1.035   2.107  19.223  0.00  0.00    +0.000 C 
ENDBRANCH  35  36
ENDBRANCH   1  35
TORSDOF 14
ENDMDL
MODEL 4
REMARK VINA RESULT:      -8.2      1.412      1.740
REMARK  Name = 
REMARK  17 active torsions:
REMARK  status: ('A' for Active; 'I' for Inactive)
REMARK    1  A    between atoms: C_1  and  C_2
REMARK    2  A    between atoms: C_2  and  C_4
REMARK    3  A    between atoms: C_5  and  C_6
REMARK    4  A    between atoms: C_6  and  C_7
REMARK    5  A    between atoms: C_6  and  N_15
REMARK    6  A    between atoms: C_7  and  C_8
REMARK    7  A    between atoms: C_8  and  C_9
REMARK    8  A    between atoms: C_16  and  C_18
REMARK    9  A    between atoms: C_18  and  C_19
REMARK   10  A    between atoms: C_18  and  N_23
REMARK   11  A    between atoms: C_19  and  C_20
REMARK   12  A    between atoms: C_20  and  C_21
REMARK   13  A    between atoms: C_20  and  C_22
REMARK   14  A    between atoms: C_24  and  O_26
REMARK   15  A    between atoms: O_26  and  C_27
REMARK   16  A    between atoms: C_27  and  C_28
REMARK   17  A    between atoms: C_31  and  N_32
REMARK                            x       y       z     vdW  Elec       q    Type
REMARK                         _______ _______ _______ _____ _____    ______ ____
ROOT
ATOM      1  C   UNL     1       5.967   6.736  16.780  0.00  0.00    +0.000 C 
ENDROOT
BRANCH   1   3
ATOM      2  N   UNL     1       3.960   6.818  18.263  0.00  0.00    +0.000 N 
ATOM      3  C   UNL     1       5.251   6.354  18.107  0.00  0.00    +0.000 C 
ATOM      4  O   UNL     1       5.778   5.621  18.939  0.00  0.00    +0.000 OA
ATOM      5  H   UNL     1       3.547   7.410  17.562  0.00  0.00    +0.000 HD
BRANCH   2   6
ATOM      6  C   UNL     1       3.167   6.509  19.439  0.00  0.00    +0.000 C 
BRANCH   6   8
ATOM      7  C   UNL     1       2.034   4.655  18.185  0.00  0.00    +0.000 C 
ATOM      8  C   UNL     1       2.714   5.089  19.256  0.00  0.00    +0.000 C 
BRANCH   7  10
ATOM      9  C   UNL     1       0.654   2.693  19.025  0.00  0.00    +0.000 C 
ATOM     10  C   UNL     1       1.681   3.214  18.060  0.00  0.00    +0.000 C 
ATOM     11  O   UNL     1       2.197   2.499  17.205  0.00  0.00    +0.000 OA
ENDBRANCH   7  10
ENDBRANCH   6   8
BRANCH   6  12
ATOM     12  C   UNL     1       1.977   7.474  19.576  0.00  0.00    +0.000 C 
BRANCH  12  13
ATOM     13  C   UNL     1       1.493   7.595  21.028  0.00  0.00    +0.000 C 
BRANCH  13  14
ATOM     14  C   UNL     1       0.710   8.861  21.268  0.00  0.00    +0.000 A 
ATOM     15  C   UNL     1       0.544   9.799  20.238  0.00  0.00    +0.000 A 
ATOM     16  C   UNL     1      -0.189  10.966  20.454  0.00  0.00    +0.000 A 
ATOM     17  C   UNL     1      -0.760  11.208  21.702  0.00  0.00    +0.000 A 
ATOM     18  C   UNL     1      -0.592  10.288  22.736  0.00  0.00    +0.000 A 
ATOM     19  C   UNL     1       0.141   9.120  22.521  0.00  0.00    +0.000 A 
ENDBRANCH  13  14
ENDBRANCH  12  13
ENDBRANCH   6  12
ENDBRANCH   2   6
ENDBRANCH   1   3
BRANCH   1  20
ATOM     20  N   UNL     1       6.754   7.952  16.945  0.00  0.00    +0.000 N 
ATOM     21  C   UNL     1       7.787   7.985  17.834  0.00  0.00    +0.000 C 
ATOM     22  O   UNL     1       8.214   7.015  18.444  0.00  0.00    +0.000 OA
ATOM     23  H   UNL     1       6.442   8.843  16.581  0.00  0.00    +0.000 HD
BRANCH  21  24
ATOM     24  O   UNL     1       8.227   9.255  17.995  0.00  0.00    +0.000 OA
BRANCH  24  25
ATOM     25  C   UNL     1       8.969   9.483  19.199  0.00  0.00    +0.000 C 
BRANCH  25  26
ATOM     26  C   UNL     1       9.746  10.767  19.056  0.00  0.00    +0.000 A 
ATOM     27  C   UNL     1       9.897  11.379  17.804  0.00  0.00    +0.000 A 
ATOM     28  C   UNL     1      10.612  12.572  17.682  0.00  0.00    +0.000 A 
ATOM     29  C   UNL     1      11.186  13.153  18.820  0.00  0.00    +0.000 A 
ATOM     30  C   UNL     1      11.055  12.545  20.075  0.00  0.00    +0.000 A 
ATOM     31  C   UNL     1      10.338  11.353  20.188  0.00  0.00    +0.000 A 
BRANCH  29  32
ATOM     32  N   UNL     1      11.932  14.411  18.697  0.00  0.00    +0.000 N 
ATOM     33  O   UNL     1      12.144  14.846  17.555  0.00  0.00    +0.000 OA
ATOM     34  O   UNL     1      12.305  14.966  19.739  0.00  0.00    +0.000 OA
ENDBRANCH  29  32
ENDBRANCH  25  26
ENDBRANCH  24  25
ENDBRANCH  21  24
ENDBRANCH   1  20
BRANCH   1  35
ATOM     35  C   UNL     1       6.803   5.603  16.153  0.00  0.00    +0.000 C 
BRANCH  35  36
ATOM     36  C   UNL     1       6.012   4.705  15.177  0.00  0.00    +0.000 C 
ATOM     37  C   UNL     1       6.839   4.317  13.950  0.00  0.00    +0.000 C 
ATOM     38  C   UNL     1       5.519   3.446  15.892  0.00  0.00    +0.000 C 
ENDBRANCH  35  36
ENDBRANCH   1  35
TORSDOF 14
ENDMDL
MODEL 5
REMARK VINA RESULT:      -8.2      3.563      9.384
REMARK  Name = 
REMARK  17 active torsions:
REMARK  status: ('A' for Active; 'I' for Inactive)
REMARK    1  A    between atoms: C_1  and  C_2
REMARK    2  A    between atoms: C_2  and  C_4
REMARK    3  A    between atoms: C_5  and  C_6
REMARK    4  A    between atoms: C_6  and  C_7
REMARK    5  A    between atoms: C_6  and  N_15
REMARK    6  A    between atoms: C_7  and  C_8
REMARK    7  A    between atoms: C_8  and  C_9
REMARK    8  A    between atoms: C_16  and  C_18
REMARK    9  A    between atoms: C_18  and  C_19
REMARK   10  A    between atoms: C_18  and  N_23
REMARK   11  A    between atoms: C_19  and  C_20
REMARK   12  A    between atoms: C_20  and  C_21
REMARK   13  A    between atoms: C_20  and  C_22
REMARK   14  A    between atoms: C_24  and  O_26
REMARK   15  A    between atoms: O_26  and  C_27
REMARK   16  A    between atoms: C_27  and  C_28
REMARK   17  A    between atoms: C_31  and  N_32
REMARK                            x       y       z     vdW  Elec       q    Type
REMARK                         _______ _______ _______ _____ _____    ______ ____
ROOT
ATOM      1  C   UNL     1       3.243   5.441  19.229  0.00  0.00    +0.000 C 
ENDROOT
BRANCH   1   3
ATOM      2  N   UNL     1       5.431   5.915  18.124  0.00  0.00    +0.000 N 
ATOM      3  C   UNL     1       4.774   5.199  19.104  0.00  0.00    +0.000 C 
ATOM      4  O   UNL     1       5.378   4.464  19.880  0.00  0.00    +0.000 OA
ATOM      5  H   UNL     1       4.913   6.519  17.506  0.00  0.00    +0.000 HD
BRANCH   2   6
ATOM      6  C   UNL     1       6.864   5.808  17.920  0.00  0.00    +0.000 C 
BRANCH   6   8
ATOM      7  C   UNL     1       8.125   7.863  18.610  0.00  0.00    +0.000 C 
ATOM      8  C   UNL     1       7.349   7.216  17.728  0.00  0.00    +0.000 C 
BRANCH   7  10
ATOM      9  C   UNL     1       9.215  10.000  19.452  0.00  0.00    +0.000 C 
ATOM     10  C   UNL     1       8.611   9.238  18.306  0.00  0.00    +0.000 C 
ATOM     11  O   UNL     1       8.530   9.713  17.176  0.00  0.00    +0.000 OA
ENDBRANCH   7  10
ENDBRANCH   6   8
BRANCH   6  12
ATOM     12  C   UNL     1       7.188   4.923  16.705  0.00  0.00    +0.000 C 
BRANCH  12  13
ATOM     13  C   UNL     1       5.965   4.704  15.804  0.00  0.00    +0.000 C 
BRANCH  13  14
ATOM     14  C   UNL     1       6.347   4.491  14.360  0.00  0.00    +0.000 A 
ATOM     15  C   UNL     1       7.409   5.211  13.794  0.00  0.00    +0.000 A 
ATOM     16  C   UNL     1       7.771   5.008  12.462  0.00  0.00    +0.000 A 
ATOM     17  C   UNL     1       7.073   4.087  11.683  0.00  0.00    +0.000 A 
ATOM     18  C   UNL     1       6.009   3.373  12.234  0.00  0.00    +0.000 A 
ATOM     19  C   UNL     1       5.645   3.576  13.566  0.00  0.00    +0.000 A 
ENDBRANCH  13  14
ENDBRANCH  12  13
ENDBRANCH   6  12
ENDBRANCH   2   6
ENDBRANCH   1   3
BRANCH   1  20
ATOM     20  N   UNL     1       2.820   6.546  18.376  0.00  0.00    +0.000 N 
ATOM     21  C   UNL     1       2.180   7.623  18.915  0.00  0.00    +0.000 C 
ATOM     22  O   UNL     1       2.028   7.817  20.112  0.00  0.00    +0.000 OA
ATOM     23  H   UNL     1       2.794   6.462  17.368  0.00  0.00    +0.000 HD
BRANCH  21  24
ATOM     24  O   UNL     1       1.678   8.409  17.933  0.00  0.00    +0.000 OA
BRANCH  24  25
ATOM     25  C   UNL     1       1.823   9.816  18.161  0.00  0.00    +0.000 C 
BRANCH  25  26
ATOM     26  C   UNL     1       0.466  10.405  18.448  0.00  0.00    +0.000 A 
ATOM     27  C   UNL     1      -0.678   9.919  17.800  0.00  0.00    +0.000 A 
ATOM     28  C   UNL     1      -1.934  10.466  18.077  0.00  0.00    +0.000 A 
ATOM     29  C   UNL     1      -2.043  11.511  19.003  0.00  0.00    +0.000 A 
ATOM     30  C   UNL     1      -0.906  12.016  19.647  0.00  0.00    +0.000 A 
ATOM     31  C   UNL     1       0.345  11.463  19.365  0.00  0.00    +0.000 A 
BRANCH  29  32
ATOM     32  N   UNL     1      -3.361  12.083  19.301  0.00  0.00    +0.000 N 
ATOM     33  O   UNL     1      -4.311  11.751  18.577  0.00  0.00    +0.000 OA
ATOM     34  O   UNL     1      -3.449  12.862  20.260  0.00  0.00    +0.000 OA
ENDBRANCH  29  32
ENDBRANCH  25  26
ENDBRANCH  24  25
ENDBRANCH  21  24
ENDBRANCH   1  20
BRANCH   1  35
ATOM     35  C   UNL     1       2.374   4.190  19.003  0.00  0.00    +0.000 C 
BRANCH  35  36
ATOM     36  C   UNL     1       2.767   2.984  19.885  0.00  0.00    +0.000 C 
ATOM     37  C   UNL     1       1.674   2.625  20.893  0.00  0.00    +0.000 C 
ATOM     38  C   UNL     1       3.089   1.769  19.014  0.00  0.00    +0.000 C 
ENDBRANCH  35  36
ENDBRANCH   1  35
TORSDOF 14
ENDMDL
MODEL 6
REMARK VINA RESULT:      -8.1      3.234      8.901
REMARK  Name = 
REMARK  17 active torsions:
REMARK  status: ('A' for Active; 'I' for Inactive)
REMARK    1  A    between atoms: C_1  and  C_2
REMARK    2  A    between atoms: C_2  and  C_4
REMARK    3  A    between atoms: C_5  and  C_6
REMARK    4  A    between atoms: C_6  and  C_7
REMARK    5  A    between atoms: C_6  and  N_15
REMARK    6  A    between atoms: C_7  and  C_8
REMARK    7  A    between atoms: C_8  and  C_9
REMARK    8  A    between atoms: C_16  and  C_18
REMARK    9  A    between atoms: C_18  and  C_19
REMARK   10  A    between atoms: C_18  and  N_23
REMARK   11  A    between atoms: C_19  and  C_20
REMARK   12  A    between atoms: C_20  and  C_21
REMARK   13  A    between atoms: C_20  and  C_22
REMARK   14  A    between atoms: C_24  and  O_26
REMARK   15  A    between atoms: O_26  and  C_27
REMARK   16  A    between atoms: C_27  and  C_28
REMARK   17  A    between atoms: C_31  and  N_32
REMARK                            x       y       z     vdW  Elec       q    Type
REMARK                         _______ _______ _______ _____ _____    ______ ____
ROOT
ATOM      1  C   UNL     1       3.423   4.744  19.090  0.00  0.00    +0.000 C 
ENDROOT
BRANCH   1   3
ATOM      2  N   UNL     1       5.698   5.372  18.276  0.00  0.00    +0.000 N 
ATOM      3  C   UNL     1       4.940   4.435  18.949  0.00  0.00    +0.000 C 
ATOM      4  O   UNL     1       5.451   3.447  19.471  0.00  0.00    +0.000 OA
ATOM      5  H   UNL     1       5.257   6.178  17.865  0.00  0.00    +0.000 HD
BRANCH   2   6
ATOM      6  C   UNL     1       7.131   5.223  18.100  0.00  0.00    +0.000 C 
BRANCH   6   8
ATOM      7  C   UNL     1       7.384   7.673  17.625  0.00  0.00    +0.000 C 
ATOM      8  C   UNL     1       7.709   6.588  18.342  0.00  0.00    +0.000 C 
BRANCH   7  10
ATOM      9  C   UNL     1       8.948   9.018  19.110  0.00  0.00    +0.000 C 
ATOM     10  C   UNL     1       7.960   9.000  17.977  0.00  0.00    +0.000 C 
ATOM     11  O   UNL     1       7.650  10.018  17.364  0.00  0.00    +0.000 OA
ENDBRANCH   7  10
ENDBRANCH   6   8
BRANCH   6  12
ATOM     12  C   UNL     1       7.469   4.702  16.693  0.00  0.00    +0.000 C 
BRANCH  12  13
ATOM     13  C   UNL     1       6.881   5.591  15.589  0.00  0.00    +0.000 C 
BRANCH  13  14
ATOM     14  C   UNL     1       6.688   4.844  14.292  0.00  0.00    +0.000 A 
ATOM     15  C   UNL     1       7.585   5.027  13.230  0.00  0.00    +0.000 A 
ATOM     16  C   UNL     1       7.416   4.330  12.033  0.00  0.00    +0.000 A 
ATOM     17  C   UNL     1       6.347   3.447  11.887  0.00  0.00    +0.000 A 
ATOM     18  C   UNL     1       5.443   3.267  12.934  0.00  0.00    +0.000 A 
ATOM     19  C   UNL     1       5.611   3.964  14.131  0.00  0.00    +0.000 A 
ENDBRANCH  13  14
ENDBRANCH  12  13
ENDBRANCH   6  12
ENDBRANCH   2   6
ENDBRANCH   1   3
BRANCH   1  20
ATOM     20  N   UNL     1       3.209   6.132  19.485  0.00  0.00    +0.000 N 
ATOM     21  C   UNL     1       2.168   6.461  20.301  0.00  0.00    +0.000 C 
ATOM     22  O   UNL     1       1.437   5.655  20.857  0.00  0.00    +0.000 OA
ATOM     23  H   UNL     1       3.676   6.897  19.016  0.00  0.00    +0.000 HD
BRANCH  21  24
ATOM     24  O   UNL     1       2.019   7.806  20.352  0.00  0.00    +0.000 OA
BRANCH  24  25
ATOM     25  C   UNL     1       0.992   8.260  21.241  0.00  0.00    +0.000 C 
BRANCH  25  26
ATOM     26  C   UNL     1       0.509   9.611  20.777  0.00  0.00    +0.000 A 
ATOM     27  C   UNL     1       0.096  10.581  21.700  0.00  0.00    +0.000 A 
ATOM     28  C   UNL     1      -0.343  11.832  21.263  0.00  0.00    +0.000 A 
ATOM     29  C   UNL     1      -0.377  12.111  19.890  0.00  0.00    +0.000 A 
ATOM     30  C   UNL     1       0.019  11.146  18.956  0.00  0.00    +0.000 A 
ATOM     31  C   UNL     1       0.458   9.898  19.402  0.00  0.00    +0.000 A 
BRANCH  29  32
ATOM     32  N   UNL     1      -0.831  13.427  19.427  0.00  0.00    +0.000 N 
ATOM     33  O   UNL     1      -1.561  14.085  20.183  0.00  0.00    +0.000 OA
ATOM     34  O   UNL     1      -0.458  13.807  18.309  0.00  0.00    +0.000 OA
ENDBRANCH  29  32
ENDBRANCH  25  26
ENDBRANCH  24  25
ENDBRANCH  21  24
ENDBRANCH   1  20
BRANCH   1  35
ATOM     35  C   UNL     1       2.575   4.372  17.859  0.00  0.00    +0.000 C 
BRANCH  35  36
ATOM     36  C   UNL     1       1.874   3.000  17.971  0.00  0.00    +0.000 C 
ATOM     37  C   UNL     1       2.859   1.836  17.847  0.00  0.00    +0.000 C 
ATOM     38  C   UNL     1       1.112   2.898  19.293  0.00  0.00    +0.000 C 
ENDBRANCH  35  36
ENDBRANCH   1  35
TORSDOF 14
ENDMDL
MODEL 7
REMARK VINA RESULT:      -8.0      4.778      9.853
REMARK  Name = 
REMARK  17 active torsions:
REMARK  status: ('A' for Active; 'I' for Inactive)
REMARK    1  A    between atoms: C_1  and  C_2
REMARK    2  A    between atoms: C_2  and  C_4
REMARK    3  A    between atoms: C_5  and  C_6
REMARK    4  A    between atoms: C_6  and  C_7
REMARK    5  A    between atoms: C_6  and  N_15
REMARK    6  A    between atoms: C_7  and  C_8
REMARK    7  A    between atoms: C_8  and  C_9
REMARK    8  A    between atoms: C_16  and  C_18
REMARK    9  A    between atoms: C_18  and  C_19
REMARK   10  A    between atoms: C_18  and  N_23
REMARK   11  A    between atoms: C_19  and  C_20
REMARK   12  A    between atoms: C_20  and  C_21
REMARK   13  A    between atoms: C_20  and  C_22
REMARK   14  A    between atoms: C_24  and  O_26
REMARK   15  A    between atoms: O_26  and  C_27
REMARK   16  A    between atoms: C_27  and  C_28
REMARK   17  A    between atoms: C_31  and  N_32
REMARK                            x       y       z     vdW  Elec       q    Type
REMARK                         _______ _______ _______ _____ _____    ______ ____
ROOT
ATOM      1  C   UNL     1       1.095  10.387  19.647  0.00  0.00    +0.000 C 
ENDROOT
BRANCH   1   3
ATOM      2  N   UNL     1       1.981   8.136  19.031  0.00  0.00    +0.000 N 
ATOM      3  C   UNL     1       1.663   9.403  18.586  0.00  0.00    +0.000 C 
ATOM      4  O   UNL     1       1.757   9.712  17.401  0.00  0.00    +0.000 OA
ATOM      5  H   UNL     1       1.887   7.904  20.007  0.00  0.00    +0.000 HD
BRANCH   2   6
ATOM      6  C   UNL     1       2.490   7.110  18.140  0.00  0.00    +0.000 C 
BRANCH   6   8
ATOM      7  C   UNL     1       2.173   5.645  20.151  0.00  0.00    +0.000 C 
ATOM      8  C   UNL     1       2.194   5.804  18.820  0.00  0.00    +0.000 C 
BRANCH   7  10
ATOM      9  C   UNL     1       0.871   3.473  19.931  0.00  0.00    +0.000 C 
ATOM     10  C   UNL     1       1.807   4.326  20.739  0.00  0.00    +0.000 C 
ATOM     11  O   UNL     1       2.259   3.958  21.820  0.00  0.00    +0.000 OA
ENDBRANCH   7  10
ENDBRANCH   6   8
BRANCH   6  12
ATOM     12  C   UNL     1       3.995   7.291  17.883  0.00  0.00    +0.000 C 
BRANCH  12  13
ATOM     13  C   UNL     1       4.798   6.026  18.217  0.00  0.00    +0.000 C 
BRANCH  13  14
ATOM     14  C   UNL     1       5.556   5.496  17.026  0.00  0.00    +0.000 A 
ATOM     15  C   UNL     1       6.825   4.922  17.193  0.00  0.00    +0.000 A 
ATOM     16  C   UNL     1       7.525   4.421  16.094  0.00  0.00    +0.000 A 
ATOM     17  C   UNL     1       6.964   4.491  14.821  0.00  0.00    +0.000 A 
ATOM     18  C   UNL     1       5.707   5.069  14.643  0.00  0.00    +0.000 A 
ATOM     19  C   UNL     1       5.007   5.571  15.741  0.00  0.00    +0.000 A 
ENDBRANCH  13  14
ENDBRANCH  12  13
ENDBRANCH   6  12
ENDBRANCH   2   6
ENDBRANCH   1   3
BRANCH   1  20
ATOM     20  N   UNL     1      -0.223  10.872  19.255  0.00  0.00    +0.000 N 
ATOM     21  C   UNL     1      -0.389  12.167  18.864  0.00  0.00    +0.000 C 
ATOM     22  O   UNL     1       0.520  12.964  18.685  0.00  0.00    +0.000 OA
ATOM     23  H   UNL     1      -1.065  10.348  19.454  0.00  0.00    +0.000 HD
BRANCH  21  24
ATOM     24  O   UNL     1      -1.707  12.462  18.768  0.00  0.00    +0.000 OA
BRANCH  24  25
ATOM     25  C   UNL     1      -2.576  11.324  18.771  0.00  0.00    +0.000 C 
BRANCH  25  26
ATOM     26  C   UNL     1      -2.857  10.921  17.346  0.00  0.00    +0.000 A 
ATOM     27  C   UNL     1      -3.896  11.523  16.622  0.00  0.00    +0.000 A 
ATOM     28  C   UNL     1      -4.146  11.150  15.299  0.00  0.00    +0.000 A 
ATOM     29  C   UNL     1      -3.353  10.162  14.700  0.00  0.00    +0.000 A 
ATOM     30  C   UNL     1      -2.320   9.543  15.415  0.00  0.00    +0.000 A 
ATOM     31  C   UNL     1      -2.078   9.923  16.737  0.00  0.00    +0.000 A 
BRANCH  29  32
ATOM     32  N   UNL     1      -3.607   9.773  13.308  0.00  0.00    +0.000 N 
ATOM     33  O   UNL     1      -4.775   9.834  12.896  0.00  0.00    +0.000 OA
ATOM     34  O   UNL     1      -2.640   9.408  12.625  0.00  0.00    +0.000 OA
ENDBRANCH  29  32
ENDBRANCH  25  26
ENDBRANCH  24  25
ENDBRANCH  21  24
ENDBRANCH   1  20
BRANCH   1  35
ATOM     35  C   UNL     1       1.089   9.843  21.089  0.00  0.00    +0.000 C 
BRANCH  35  36
ATOM     36  C   UNL     1      -0.323   9.584  21.656  0.00  0.00    +0.000 C 
ATOM     37  C   UNL     1      -0.551   8.108  21.988  0.00  0.00    +0.000 C 
ATOM     38  C   UNL     1      -0.563  10.439  22.901  0.00  0.00    +0.000 C 
ENDBRANCH  35  36
ENDBRANCH   1  35
TORSDOF 14
ENDMDL
MODEL 8
REMARK VINA RESULT:      -8.0      3.566      9.366
REMARK  Name = 
REMARK  17 active torsions:
REMARK  status: ('A' for Active; 'I' for Inactive)
REMARK    1  A    between atoms: C_1  and  C_2
REMARK    2  A    between atoms: C_2  and  C_4
REMARK    3  A    between atoms: C_5  and  C_6
REMARK    4  A    between atoms: C_6  and  C_7
REMARK    5  A    between atoms: C_6  and  N_15
REMARK    6  A    between atoms: C_7  and  C_8
REMARK    7  A    between atoms: C_8  and  C_9
REMARK    8  A    between atoms: C_16  and  C_18
REMARK    9  A    between atoms: C_18  and  C_19
REMARK   10  A    between atoms: C_18  and  N_23
REMARK   11  A    between atoms: C_19  and  C_20
REMARK   12  A    between atoms: C_20  and  C_21
REMARK   13  A    between atoms: C_20  and  C_22
REMARK   14  A    between atoms: C_24  and  O_26
REMARK   15  A    between atoms: O_26  and  C_27
REMARK   16  A    between atoms: C_27  and  C_28
REMARK   17  A    between atoms: C_31  and  N_32
REMARK                            x       y       z     vdW  Elec       q    Type
REMARK                         _______ _______ _______ _____ _____    ______ ____
ROOT
ATOM      1  C   UNL     1       3.080   5.553  18.630  0.00  0.00    +0.000 C 
ENDROOT
BRANCH   1   3
ATOM      2  N   UNL     1       5.549   5.187  18.578  0.00  0.00    +0.000 N 
ATOM      3  C   UNL     1       4.456   5.721  17.926  0.00  0.00    +0.000 C 
ATOM      4  O   UNL     1       4.557   6.238  16.816  0.00  0.00    +0.000 OA
ATOM      5  H   UNL     1       5.439   4.760  19.483  0.00  0.00    +0.000 HD
BRANCH   2   6
ATOM      6  C   UNL     1       6.887   5.246  18.018  0.00  0.00    +0.000 C 
BRANCH   6   8
ATOM      7  C   UNL     1       8.000   7.446  18.475  0.00  0.00    +0.000 C 
ATOM      8  C   UNL     1       7.149   6.701  17.755  0.00  0.00    +0.000 C 
BRANCH   7  10
ATOM      9  C   UNL     1       9.181   9.637  18.992  0.00  0.00    +0.000 C 
ATOM     10  C   UNL     1       8.245   8.867  18.103  0.00  0.00    +0.000 C 
ATOM     11  O   UNL     1       7.717   9.372  17.116  0.00  0.00    +0.000 OA
ENDBRANCH   7  10
ENDBRANCH   6   8
BRANCH   6  12
ATOM     12  C   UNL     1       6.989   4.407  16.732  0.00  0.00    +0.000 C 
BRANCH  12  13
ATOM     13  C   UNL     1       7.326   5.264  15.505  0.00  0.00    +0.000 C 
BRANCH  13  14
ATOM     14  C   UNL     1       6.807   4.662  14.224  0.00  0.00    +0.000 A 
ATOM     15  C   UNL     1       7.584   4.702  13.056  0.00  0.00    +0.000 A 
ATOM     16  C   UNL     1       7.111   4.137  11.871  0.00  0.00    +0.000 A 
ATOM     17  C   UNL     1       5.857   3.529  11.843  0.00  0.00    +0.000 A 
ATOM     18  C   UNL     1       5.073   3.493  12.995  0.00  0.00    +0.000 A 
ATOM     19  C   UNL     1       5.544   4.059  14.180  0.00  0.00    +0.000 A 
ENDBRANCH  13  14
ENDBRANCH  12  13
ENDBRANCH   6  12
ENDBRANCH   2   6
ENDBRANCH   1   3
BRANCH   1  20
ATOM     20  N   UNL     1       2.579   6.837  19.106  0.00  0.00    +0.000 N 
ATOM     21  C   UNL     1       1.923   6.919  20.298  0.00  0.00    +0.000 C 
ATOM     22  O   UNL     1       1.818   6.002  21.100  0.00  0.00    +0.000 OA
ATOM     23  H   UNL     1       2.512   7.642  18.496  0.00  0.00    +0.000 HD
BRANCH  21  24
ATOM     24  O   UNL     1       1.350   8.138  20.435  0.00  0.00    +0.000 OA
BRANCH  24  25
ATOM     25  C   UNL     1       1.229   8.592  21.788  0.00  0.00    +0.000 C 
BRANCH  25  26
ATOM     26  C   UNL     1       0.234   9.724  21.834  0.00  0.00    +0.000 A 
ATOM     27  C   UNL     1      -0.439  10.039  23.022  0.00  0.00    +0.000 A 
ATOM     28  C   UNL     1      -1.354  11.095  23.059  0.00  0.00    +0.000 A 
ATOM     29  C   UNL     1      -1.599  11.835  21.895  0.00  0.00    +0.000 A 
ATOM     30  C   UNL     1      -0.943  11.523  20.698  0.00  0.00    +0.000 A 
ATOM     31  C   UNL     1      -0.031  10.466  20.671  0.00  0.00    +0.000 A 
BRANCH  29  32
ATOM     32  N   UNL     1      -2.553  12.950  21.931  0.00  0.00    +0.000 N 
ATOM     33  O   UNL     1      -2.455  13.763  22.862  0.00  0.00    +0.000 OA
ATOM     34  O   UNL     1      -3.400  13.015  21.030  0.00  0.00    +0.000 OA
ENDBRANCH  29  32
ENDBRANCH  25  26
ENDBRANCH  24  25
ENDBRANCH  21  24
ENDBRANCH   1  20
BRANCH   1  35
ATOM     35  C   UNL     1       2.020   4.807  17.797  0.00  0.00    +0.000 C 
BRANCH  35  36
ATOM     36  C   UNL     1       1.871   3.314  18.161  0.00  0.00    +0.000 C 
ATOM     37  C   UNL     1       3.052   2.478  17.665  0.00  0.00    +0.000 C 
ATOM     38  C   UNL     1       1.715   3.148  19.674  0.00  0.00    +0.000 C 
ENDBRANCH  35  36
ENDBRANCH   1  35
TORSDOF 14
ENDMDL
MODEL 9
REMARK VINA RESULT:      -7.9      4.763      9.826
REMARK  Name = 
REMARK  17 active torsions:
REMARK  status: ('A' for Active; 'I' for Inactive)
REMARK    1  A    between atoms: C_1  and  C_2
REMARK    2  A    between atoms: C_2  and  C_4
REMARK    3  A    between atoms: C_5  and  C_6
REMARK    4  A    between atoms: C_6  and  C_7
REMARK    5  A    between atoms: C_6  and  N_15
REMARK    6  A    between atoms: C_7  and  C_8
REMARK    7  A    between atoms: C_8  and  C_9
REMARK    8  A    between atoms: C_16  and  C_18
REMARK    9  A    between atoms: C_18  and  C_19
REMARK   10  A    between atoms: C_18  and  N_23
REMARK   11  A    between atoms: C_19  and  C_20
REMARK   12  A    between atoms: C_20  and  C_21
REMARK   13  A    between atoms: C_20  and  C_22
REMARK   14  A    between atoms: C_24  and  O_26
REMARK   15  A    between atoms: O_26  and  C_27
REMARK   16  A    between atoms: C_27  and  C_28
REMARK   17  A    between atoms: C_31  and  N_32
REMARK                            x       y       z     vdW  Elec       q    Type
REMARK                         _______ _______ _______ _____ _____    ______ ____
ROOT
ATOM      1  C   UNL     1       1.151  10.378  19.592  0.00  0.00    +0.000 C 
ENDROOT
BRANCH   1   3
ATOM      2  N   UNL     1       2.007   8.064  19.209  0.00  0.00    +0.000 N 
ATOM      3  C   UNL     1       1.685   9.276  18.633  0.00  0.00    +0.000 C 
ATOM      4  O   UNL     1       1.750   9.450  17.419  0.00  0.00    +0.000 OA
ATOM      5  H   UNL     1       1.936   7.943  20.206  0.00  0.00    +0.000 HD
BRANCH   2   6
ATOM      6  C   UNL     1       2.486   6.940  18.426  0.00  0.00    +0.000 C 
BRANCH   6   8
ATOM      7  C   UNL     1       1.536   4.630  18.657  0.00  0.00    +0.000 C 
ATOM      8  C   UNL     1       2.104   5.714  19.205  0.00  0.00    +0.000 C 
BRANCH   7  10
ATOM      9  C   UNL     1       1.597   3.545  20.955  0.00  0.00    +0.000 C 
ATOM     10  C   UNL     1       1.249   3.434  19.497  0.00  0.00    +0.000 C 
ATOM     11  O   UNL     1       0.746   2.421  19.021  0.00  0.00    +0.000 OA
ENDBRANCH   7  10
ENDBRANCH   6   8
BRANCH   6  12
ATOM     12  C   UNL     1       4.005   7.024  18.203  0.00  0.00    +0.000 C 
BRANCH  12  13
ATOM     13  C   UNL     1       4.682   5.650  18.295  0.00  0.00    +0.000 C 
BRANCH  13  14
ATOM     14  C   UNL     1       5.120   5.134  16.947  0.00  0.00    +0.000 A 
ATOM     15  C   UNL     1       5.409   6.028  15.906  0.00  0.00    +0.000 A 
ATOM     16  C   UNL     1       5.825   5.555  14.660  0.00  0.00    +0.000 A 
ATOM     17  C   UNL     1       5.952   4.184  14.445  0.00  0.00    +0.000 A 
ATOM     18  C   UNL     1       5.657   3.286  15.470  0.00  0.00    +0.000 A 
ATOM     19  C   UNL     1       5.240   3.759  16.715  0.00  0.00    +0.000 A 
ENDBRANCH  13  14
ENDBRANCH  12  13
ENDBRANCH   6  12
ENDBRANCH   2   6
ENDBRANCH   1   3
BRANCH   1  20
ATOM     20  N   UNL     1      -0.146  10.873  19.144  0.00  0.00    +0.000 N 
ATOM     21  C   UNL     1      -0.347  12.210  18.969  0.00  0.00    +0.000 C 
ATOM     22  O   UNL     1       0.528  13.061  19.037  0.00  0.00    +0.000 OA
ATOM     23  H   UNL     1      -0.972  10.289  19.152  0.00  0.00    +0.000 HD
BRANCH  21  24
ATOM     24  O   UNL     1      -1.663  12.466  18.778  0.00  0.00    +0.000 OA
BRANCH  24  25
ATOM     25  C   UNL     1      -2.505  11.307  18.795  0.00  0.00    +0.000 C 
BRANCH  25  26
ATOM     26  C   UNL     1      -2.803  10.901  17.374  0.00  0.00    +0.000 A 
ATOM     27  C   UNL     1      -3.828  11.525  16.649  0.00  0.00    +0.000 A 
ATOM     28  C   UNL     1      -4.093  11.148  15.331  0.00  0.00    +0.000 A 
ATOM     29  C   UNL     1      -3.330  10.134  14.736  0.00  0.00    +0.000 A 
ATOM     30  C   UNL     1      -2.312   9.493  15.453  0.00  0.00    +0.000 A 
ATOM     31  C   UNL     1      -2.054   9.876  16.770  0.00  0.00    +0.000 A 
BRANCH  29  32
ATOM     32  N   UNL     1      -3.600   9.741  13.349  0.00  0.00    +0.000 N 
ATOM     33  O   UNL     1      -4.783   9.706  12.979  0.00  0.00    +0.000 OA
ATOM     34  O   UNL     1      -2.631   9.467  12.627  0.00  0.00    +0.000 OA
ENDBRANCH  29  32
ENDBRANCH  25  26
ENDBRANCH  24  25
ENDBRANCH  21  24
ENDBRANCH   1  20
BRANCH   1  35
ATOM     35  C   UNL     1       1.116   9.973  21.078  0.00  0.00    +0.000 C 
BRANCH  35  36
ATOM     36  C   UNL     1      -0.290   9.599  21.595  0.00  0.00    +0.000 C 
ATOM     37  C   UNL     1      -0.554   8.094  21.513  0.00  0.00    +0.000 C 
ATOM     38  C   UNL     1      -0.475  10.081  23.034  0.00  0.00    +0.000 C 
ENDBRANCH  35  36
ENDBRANCH   1  35
TORSDOF 14
ENDMDL
