MODEL 1
REMARK VINA RESULT:      -8.3      0.000      0.000
REMARK  Name = 
REMARK  7 active torsions:
REMARK  status: ('A' for Active; 'I' for Inactive)
REMARK    1  A    between atoms: C_1  and  C_2
REMARK    2  A    between atoms: N_4  and  C_5
REMARK    3  A    between atoms: N_7  and  C_8
REMARK    4  A    between atoms: C_8  and  C_9
REMARK    5  A    between atoms: C_17  and  C_18
REMARK    6  A    between atoms: C_20  and  C_21
REMARK    7  A    between atoms: C_24  and  C_25
REMARK                            x       y       z     vdW  Elec       q    Type
REMARK                         _______ _______ _______ _____ _____    ______ ____
ROOT
ATOM      1  C   UNL     1       3.346   4.823  18.405  0.00  0.00    +0.000 C 
ATOM      2  C   UNL     1       1.930   5.421  18.363  0.00  0.00    +0.000 C 
ATOM      3  N   UNL     1       2.124   6.889  18.435  0.00  0.00    +0.000 NA
ATOM      4  C   UNL     1       3.325   7.114  17.594  0.00  0.00    +0.000 C 
ATOM      5  C   UNL     1       4.088   5.776  17.462  0.00  0.00    +0.000 C 
ENDROOT
BRANCH   5   6
ATOM      6  C   UNL     1       5.545   5.899  17.750  0.00  0.00    +0.000 A 
ATOM      7  C   UNL     1       6.506   5.039  18.245  0.00  0.00    +0.000 A 
ATOM      8  C   UNL     1       7.698   5.793  18.369  0.00  0.00    +0.000 A 
ATOM      9  C   UNL     1       7.402   7.062  17.925  0.00  0.00    +0.000 A 
ATOM     10  C   UNL     1       8.193   8.303  17.812  0.00  0.00    +0.000 C 
ATOM     11  O   UNL     1       6.098   7.131  17.535  0.00  0.00    +0.000 OA
ENDBRANCH   5   6
BRANCH   1  15
ATOM     12  C   UNL     1       3.921   1.084  18.387  0.00  0.00    +0.000 C 
ATOM     13  C   UNL     1       3.695   2.454  18.963  0.00  0.00    +0.000 C 
ATOM     14  O   UNL     1       3.786   2.685  20.161  0.00  0.00    +0.000 OA
ATOM     15  N   UNL     1       3.398   3.416  18.017  0.00  0.00    +0.000 N 
ATOM     16  H   UNL     1       3.615   3.205  17.048  0.00  0.00    +0.000 HD
ENDBRANCH   1  15
BRANCH   3  17
ATOM     17  C   UNL     1       2.335   7.294  19.845  0.00  0.00    +0.000 C 
BRANCH  17  18
ATOM     18  C   UNL     1       1.432   8.396  20.306  0.00  0.00    +0.000 A 
ATOM     19  O   UNL     1       1.065   8.333  21.621  0.00  0.00    +0.000 OA
ATOM     20  C   UNL     1       0.248   9.390  21.869  0.00  0.00    +0.000 A 
ATOM     21  C   UNL     1      -0.364   9.674  23.087  0.00  0.00    +0.000 A 
ATOM     22  C   UNL     1      -1.142  10.837  23.140  0.00  0.00    +0.000 A 
ATOM     23  C   UNL     1      -1.277  11.665  22.023  0.00  0.00    +0.000 A 
ATOM     24  C   UNL     1      -0.669  11.333  20.805  0.00  0.00    +0.000 A 
ATOM     25  C   UNL     1       0.103  10.157  20.726  0.00  0.00    +0.000 A 
ATOM     26  C   UNL     1       0.814   9.477  19.690  0.00  0.00    +0.000 A 
ATOM     27  C   UNL     1       0.857   9.862  18.259  0.00  0.00    +0.000 C 
ENDBRANCH  17  18
ENDBRANCH   3  17
TORSDOF 4
ENDMDL
MODEL 2
REMARK VINA RESULT:      -8.0      0.629      1.023
REMARK  Name = 
REMARK  7 active torsions:
REMARK  status: ('A' for Active; 'I' for Inactive)
REMARK    1  A    between atoms: C_1  and  C_2
REMARK    2  A    between atoms: N_4  and  C_5
REMARK    3  A    between atoms: N_7  and  C_8
REMARK    4  A    between atoms: C_8  and  C_9
REMARK    5  A    between atoms: C_17  and  C_18
REMARK    6  A    between atoms: C_20  and  C_21
REMARK    7  A    between atoms: C_24  and  C_25
REMARK                            x       y       z     vdW  Elec       q    Type
REMARK                         _______ _______ _______ _____ _____    ______ ____
ROOT
ATOM      1  C   UNL     1       3.471   5.041  18.409  0.00  0.00    +0.000 C 
ATOM      2  C   UNL     1       2.011   5.519  18.389  0.00  0.00    +0.000 C 
ATOM      3  N   UNL     1       2.082   6.998  18.475  0.00  0.00    +0.000 NA
ATOM      4  C   UNL     1       3.250   7.330  17.623  0.00  0.00    +0.000 C 
ATOM      5  C   UNL     1       4.121   6.062  17.469  0.00  0.00    +0.000 C 
ENDROOT
BRANCH   5   6
ATOM      6  C   UNL     1       5.566   6.304  17.742  0.00  0.00    +0.000 A 
ATOM      7  C   UNL     1       6.562   7.014  17.102  0.00  0.00    +0.000 A 
ATOM      8  C   UNL     1       7.756   6.775  17.823  0.00  0.00    +0.000 A 
ATOM      9  C   UNL     1       7.418   5.949  18.871  0.00  0.00    +0.000 A 
ATOM     10  C   UNL     1       8.195   5.332  19.964  0.00  0.00    +0.000 C 
ATOM     11  O   UNL     1       6.084   5.669  18.836  0.00  0.00    +0.000 OA
ENDBRANCH   5   6
BRANCH   1  15
ATOM     12  C   UNL     1       3.904   1.283  18.437  0.00  0.00    +0.000 C 
ATOM     13  C   UNL     1       3.505   2.641  18.942  0.00  0.00    +0.000 C 
ATOM     14  O   UNL     1       3.116   2.827  20.088  0.00  0.00    +0.000 OA
ATOM     15  N   UNL     1       3.637   3.647  18.005  0.00  0.00    +0.000 N 
ATOM     16  H   UNL     1       4.216   3.461  17.194  0.00  0.00    +0.000 HD
ENDBRANCH   1  15
BRANCH   3  17
ATOM     17  C   UNL     1       2.275   7.404  19.887  0.00  0.00    +0.000 C 
BRANCH  17  18
ATOM     18  C   UNL     1       1.364   8.505  20.335  0.00  0.00    +0.000 A 
ATOM     19  O   UNL     1       0.985   8.445  21.648  0.00  0.00    +0.000 OA
ATOM     20  C   UNL     1       0.163   9.501  21.884  0.00  0.00    +0.000 A 
ATOM     21  C   UNL     1      -0.462   9.787  23.096  0.00  0.00    +0.000 A 
ATOM     22  C   UNL     1      -1.244  10.948  23.137  0.00  0.00    +0.000 A 
ATOM     23  C   UNL     1      -1.372  11.771  22.016  0.00  0.00    +0.000 A 
ATOM     24  C   UNL     1      -0.752  11.437  20.805  0.00  0.00    +0.000 A 
ATOM     25  C   UNL     1       0.026  10.263  20.737  0.00  0.00    +0.000 A 
ATOM     26  C   UNL     1       0.748   9.582  19.710  0.00  0.00    +0.000 A 
ATOM     27  C   UNL     1       0.803   9.961  18.278  0.00  0.00    +0.000 C 
ENDBRANCH  17  18
ENDBRANCH   3  17
TORSDOF 4
ENDMDL
MODEL 3
REMARK VINA RESULT:      -7.8      2.716      4.767
REMARK  Name = 
REMARK  7 active torsions:
REMARK  status: ('A' for Active; 'I' for Inactive)
REMARK    1  A    between atoms: C_1  and  C_2
REMARK    2  A    between atoms: N_4  and  C_5
REMARK    3  A    between atoms: N_7  and  C_8
REMARK    4  A    between atoms: C_8  and  C_9
REMARK    5  A    between atoms: C_17  and  C_18
REMARK    6  A    between atoms: C_20  and  C_21
REMARK    7  A    between atoms: C_24  and  C_25
REMARK                            x       y       z     vdW  Elec       q    Type
REMARK                         _______ _______ _______ _____ _____    ______ ____
ROOT
ATOM      1  C   UNL     1       6.139   6.345  17.271  0.00  0.00    +0.000 C 
ATOM      2  C   UNL     1       5.760   6.025  18.726  0.00  0.00    +0.000 C 
ATOM      3  N   UNL     1       5.224   4.643  18.696  0.00  0.00    +0.000 NA
ATOM      4  C   UNL     1       6.110   3.958  17.724  0.00  0.00    +0.000 C 
ATOM      5  C   UNL     1       6.803   5.029  16.850  0.00  0.00    +0.000 C 
ENDROOT
BRANCH   5   6
ATOM      6  C   UNL     1       6.713   4.746  15.390  0.00  0.00    +0.000 A 
ATOM      7  C   UNL     1       6.009   3.836  14.626  0.00  0.00    +0.000 A 
ATOM      8  C   UNL     1       6.432   4.019  13.288  0.00  0.00    +0.000 A 
ATOM      9  C   UNL     1       7.354   5.041  13.309  0.00  0.00    +0.000 A 
ATOM     10  C   UNL     1       8.166   5.692  12.261  0.00  0.00    +0.000 C 
ATOM     11  O   UNL     1       7.521   5.497  14.582  0.00  0.00    +0.000 OA
ENDBRANCH   5   6
BRANCH   1  15
ATOM     12  C   UNL     1       8.628   9.120  17.915  0.00  0.00    +0.000 C 
ATOM     13  C   UNL     1       7.979   7.772  18.060  0.00  0.00    +0.000 C 
ATOM     14  O   UNL     1       8.301   6.979  18.935  0.00  0.00    +0.000 OA
ATOM     15  N   UNL     1       6.985   7.527  17.133  0.00  0.00    +0.000 N 
ATOM     16  H   UNL     1       6.599   8.323  16.637  0.00  0.00    +0.000 HD
ENDBRANCH   1  15
BRANCH   3  17
ATOM     17  C   UNL     1       3.809   4.669  18.254  0.00  0.00    +0.000 C 
BRANCH  17  18
ATOM     18  C   UNL     1       2.979   5.715  18.929  0.00  0.00    +0.000 A 
ATOM     19  O   UNL     1       2.855   6.890  18.240  0.00  0.00    +0.000 OA
ATOM     20  C   UNL     1       2.086   7.723  18.989  0.00  0.00    +0.000 A 
ATOM     21  C   UNL     1       1.743   9.031  18.653  0.00  0.00    +0.000 A 
ATOM     22  C   UNL     1       0.908   9.709  19.550  0.00  0.00    +0.000 A 
ATOM     23  C   UNL     1       0.443   9.087  20.711  0.00  0.00    +0.000 A 
ATOM     24  C   UNL     1       0.831   7.780  21.031  0.00  0.00    +0.000 A 
ATOM     25  C   UNL     1       1.685   7.086  20.150  0.00  0.00    +0.000 A 
ATOM     26  C   UNL     1       2.320   5.806  20.148  0.00  0.00    +0.000 A 
ATOM     27  C   UNL     1       2.276   4.806  21.241  0.00  0.00    +0.000 C 
ENDBRANCH  17  18
ENDBRANCH   3  17
TORSDOF 4
ENDMDL
MODEL 4
REMARK VINA RESULT:      -7.7      1.025      1.814
REMARK  Name = 
REMARK  7 active torsions:
REMARK  status: ('A' for Active; 'I' for Inactive)
REMARK    1  A    between atoms: C_1  and  C_2
REMARK    2  A    between atoms: N_4  and  C_5
REMARK    3  A    between atoms: N_7  and  C_8
REMARK    4  A    between atoms: C_8  and  C_9
REMARK    5  A    between atoms: C_17  and  C_18
REMARK    6  A    between atoms: C_20  and  C_21
REMARK    7  A    between atoms: C_24  and  C_25
REMARK                            x       y       z     vdW  Elec       q    Type
REMARK                         _______ _______ _______ _____ _____    ______ ____
ROOT
ATOM      1  C   UNL     1       3.395   5.085  18.286  0.00  0.00    +0.000 C 
ATOM      2  C   UNL     1       1.989   5.675  18.088  0.00  0.00    +0.000 C 
ATOM      3  N   UNL     1       2.176   7.145  18.101  0.00  0.00    +0.000 NA
ATOM      4  C   UNL     1       3.447   7.330  17.358  0.00  0.00    +0.000 C 
ATOM      5  C   UNL     1       4.218   5.991  17.364  0.00  0.00    +0.000 C 
ENDROOT
BRANCH   5   6
ATOM      6  C   UNL     1       5.645   6.135  17.772  0.00  0.00    +0.000 A 
ATOM      7  C   UNL     1       6.545   5.322  18.433  0.00  0.00    +0.000 A 
ATOM      8  C   UNL     1       7.730   6.078  18.594  0.00  0.00    +0.000 A 
ATOM      9  C   UNL     1       7.493   7.300  18.006  0.00  0.00    +0.000 A 
ATOM     10  C   UNL     1       8.307   8.522  17.850  0.00  0.00    +0.000 C 
ATOM     11  O   UNL     1       6.231   7.337  17.493  0.00  0.00    +0.000 OA
ENDBRANCH   5   6
BRANCH   1  15
ATOM     12  C   UNL     1       3.800   1.333  18.555  0.00  0.00    +0.000 C 
ATOM     13  C   UNL     1       3.500   2.736  19.004  0.00  0.00    +0.000 C 
ATOM     14  O   UNL     1       3.308   3.022  20.179  0.00  0.00    +0.000 OA
ATOM     15  N   UNL     1       3.481   3.660  17.978  0.00  0.00    +0.000 N 
ATOM     16  H   UNL     1       3.916   3.396  17.100  0.00  0.00    +0.000 HD
ENDBRANCH   1  15
BRANCH   3  17
ATOM     17  C   UNL     1       2.263   7.623  19.501  0.00  0.00    +0.000 C 
BRANCH  17  18
ATOM     18  C   UNL     1       1.326   8.746  19.821  0.00  0.00    +0.000 A 
ATOM     19  O   UNL     1       0.783   9.376  18.736  0.00  0.00    +0.000 OA
ATOM     20  C   UNL     1      -0.027  10.363  19.199  0.00  0.00    +0.000 A 
ATOM     21  C   UNL     1      -0.749  11.257  18.411  0.00  0.00    +0.000 A 
ATOM     22  C   UNL     1      -1.555  12.179  19.090  0.00  0.00    +0.000 A 
ATOM     23  C   UNL     1      -1.629  12.182  20.485  0.00  0.00    +0.000 A 
ATOM     24  C   UNL     1      -0.868  11.286  21.246  0.00  0.00    +0.000 A 
ATOM     25  C   UNL     1      -0.036  10.361  20.583  0.00  0.00    +0.000 A 
ATOM     26  C   UNL     1       0.895   9.358  20.992  0.00  0.00    +0.000 A 
ATOM     27  C   UNL     1       1.307   9.061  22.385  0.00  0.00    +0.000 C 
ENDBRANCH  17  18
ENDBRANCH   3  17
TORSDOF 4
ENDMDL
MODEL 5
REMARK VINA RESULT:      -7.6      2.878      8.613
REMARK  Name = 
REMARK  7 active torsions:
REMARK  status: ('A' for Active; 'I' for Inactive)
REMARK    1  A    between atoms: C_1  and  C_2
REMARK    2  A    between atoms: N_4  and  C_5
REMARK    3  A    between atoms: N_7  and  C_8
REMARK    4  A    between atoms: C_8  and  C_9
REMARK    5  A    between atoms: C_17  and  C_18
REMARK    6  A    between atoms: C_20  and  C_21
REMARK    7  A    between atoms: C_24  and  C_25
REMARK                            x       y       z     vdW  Elec       q    Type
REMARK                         _______ _______ _______ _____ _____    ______ ____
ROOT
ATOM      1  C   UNL     1      -0.461  10.819  20.590  0.00  0.00    +0.000 C 
ATOM      2  C   UNL     1       1.025  10.603  20.919  0.00  0.00    +0.000 C 
ATOM      3  N   UNL     1       1.550   9.759  19.820  0.00  0.00    +0.000 NA
ATOM      4  C   UNL     1       0.864  10.299  18.621  0.00  0.00    +0.000 C 
ATOM      5  C   UNL     1      -0.386  11.082  19.082  0.00  0.00    +0.000 C 
ENDROOT
BRANCH   5   6
ATOM      6  C   UNL     1      -1.623  10.707  18.340  0.00  0.00    +0.000 A 
ATOM      7  C   UNL     1      -1.893   9.858  17.285  0.00  0.00    +0.000 A 
ATOM      8  C   UNL     1      -3.267  10.013  16.983  0.00  0.00    +0.000 A 
ATOM      9  C   UNL     1      -3.760  10.931  17.882  0.00  0.00    +0.000 A 
ATOM     10  C   UNL     1      -5.095  11.528  18.088  0.00  0.00    +0.000 C 
ATOM     11  O   UNL     1      -2.769  11.348  18.720  0.00  0.00    +0.000 OA
ENDBRANCH   5   6
BRANCH   1  15
ATOM     12  C   UNL     1      -2.333  12.757  23.246  0.00  0.00    +0.000 C 
ATOM     13  C   UNL     1      -1.532  11.634  22.648  0.00  0.00    +0.000 C 
ATOM     14  O   UNL     1      -1.320  10.588  23.246  0.00  0.00    +0.000 OA
ATOM     15  N   UNL     1      -1.083  11.889  21.366  0.00  0.00    +0.000 N 
ATOM     16  H   UNL     1      -1.529  12.641  20.853  0.00  0.00    +0.000 HD
ENDBRANCH   1  15
BRANCH   3  17
ATOM     17  C   UNL     1       1.209   8.339  20.077  0.00  0.00    +0.000 C 
BRANCH  17  18
ATOM     18  C   UNL     1       2.150   7.361  19.446  0.00  0.00    +0.000 A 
ATOM     19  O   UNL     1       2.823   7.828  18.351  0.00  0.00    +0.000 OA
ATOM     20  C   UNL     1       3.619   6.823  17.902  0.00  0.00    +0.000 A 
ATOM     21  C   UNL     1       4.450   6.885  16.785  0.00  0.00    +0.000 A 
ATOM     22  C   UNL     1       5.217   5.745  16.513  0.00  0.00    +0.000 A 
ATOM     23  C   UNL     1       5.149   4.618  17.336  0.00  0.00    +0.000 A 
ATOM     24  C   UNL     1       4.282   4.581  18.435  0.00  0.00    +0.000 A 
ATOM     25  C   UNL     1       3.487   5.711  18.716  0.00  0.00    +0.000 A 
ATOM     26  C   UNL     1       2.483   6.033  19.679  0.00  0.00    +0.000 A 
ATOM     27  C   UNL     1       1.921   5.114  20.698  0.00  0.00    +0.000 C 
ENDBRANCH  17  18
ENDBRANCH   3  17
TORSDOF 4
ENDMDL
MODEL 6
REMARK VINA RESULT:      -7.5      2.930      6.363
REMARK  Name = 
REMARK  7 active torsions:
REMARK  status: ('A' for Active; 'I' for Inactive)
REMARK    1  A    between atoms: C_1  and  C_2
REMARK    2  A    between atoms: N_4  and  C_5
REMARK    3  A    between atoms: N_7  and  C_8
REMARK    4  A    between atoms: C_8  and  C_9
REMARK    5  A    between atoms: C_17  and  C_18
REMARK    6  A    between atoms: C_20  and  C_21
REMARK    7  A    between atoms: C_24  and  C_25
REMARK                            x       y       z     vdW  Elec       q    Type
REMARK                         _______ _______ _______ _____ _____    ______ ____
ROOT
ATOM      1  C   UNL     1       6.240   6.746  17.281  0.00  0.00    +0.000 C 
ATOM      2  C   UNL     1       6.898   5.625  16.461  0.00  0.00    +0.000 C 
ATOM      3  N   UNL     1       5.886   4.544  16.393  0.00  0.00    +0.000 NA
ATOM      4  C   UNL     1       4.612   5.285  16.224  0.00  0.00    +0.000 C 
ATOM      5  C   UNL     1       4.827   6.743  16.690  0.00  0.00    +0.000 C 
ENDROOT
BRANCH   5   6
ATOM      6  C   UNL     1       3.775   7.222  17.631  0.00  0.00    +0.000 A 
ATOM      7  C   UNL     1       3.287   6.770  18.842  0.00  0.00    +0.000 A 
ATOM      8  C   UNL     1       2.214   7.625  19.190  0.00  0.00    +0.000 A 
ATOM      9  C   UNL     1       2.120   8.559  18.183  0.00  0.00    +0.000 A 
ATOM     10  C   UNL     1       1.213   9.699  17.943  0.00  0.00    +0.000 C 
ATOM     11  O   UNL     1       3.075   8.328  17.237  0.00  0.00    +0.000 OA
ENDBRANCH   5   6
BRANCH   1  15
ATOM     12  C   UNL     1       8.481   9.714  17.976  0.00  0.00    +0.000 C 
ATOM     13  C   UNL     1       7.996   8.292  18.037  0.00  0.00    +0.000 C 
ATOM     14  O   UNL     1       8.492   7.462  18.787  0.00  0.00    +0.000 OA
ATOM     15  N   UNL     1       6.938   8.026  17.190  0.00  0.00    +0.000 N 
ATOM     16  H   UNL     1       6.420   8.816  16.822  0.00  0.00    +0.000 HD
ENDBRANCH   1  15
BRANCH   3  17
ATOM     17  C   UNL     1       5.920   3.752  17.645  0.00  0.00    +0.000 C 
BRANCH  17  18
ATOM     18  C   UNL     1       4.572   3.506  18.249  0.00  0.00    +0.000 A 
ATOM     19  O   UNL     1       4.488   3.734  19.594  0.00  0.00    +0.000 OA
ATOM     20  C   UNL     1       3.215   3.458  19.977  0.00  0.00    +0.000 A 
ATOM     21  C   UNL     1       2.724   3.538  21.279  0.00  0.00    +0.000 A 
ATOM     22  C   UNL     1       1.365   3.244  21.453  0.00  0.00    +0.000 A 
ATOM     23  C   UNL     1       0.557   2.901  20.368  0.00  0.00    +0.000 A 
ATOM     24  C   UNL     1       1.091   2.803  19.076  0.00  0.00    +0.000 A 
ATOM     25  C   UNL     1       2.460   3.077  18.881  0.00  0.00    +0.000 A 
ATOM     26  C   UNL     1       3.354   3.040  17.768  0.00  0.00    +0.000 A 
ATOM     27  C   UNL     1       3.027   2.582  16.397  0.00  0.00    +0.000 C 
ENDBRANCH  17  18
ENDBRANCH   3  17
TORSDOF 4
ENDMDL
MODEL 7
REMARK VINA RESULT:      -7.4      1.544      1.834
REMARK  Name = 
REMARK  7 active torsions:
REMARK  status: ('A' for Active; 'I' for Inactive)
REMARK    1  A    between atoms: C_1  and  C_2
REMARK    2  A    between atoms: N_4  and  C_5
REMARK    3  A    between atoms: N_7  and  C_8
REMARK    4  A    between atoms: C_8  and  C_9
REMARK    5  A    between atoms: C_17  and  C_18
REMARK    6  A    between atoms: C_20  and  C_21
REMARK    7  A    between atoms: C_24  and  C_25
REMARK                            x       y       z     vdW  Elec       q    Type
REMARK                         _______ _______ _______ _____ _____    ______ ____
ROOT
ATOM      1  C   UNL     1       3.878   3.369  19.001  0.00  0.00    +0.000 C 
ATOM      2  C   UNL     1       2.487   3.651  19.592  0.00  0.00    +0.000 C 
ATOM      3  N   UNL     1       2.124   5.005  19.108  0.00  0.00    +0.000 NA
ATOM      4  C   UNL     1       2.635   5.014  17.715  0.00  0.00    +0.000 C 
ATOM      5  C   UNL     1       3.698   3.899  17.575  0.00  0.00    +0.000 C 
ENDROOT
BRANCH   5   6
ATOM      6  C   UNL     1       4.962   4.368  16.940  0.00  0.00    +0.000 A 
ATOM      7  C   UNL     1       5.760   3.894  15.917  0.00  0.00    +0.000 A 
ATOM      8  C   UNL     1       6.883   4.753  15.850  0.00  0.00    +0.000 A 
ATOM      9  C   UNL     1       6.697   5.712  16.820  0.00  0.00    +0.000 A 
ATOM     10  C   UNL     1       7.500   6.868  17.265  0.00  0.00    +0.000 C 
ATOM     11  O   UNL     1       5.524   5.492  17.478  0.00  0.00    +0.000 OA
ENDBRANCH   5   6
BRANCH   1  15
ATOM     12  C   UNL     1       5.357   0.079  20.143  0.00  0.00    +0.000 C 
ATOM     13  C   UNL     1       4.801   1.470  20.262  0.00  0.00    +0.000 C 
ATOM     14  O   UNL     1       4.834   2.102  21.310  0.00  0.00    +0.000 OA
ATOM     15  N   UNL     1       4.275   1.966  19.085  0.00  0.00    +0.000 N 
ATOM     16  H   UNL     1       4.535   1.500  18.222  0.00  0.00    +0.000 HD
ENDBRANCH   1  15
BRANCH   3  17
ATOM     17  C   UNL     1       2.777   6.028  19.958  0.00  0.00    +0.000 C 
BRANCH  17  18
ATOM     18  C   UNL     1       2.009   7.309  20.070  0.00  0.00    +0.000 A 
ATOM     19  O   UNL     1       1.329   7.477  21.244  0.00  0.00    +0.000 OA
ATOM     20  C   UNL     1       0.688   8.672  21.177  0.00  0.00    +0.000 A 
ATOM     21  C   UNL     1      -0.139   9.206  22.164  0.00  0.00    +0.000 A 
ATOM     22  C   UNL     1      -0.677  10.474  21.910  0.00  0.00    +0.000 A 
ATOM     23  C   UNL     1      -0.381  11.159  20.730  0.00  0.00    +0.000 A 
ATOM     24  C   UNL     1       0.432  10.580  19.747  0.00  0.00    +0.000 A 
ATOM     25  C   UNL     1       0.969   9.297  19.974  0.00  0.00    +0.000 A 
ATOM     26  C   UNL     1       1.771   8.384  19.223  0.00  0.00    +0.000 A 
ATOM     27  C   UNL     1       2.230   8.567  17.826  0.00  0.00    +0.000 C 
ENDBRANCH  17  18
ENDBRANCH   3  17
TORSDOF 4
ENDMDL
MODEL 8
REMARK VINA RESULT:      -7.3      2.728      8.215
REMARK  Name = 
REMARK  7 active torsions:
REMARK  status: ('A' for Active; 'I' for Inactive)
REMARK    1  A    between atoms: C_1  and  C_2
REMARK    2  A    between atoms: N_4  and  C_5
REMARK    3  A    between atoms: N_7  and  C_8
REMARK    4  A    between atoms: C_8  and  C_9
REMARK    5  A    between atoms: C_17  and  C_18
REMARK    6  A    between atoms: C_20  and  C_21
REMARK    7  A    between atoms: C_24  and  C_25
REMARK                            x       y       z     vdW  Elec       q    Type
REMARK                         _______ _______ _______ _____ _____    ______ ____
ROOT
ATOM      1  C   UNL     1       1.589  11.364  18.625  0.00  0.00    +0.000 C 
ATOM      2  C   UNL     1       2.061  10.100  17.890  0.00  0.00    +0.000 C 
ATOM      3  N   UNL     1       1.179   9.012  18.376  0.00  0.00    +0.000 NA
ATOM      4  C   UNL     1      -0.146   9.670  18.475  0.00  0.00    +0.000 C 
ATOM      5  C   UNL     1       0.068  11.200  18.532  0.00  0.00    +0.000 C 
ENDROOT
BRANCH   5   6
ATOM      6  C   UNL     1      -0.681  11.858  19.639  0.00  0.00    +0.000 A 
ATOM      7  C   UNL     1      -1.325  13.072  19.779  0.00  0.00    +0.000 A 
ATOM      8  C   UNL     1      -1.770  13.141  21.121  0.00  0.00    +0.000 A 
ATOM      9  C   UNL     1      -1.390  11.960  21.717  0.00  0.00    +0.000 A 
ATOM     10  C   UNL     1      -1.538  11.425  23.085  0.00  0.00    +0.000 C 
ATOM     11  O   UNL     1      -0.738  11.169  20.818  0.00  0.00    +0.000 OA
ENDBRANCH   5   6
BRANCH   1  15
ATOM     12  C   UNL     1       2.831  14.908  18.162  0.00  0.00    +0.000 C 
ATOM     13  C   UNL     1       2.524  13.624  18.881  0.00  0.00    +0.000 C 
ATOM     14  O   UNL     1       2.624  13.512  20.096  0.00  0.00    +0.000 OA
ATOM     15  N   UNL     1       2.105  12.603  18.050  0.00  0.00    +0.000 N 
ATOM     16  H   UNL     1       1.788  12.856  17.119  0.00  0.00    +0.000 HD
ENDBRANCH   1  15
BRANCH   3  17
ATOM     17  C   UNL     1       1.669   8.524  19.688  0.00  0.00    +0.000 C 
BRANCH  17  18
ATOM     18  C   UNL     1       2.156   7.109  19.669  0.00  0.00    +0.000 A 
ATOM     19  O   UNL     1       1.701   6.326  20.694  0.00  0.00    +0.000 OA
ATOM     20  C   UNL     1       2.239   5.089  20.533  0.00  0.00    +0.000 A 
ATOM     21  C   UNL     1       2.045   4.003  21.384  0.00  0.00    +0.000 A 
ATOM     22  C   UNL     1       2.664   2.802  21.015  0.00  0.00    +0.000 A 
ATOM     23  C   UNL     1       3.423   2.711  19.847  0.00  0.00    +0.000 A 
ATOM     24  C   UNL     1       3.620   3.832  19.029  0.00  0.00    +0.000 A 
ATOM     25  C   UNL     1       3.021   5.055  19.391  0.00  0.00    +0.000 A 
ATOM     26  C   UNL     1       3.026   6.383  18.865  0.00  0.00    +0.000 A 
ATOM     27  C   UNL     1       3.815   6.863  17.706  0.00  0.00    +0.000 C 
ENDBRANCH  17  18
ENDBRANCH   3  17
TORSDOF 4
ENDMDL
MODEL 9
REMARK VINA RESULT:      -7.3      2.675      8.729
REMARK  Name = 
REMARK  7 active torsions:
REMARK  status: ('A' for Active; 'I' for Inactive)
REMARK    1  A    between atoms: C_1  and  C_2
REMARK    2  A    between atoms: N_4  and  C_5
REMARK    3  A    between atoms: N_7  and  C_8
REMARK    4  A    between atoms: C_8  and  C_9
REMARK    5  A    between atoms: C_17  and  C_18
REMARK    6  A    between atoms: C_20  and  C_21
REMARK    7  A    between atoms: C_24  and  C_25
REMARK                            x       y       z     vdW  Elec       q    Type
REMARK                         _______ _______ _______ _____ _____    ______ ____
ROOT
ATOM      1  C   UNL     1       1.392  11.418  19.334  0.00  0.00    +0.000 C 
ATOM      2  C   UNL     1       1.767  10.569  18.108  0.00  0.00    +0.000 C 
ATOM      3  N   UNL     1       1.099   9.262  18.318  0.00  0.00    +0.000 NA
ATOM      4  C   UNL     1      -0.210   9.643  18.903  0.00  0.00    +0.000 C 
ATOM      5  C   UNL     1      -0.094  11.073  19.478  0.00  0.00    +0.000 C 
ENDROOT
BRANCH   5   6
ATOM      6  C   UNL     1      -0.610  11.190  20.872  0.00  0.00    +0.000 A 
ATOM      7  C   UNL     1      -0.327  10.549  22.062  0.00  0.00    +0.000 A 
ATOM      8  C   UNL     1      -1.233  11.059  23.021  0.00  0.00    +0.000 A 
ATOM      9  C   UNL     1      -2.003  11.995  22.369  0.00  0.00    +0.000 A 
ATOM     10  C   UNL     1      -3.119  12.862  22.796  0.00  0.00    +0.000 C 
ATOM     11  O   UNL     1      -1.621  12.090  21.063  0.00  0.00    +0.000 OA
ENDBRANCH   5   6
BRANCH   1  15
ATOM     12  C   UNL     1       2.149  15.066  19.990  0.00  0.00    +0.000 C 
ATOM     13  C   UNL     1       2.098  13.587  20.252  0.00  0.00    +0.000 C 
ATOM     14  O   UNL     1       2.390  13.102  21.337  0.00  0.00    +0.000 OA
ATOM     15  N   UNL     1       1.675  12.841  19.169  0.00  0.00    +0.000 N 
ATOM     16  H   UNL     1       1.197  13.330  18.420  0.00  0.00    +0.000 HD
ENDBRANCH   1  15
BRANCH   3  17
ATOM     17  C   UNL     1       1.911   8.431  19.237  0.00  0.00    +0.000 C 
BRANCH  17  18
ATOM     18  C   UNL     1       2.657   7.324  18.560  0.00  0.00    +0.000 A 
ATOM     19  O   UNL     1       3.531   7.724  17.587  0.00  0.00    +0.000 OA
ATOM     20  C   UNL     1       4.111   6.607  17.075  0.00  0.00    +0.000 A 
ATOM     21  C   UNL     1       5.044   6.580  16.040  0.00  0.00    +0.000 A 
ATOM     22  C   UNL     1       5.547   5.322  15.685  0.00  0.00    +0.000 A 
ATOM     23  C   UNL     1       5.133   4.166  16.351  0.00  0.00    +0.000 A 
ATOM     24  C   UNL     1       4.172   4.228  17.369  0.00  0.00    +0.000 A 
ATOM     25  C   UNL     1       3.639   5.483  17.729  0.00  0.00    +0.000 A 
ATOM     26  C   UNL     1       2.644   5.937  18.647  0.00  0.00    +0.000 A 
ATOM     27  C   UNL     1       1.781   5.082  19.497  0.00  0.00    +0.000 C 
ENDBRANCH  17  18
ENDBRANCH   3  17
TORSDOF 4
ENDMDL
