MODEL 1
REMARK VINA RESULT:      -8.9      0.000      0.000
REMARK  Name = 
REMARK  2 active torsions:
REMARK  status: ('A' for Active; 'I' for Inactive)
REMARK    1  A    between atoms: C_1  and  O_2
REMARK    2  A    between atoms: O_2  and  C_3
REMARK                            x       y       z     vdW  Elec       q    Type
REMARK                         _______ _______ _______ _____ _____    ______ ____
ROOT
ATOM      1  C   UNL     1       4.880   4.078  17.530  0.00  0.00    +0.000 A 
ATOM      2  C   UNL     1       4.506   3.390  18.683  0.00  0.00    +0.000 A 
ATOM      3  C   UNL     1       3.666   3.975  19.637  0.00  0.00    +0.000 A 
ATOM      4  C   UNL     1       3.213   5.274  19.391  0.00  0.00    +0.000 A 
ATOM      5  N   UNL     1       2.413   6.084  20.163  0.00  0.00    +0.000 N 
ATOM      6  C   UNL     1       2.216   7.281  19.534  0.00  0.00    +0.000 A 
ATOM      7  C   UNL     1       2.906   7.253  18.340  0.00  0.00    +0.000 A 
ATOM      8  C   UNL     1       3.550   5.989  18.241  0.00  0.00    +0.000 A 
ATOM      9  C   UNL     1       4.398   5.378  17.298  0.00  0.00    +0.000 A 
ATOM     10  C   UNL     1       2.890   8.444  17.448  0.00  0.00    +0.000 C 
ATOM     11  C   UNL     1       1.601   9.255  17.700  0.00  0.00    +0.000 C 
ATOM     12  N   UNL     1       1.266   9.441  19.126  0.00  0.00    +0.000 N 
ATOM     13  C   UNL     1       1.452   8.394  20.019  0.00  0.00    +0.000 A 
ATOM     14  N   UNL     1       1.008   8.366  21.231  0.00  0.00    +0.000 NA
ATOM     15  C   UNL     1       0.275   9.467  21.681  0.00  0.00    +0.000 A 
ATOM     16  C   UNL     1      -0.273   9.420  22.964  0.00  0.00    +0.000 A 
ATOM     17  C   UNL     1      -1.041  10.483  23.445  0.00  0.00    +0.000 A 
ATOM     18  C   UNL     1      -1.223  11.617  22.654  0.00  0.00    +0.000 A 
ATOM     19 CL   UNL     1      -2.150  12.933  23.262  0.00  0.00    +0.000 Cl
ATOM     20  C   UNL     1      -0.679  11.685  21.375  0.00  0.00    +0.000 A 
ATOM     21  C   UNL     1       0.047  10.593  20.888  0.00  0.00    +0.000 A 
ATOM     22  C   UNL     1       0.528  10.557  19.491  0.00  0.00    +0.000 A 
ATOM     23  O   UNL     1       0.222  11.465  18.724  0.00  0.00    +0.000 OA
ATOM     24  H   UNL     1       2.024   5.848  21.068  0.00  0.00    +0.000 HD
ENDROOT
BRANCH   1  26
ATOM     25  C   UNL     1       6.679   4.489  16.028  0.00  0.00    +0.000 C 
ATOM     26  O   UNL     1       5.704   3.592  16.547  0.00  0.00    +0.000 OA
ENDBRANCH   1  26
TORSDOF 1
ENDMDL
MODEL 2
REMARK VINA RESULT:      -8.4      0.970      1.128
REMARK  Name = 
REMARK  2 active torsions:
REMARK  status: ('A' for Active; 'I' for Inactive)
REMARK    1  A    between atoms: C_1  and  O_2
REMARK    2  A    between atoms: O_2  and  C_3
REMARK                            x       y       z     vdW  Elec       q    Type
REMARK                         _______ _______ _______ _____ _____    ______ ____
ROOT
ATOM      1  C   UNL     1       4.018   4.251  18.462  0.00  0.00    +0.000 A 
ATOM      2  C   UNL     1       3.541   3.734  19.665  0.00  0.00    +0.000 A 
ATOM      3  C   UNL     1       2.720   4.495  20.506  0.00  0.00    +0.000 A 
ATOM      4  C   UNL     1       2.395   5.790  20.094  0.00  0.00    +0.000 A 
ATOM      5  N   UNL     1       1.641   6.749  20.731  0.00  0.00    +0.000 N 
ATOM      6  C   UNL     1       1.576   7.877  19.963  0.00  0.00    +0.000 A 
ATOM      7  C   UNL     1       2.306   7.653  18.815  0.00  0.00    +0.000 A 
ATOM      8  C   UNL     1       2.838   6.336  18.889  0.00  0.00    +0.000 A 
ATOM      9  C   UNL     1       3.663   5.551  18.062  0.00  0.00    +0.000 A 
ATOM     10  C   UNL     1       2.431   8.729  17.794  0.00  0.00    +0.000 C 
ATOM     11  C   UNL     1       1.211   9.671  17.891  0.00  0.00    +0.000 C 
ATOM     12  N   UNL     1       0.839  10.048  19.270  0.00  0.00    +0.000 N 
ATOM     13  C   UNL     1       0.897   9.099  20.282  0.00  0.00    +0.000 A 
ATOM     14  N   UNL     1       0.405   9.249  21.468  0.00  0.00    +0.000 NA
ATOM     15  C   UNL     1      -0.243  10.453  21.755  0.00  0.00    +0.000 A 
ATOM     16  C   UNL     1      -0.842  10.601  23.008  0.00  0.00    +0.000 A 
ATOM     17  C   UNL     1      -1.530  11.773  23.328  0.00  0.00    +0.000 A 
ATOM     18  C   UNL     1      -1.580  12.820  22.408  0.00  0.00    +0.000 A 
ATOM     19 CL   UNL     1      -2.408  14.271  22.819  0.00  0.00    +0.000 Cl
ATOM     20  C   UNL     1      -0.983  12.693  21.157  0.00  0.00    +0.000 A 
ATOM     21  C   UNL     1      -0.339  11.494  20.831  0.00  0.00    +0.000 A 
ATOM     22  C   UNL     1       0.190  11.257  19.472  0.00  0.00    +0.000 A 
ATOM     23  O   UNL     1      -0.004  12.092  18.594  0.00  0.00    +0.000 OA
ATOM     24  H   UNL     1       1.199   6.653  21.637  0.00  0.00    +0.000 HD
ENDROOT
BRANCH   1  26
ATOM     25  C   UNL     1       5.148   4.260  16.367  0.00  0.00    +0.000 C 
ATOM     26  O   UNL     1       4.833   3.586  17.581  0.00  0.00    +0.000 OA
ENDBRANCH   1  26
TORSDOF 1
ENDMDL
MODEL 3
REMARK VINA RESULT:      -8.2      1.480      1.773
REMARK  Name = 
REMARK  2 active torsions:
REMARK  status: ('A' for Active; 'I' for Inactive)
REMARK    1  A    between atoms: C_1  and  O_2
REMARK    2  A    between atoms: O_2  and  C_3
REMARK                            x       y       z     vdW  Elec       q    Type
REMARK                         _______ _______ _______ _____ _____    ______ ____
ROOT
ATOM      1  C   UNL     1       3.528   3.559  19.299  0.00  0.00    +0.000 A 
ATOM      2  C   UNL     1       2.891   3.230  20.494  0.00  0.00    +0.000 A 
ATOM      3  C   UNL     1       2.127   4.173  21.192  0.00  0.00    +0.000 A 
ATOM      4  C   UNL     1       2.024   5.455  20.646  0.00  0.00    +0.000 A 
ATOM      5  N   UNL     1       1.370   6.564  21.130  0.00  0.00    +0.000 N 
ATOM      6  C   UNL     1       1.527   7.612  20.267  0.00  0.00    +0.000 A 
ATOM      7  C   UNL     1       2.302   7.182  19.211  0.00  0.00    +0.000 A 
ATOM      8  C   UNL     1       2.632   5.817  19.443  0.00  0.00    +0.000 A 
ATOM      9  C   UNL     1       3.396   4.851  18.762  0.00  0.00    +0.000 A 
ATOM     10  C   UNL     1       2.658   8.128  18.119  0.00  0.00    +0.000 C 
ATOM     11  C   UNL     1       1.582   9.232  18.028  0.00  0.00    +0.000 C 
ATOM     12  N   UNL     1       1.164   9.787  19.331  0.00  0.00    +0.000 N 
ATOM     13  C   UNL     1       1.008   8.940  20.421  0.00  0.00    +0.000 A 
ATOM     14  N   UNL     1       0.454   9.268  21.542  0.00  0.00    +0.000 NA
ATOM     15  C   UNL     1      -0.034  10.572  21.668  0.00  0.00    +0.000 A 
ATOM     16  C   UNL     1      -0.699  10.919  22.846  0.00  0.00    +0.000 A 
ATOM     17  C   UNL     1      -1.233  12.200  23.004  0.00  0.00    +0.000 A 
ATOM     18  C   UNL     1      -1.062  13.150  21.998  0.00  0.00    +0.000 A 
ATOM     19 CL   UNL     1      -1.701  14.734  22.211  0.00  0.00    +0.000 Cl
ATOM     20  C   UNL     1      -0.396  12.824  20.820  0.00  0.00    +0.000 A 
ATOM     21  C   UNL     1       0.092  11.523  20.655  0.00  0.00    +0.000 A 
ATOM     22  C   UNL     1       0.683  11.086  19.373  0.00  0.00    +0.000 A 
ATOM     23  O   UNL     1       0.679  11.853  18.414  0.00  0.00    +0.000 OA
ATOM     24  H   UNL     1       0.851   6.617  21.998  0.00  0.00    +0.000 HD
ENDROOT
BRANCH   1  26
ATOM     25  C   UNL     1       3.685   1.509  18.101  0.00  0.00    +0.000 C 
ATOM     26  O   UNL     1       4.303   2.709  18.553  0.00  0.00    +0.000 OA
ENDBRANCH   1  26
TORSDOF 1
ENDMDL
MODEL 4
REMARK VINA RESULT:      -8.0      3.261      7.777
REMARK  Name = 
REMARK  2 active torsions:
REMARK  status: ('A' for Active; 'I' for Inactive)
REMARK    1  A    between atoms: C_1  and  O_2
REMARK    2  A    between atoms: O_2  and  C_3
REMARK                            x       y       z     vdW  Elec       q    Type
REMARK                         _______ _______ _______ _____ _____    ______ ____
ROOT
ATOM      1  C   UNL     1      -1.049  12.554  21.492  0.00  0.00    +0.000 A 
ATOM      2  C   UNL     1      -1.221  11.928  22.726  0.00  0.00    +0.000 A 
ATOM      3  C   UNL     1      -0.749  10.631  22.953  0.00  0.00    +0.000 A 
ATOM      4  C   UNL     1      -0.097   9.985  21.900  0.00  0.00    +0.000 A 
ATOM      5  N   UNL     1       0.432   8.717  21.842  0.00  0.00    +0.000 N 
ATOM      6  C   UNL     1       0.984   8.497  20.611  0.00  0.00    +0.000 A 
ATOM      7  C   UNL     1       0.803   9.635  19.854  0.00  0.00    +0.000 A 
ATOM      8  C   UNL     1       0.110  10.584  20.656  0.00  0.00    +0.000 A 
ATOM      9  C   UNL     1      -0.376  11.889  20.453  0.00  0.00    +0.000 A 
ATOM     10  C   UNL     1       1.288   9.674  18.447  0.00  0.00    +0.000 C 
ATOM     11  C   UNL     1       2.464   8.688  18.284  0.00  0.00    +0.000 C 
ATOM     12  N   UNL     1       2.250   7.371  18.917  0.00  0.00    +0.000 N 
ATOM     13  C   UNL     1       1.623   7.296  20.155  0.00  0.00    +0.000 A 
ATOM     14  N   UNL     1       1.566   6.239  20.894  0.00  0.00    +0.000 NA
ATOM     15  C   UNL     1       2.188   5.080  20.421  0.00  0.00    +0.000 A 
ATOM     16  C   UNL     1       2.198   3.950  21.241  0.00  0.00    +0.000 A 
ATOM     17  C   UNL     1       2.836   2.780  20.826  0.00  0.00    +0.000 A 
ATOM     18  C   UNL     1       3.429   2.727  19.564  0.00  0.00    +0.000 A 
ATOM     19 CL   UNL     1       4.193   1.274  19.048  0.00  0.00    +0.000 Cl
ATOM     20  C   UNL     1       3.424   3.842  18.731  0.00  0.00    +0.000 A 
ATOM     21  C   UNL     1       2.823   5.022  19.180  0.00  0.00    +0.000 A 
ATOM     22  C   UNL     1       2.910   6.270  18.394  0.00  0.00    +0.000 A 
ATOM     23  O   UNL     1       3.582   6.292  17.367  0.00  0.00    +0.000 OA
ATOM     24  H   UNL     1       0.419   8.031  22.587  0.00  0.00    +0.000 HD
ENDROOT
BRANCH   1  26
ATOM     25  C   UNL     1      -0.805  14.479  20.115  0.00  0.00    +0.000 C 
ATOM     26  O   UNL     1      -1.485  13.815  21.175  0.00  0.00    +0.000 OA
ENDBRANCH   1  26
TORSDOF 1
ENDMDL
MODEL 5
REMARK VINA RESULT:      -7.8      3.584      8.354
REMARK  Name = 
REMARK  2 active torsions:
REMARK  status: ('A' for Active; 'I' for Inactive)
REMARK    1  A    between atoms: C_1  and  O_2
REMARK    2  A    between atoms: O_2  and  C_3
REMARK                            x       y       z     vdW  Elec       q    Type
REMARK                         _______ _______ _______ _____ _____    ______ ____
ROOT
ATOM      1  C   UNL     1      -0.391  10.467  22.327  0.00  0.00    +0.000 A 
ATOM      2  C   UNL     1      -0.097  11.414  21.346  0.00  0.00    +0.000 A 
ATOM      3  C   UNL     1       0.647  11.075  20.211  0.00  0.00    +0.000 A 
ATOM      4  C   UNL     1       1.083   9.752  20.093  0.00  0.00    +0.000 A 
ATOM      5  N   UNL     1       1.844   9.164  19.110  0.00  0.00    +0.000 N 
ATOM      6  C   UNL     1       2.032   7.841  19.394  0.00  0.00    +0.000 A 
ATOM      7  C   UNL     1       1.394   7.566  20.585  0.00  0.00    +0.000 A 
ATOM      8  C   UNL     1       0.795   8.772  21.044  0.00  0.00    +0.000 A 
ATOM      9  C   UNL     1       0.046   9.140  22.178  0.00  0.00    +0.000 A 
ATOM     10  C   UNL     1       1.451   6.194  21.157  0.00  0.00    +0.000 C 
ATOM     11  C   UNL     1       1.664   5.173  20.019  0.00  0.00    +0.000 C 
ATOM     12  N   UNL     1       2.689   5.566  19.030  0.00  0.00    +0.000 N 
ATOM     13  C   UNL     1       2.777   6.890  18.620  0.00  0.00    +0.000 A 
ATOM     14  N   UNL     1       3.482   7.312  17.623  0.00  0.00    +0.000 NA
ATOM     15  C   UNL     1       4.206   6.366  16.892  0.00  0.00    +0.000 A 
ATOM     16  C   UNL     1       4.914   6.796  15.769  0.00  0.00    +0.000 A 
ATOM     17  C   UNL     1       5.625   5.883  14.988  0.00  0.00    +0.000 A 
ATOM     18  C   UNL     1       5.664   4.539  15.360  0.00  0.00    +0.000 A 
ATOM     19 CL   UNL     1       6.563   3.422  14.408  0.00  0.00    +0.000 Cl
ATOM     20  C   UNL     1       4.970   4.093  16.481  0.00  0.00    +0.000 A 
ATOM     21  C   UNL     1       4.222   5.011  17.226  0.00  0.00    +0.000 A 
ATOM     22  C   UNL     1       3.359   4.568  18.340  0.00  0.00    +0.000 A 
ATOM     23  O   UNL     1       3.237   3.368  18.569  0.00  0.00    +0.000 OA
ATOM     24  H   UNL     1       2.222   9.627  18.293  0.00  0.00    +0.000 HD
ENDROOT
BRANCH   1  26
ATOM     25  C   UNL     1      -2.080  11.741  23.416  0.00  0.00    +0.000 C 
ATOM     26  O   UNL     1      -1.102  10.708  23.474  0.00  0.00    +0.000 OA
ENDBRANCH   1  26
TORSDOF 1
ENDMDL
MODEL 6
REMARK VINA RESULT:      -7.7      3.438      8.328
REMARK  Name = 
REMARK  2 active torsions:
REMARK  status: ('A' for Active; 'I' for Inactive)
REMARK    1  A    between atoms: C_1  and  O_2
REMARK    2  A    between atoms: O_2  and  C_3
REMARK                            x       y       z     vdW  Elec       q    Type
REMARK                         _______ _______ _______ _____ _____    ______ ____
ROOT
ATOM      1  C   UNL     1      -1.426  12.201  20.813  0.00  0.00    +0.000 A 
ATOM      2  C   UNL     1      -1.271  12.715  19.526  0.00  0.00    +0.000 A 
ATOM      3  C   UNL     1      -0.457  12.077  18.584  0.00  0.00    +0.000 A 
ATOM      4  C   UNL     1       0.195  10.905  18.979  0.00  0.00    +0.000 A 
ATOM      5  N   UNL     1       1.063  10.105  18.274  0.00  0.00    +0.000 N 
ATOM      6  C   UNL     1       1.461   9.052  19.048  0.00  0.00    +0.000 A 
ATOM      7  C   UNL     1       0.850   9.174  20.278  0.00  0.00    +0.000 A 
ATOM      8  C   UNL     1       0.051  10.350  20.251  0.00  0.00    +0.000 A 
ATOM      9  C   UNL     1      -0.773  11.012  21.180  0.00  0.00    +0.000 A 
ATOM     10  C   UNL     1       1.121   8.170  21.343  0.00  0.00    +0.000 C 
ATOM     11  C   UNL     1       1.525   6.830  20.691  0.00  0.00    +0.000 C 
ATOM     12  N   UNL     1       2.492   6.957  19.583  0.00  0.00    +0.000 N 
ATOM     13  C   UNL     1       2.370   8.005  18.680  0.00  0.00    +0.000 A 
ATOM     14  N   UNL     1       3.017   8.104  17.566  0.00  0.00    +0.000 NA
ATOM     15  C   UNL     1       3.904   7.075  17.236  0.00  0.00    +0.000 A 
ATOM     16  C   UNL     1       4.556   7.132  16.003  0.00  0.00    +0.000 A 
ATOM     17  C   UNL     1       5.425   6.110  15.615  0.00  0.00    +0.000 A 
ATOM     18  C   UNL     1       5.677   5.049  16.485  0.00  0.00    +0.000 A 
ATOM     19 CL   UNL     1       6.769   3.806  16.011  0.00  0.00    +0.000 Cl
ATOM     20  C   UNL     1       5.041   4.980  17.721  0.00  0.00    +0.000 A 
ATOM     21  C   UNL     1       4.136   5.985  18.076  0.00  0.00    +0.000 A 
ATOM     22  C   UNL     1       3.333   5.888  19.312  0.00  0.00    +0.000 A 
ATOM     23  O   UNL     1       3.406   4.875  20.002  0.00  0.00    +0.000 OA
ATOM     24  H   UNL     1       1.378  10.260  17.324  0.00  0.00    +0.000 HD
ENDROOT
BRANCH   1  26
ATOM     25  C   UNL     1      -2.171  12.115  23.071  0.00  0.00    +0.000 C 
ATOM     26  O   UNL     1      -2.193  12.760  21.803  0.00  0.00    +0.000 OA
ENDBRANCH   1  26
TORSDOF 1
ENDMDL
MODEL 7
REMARK VINA RESULT:      -7.3      2.243      3.696
REMARK  Name = 
REMARK  2 active torsions:
REMARK  status: ('A' for Active; 'I' for Inactive)
REMARK    1  A    between atoms: C_1  and  O_2
REMARK    2  A    between atoms: O_2  and  C_3
REMARK                            x       y       z     vdW  Elec       q    Type
REMARK                         _______ _______ _______ _____ _____    ______ ____
ROOT
ATOM      1  C   UNL     1       2.940   4.622  19.347  0.00  0.00    +0.000 A 
ATOM      2  C   UNL     1       3.387   5.144  18.134  0.00  0.00    +0.000 A 
ATOM      3  C   UNL     1       3.159   6.481  17.792  0.00  0.00    +0.000 A 
ATOM      4  C   UNL     1       2.469   7.276  18.711  0.00  0.00    +0.000 A 
ATOM      5  N   UNL     1       2.091   8.596  18.619  0.00  0.00    +0.000 N 
ATOM      6  C   UNL     1       1.435   8.974  19.756  0.00  0.00    +0.000 A 
ATOM      7  C   UNL     1       1.376   7.882  20.596  0.00  0.00    +0.000 A 
ATOM      8  C   UNL     1       2.021   6.796  19.942  0.00  0.00    +0.000 A 
ATOM      9  C   UNL     1       2.262   5.446  20.261  0.00  0.00    +0.000 A 
ATOM     10  C   UNL     1       0.691   7.996  21.913  0.00  0.00    +0.000 C 
ATOM     11  C   UNL     1       0.726   9.466  22.382  0.00  0.00    +0.000 C 
ATOM     12  N   UNL     1       0.399  10.451  21.331  0.00  0.00    +0.000 N 
ATOM     13  C   UNL     1       0.875  10.263  20.040  0.00  0.00    +0.000 A 
ATOM     14  N   UNL     1       0.833  11.147  19.099  0.00  0.00    +0.000 NA
ATOM     15  C   UNL     1       0.273  12.391  19.400  0.00  0.00    +0.000 A 
ATOM     16  C   UNL     1       0.286  13.380  18.414  0.00  0.00    +0.000 A 
ATOM     17  C   UNL     1      -0.231  14.650  18.680  0.00  0.00    +0.000 A 
ATOM     18  C   UNL     1      -0.805  14.917  19.923  0.00  0.00    +0.000 A 
ATOM     19 CL   UNL     1      -1.463  16.476  20.235  0.00  0.00    +0.000 Cl
ATOM     20  C   UNL     1      -0.832  13.942  20.915  0.00  0.00    +0.000 A 
ATOM     21  C   UNL     1      -0.266  12.689  20.652  0.00  0.00    +0.000 A 
ATOM     22  C   UNL     1      -0.146  11.668  21.712  0.00  0.00    +0.000 A 
ATOM     23  O   UNL     1      -0.480  11.946  22.860  0.00  0.00    +0.000 OA
ATOM     24  H   UNL     1       2.259   9.209  17.830  0.00  0.00    +0.000 HD
ENDROOT
BRANCH   1  26
ATOM     25  C   UNL     1       4.421   2.787  19.667  0.00  0.00    +0.000 C 
ATOM     26  O   UNL     1       3.107   3.326  19.763  0.00  0.00    +0.000 OA
ENDBRANCH   1  26
TORSDOF 1
ENDMDL
MODEL 8
REMARK VINA RESULT:      -7.3      3.238      8.060
REMARK  Name = 
REMARK  2 active torsions:
REMARK  status: ('A' for Active; 'I' for Inactive)
REMARK    1  A    between atoms: C_1  and  O_2
REMARK    2  A    between atoms: O_2  and  C_3
REMARK                            x       y       z     vdW  Elec       q    Type
REMARK                         _______ _______ _______ _____ _____    ______ ____
ROOT
ATOM      1  C   UNL     1      -1.709  13.459  21.775  0.00  0.00    +0.000 A 
ATOM      2  C   UNL     1      -1.832  12.754  22.972  0.00  0.00    +0.000 A 
ATOM      3  C   UNL     1      -1.284  11.475  23.119  0.00  0.00    +0.000 A 
ATOM      4  C   UNL     1      -0.607  10.930  22.025  0.00  0.00    +0.000 A 
ATOM      5  N   UNL     1      -0.007   9.700  21.890  0.00  0.00    +0.000 N 
ATOM      6  C   UNL     1       0.544   9.584  20.645  0.00  0.00    +0.000 A 
ATOM      7  C   UNL     1       0.290  10.751  19.956  0.00  0.00    +0.000 A 
ATOM      8  C   UNL     1      -0.447  11.611  20.817  0.00  0.00    +0.000 A 
ATOM      9  C   UNL     1      -1.009  12.895  20.694  0.00  0.00    +0.000 A 
ATOM     10  C   UNL     1       0.757  10.900  18.551  0.00  0.00    +0.000 C 
ATOM     11  C   UNL     1       1.987   9.994  18.323  0.00  0.00    +0.000 C 
ATOM     12  N   UNL     1       1.854   8.632  18.880  0.00  0.00    +0.000 N 
ATOM     13  C   UNL     1       1.245   8.450  20.115  0.00  0.00    +0.000 A 
ATOM     14  N   UNL     1       1.257   7.350  20.792  0.00  0.00    +0.000 NA
ATOM     15  C   UNL     1       1.939   6.259  20.248  0.00  0.00    +0.000 A 
ATOM     16  C   UNL     1       2.021   5.086  21.001  0.00  0.00    +0.000 A 
ATOM     17  C   UNL     1       2.721   3.980  20.513  0.00  0.00    +0.000 A 
ATOM     18  C   UNL     1       3.304   4.034  19.247  0.00  0.00    +0.000 A 
ATOM     19 CL   UNL     1       4.144   2.660  18.641  0.00  0.00    +0.000 Cl
ATOM     20  C   UNL     1       3.226   5.193  18.480  0.00  0.00    +0.000 A 
ATOM     21  C   UNL     1       2.564   6.309  19.001  0.00  0.00    +0.000 A 
ATOM     22  C   UNL     1       2.571   7.603  18.288  0.00  0.00    +0.000 A 
ATOM     23  O   UNL     1       3.231   7.723  17.260  0.00  0.00    +0.000 OA
ATOM     24  H   UNL     1       0.026   8.973  22.594  0.00  0.00    +0.000 HD
ENDROOT
BRANCH   1  26
ATOM     25  C   UNL     1      -2.964  15.310  22.588  0.00  0.00    +0.000 C 
ATOM     26  O   UNL     1      -2.219  14.709  21.534  0.00  0.00    +0.000 OA
ENDBRANCH   1  26
TORSDOF 1
ENDMDL
MODEL 9
REMARK VINA RESULT:      -7.3      1.875      3.174
REMARK  Name = 
REMARK  2 active torsions:
REMARK  status: ('A' for Active; 'I' for Inactive)
REMARK    1  A    between atoms: C_1  and  O_2
REMARK    2  A    between atoms: O_2  and  C_3
REMARK                            x       y       z     vdW  Elec       q    Type
REMARK                         _______ _______ _______ _____ _____    ______ ____
ROOT
ATOM      1  C   UNL     1       4.048   4.413  17.988  0.00  0.00    +0.000 A 
ATOM      2  C   UNL     1       4.553   5.203  16.957  0.00  0.00    +0.000 A 
ATOM      3  C   UNL     1       4.206   6.553  16.841  0.00  0.00    +0.000 A 
ATOM      4  C   UNL     1       3.335   7.082  17.798  0.00  0.00    +0.000 A 
ATOM      5  N   UNL     1       2.815   8.352  17.904  0.00  0.00    +0.000 N 
ATOM      6  C   UNL     1       2.006   8.434  19.001  0.00  0.00    +0.000 A 
ATOM      7  C   UNL     1       1.990   7.198  19.613  0.00  0.00    +0.000 A 
ATOM      8  C   UNL     1       2.823   6.328  18.855  0.00  0.00    +0.000 A 
ATOM      9  C   UNL     1       3.186   4.972  18.947  0.00  0.00    +0.000 A 
ATOM     10  C   UNL     1       1.163   6.984  20.832  0.00  0.00    +0.000 C 
ATOM     11  C   UNL     1       0.976   8.330  21.565  0.00  0.00    +0.000 C 
ATOM     12  N   UNL     1       0.645   9.466  20.681  0.00  0.00    +0.000 N 
ATOM     13  C   UNL     1       1.271   9.583  19.447  0.00  0.00    +0.000 A 
ATOM     14  N   UNL     1       1.222  10.626  18.686  0.00  0.00    +0.000 NA
ATOM     15  C   UNL     1       0.492  11.727  19.140  0.00  0.00    +0.000 A 
ATOM     16  C   UNL     1       0.490  12.887  18.362  0.00  0.00    +0.000 A 
ATOM     17  C   UNL     1      -0.198  14.024  18.791  0.00  0.00    +0.000 A 
ATOM     18  C   UNL     1      -0.924  13.986  19.981  0.00  0.00    +0.000 A 
ATOM     19 CL   UNL     1      -1.790  15.383  20.491  0.00  0.00    +0.000 Cl
ATOM     20  C   UNL     1      -0.939  12.836  20.766  0.00  0.00    +0.000 A 
ATOM     21  C   UNL     1      -0.206  11.720  20.349  0.00  0.00    +0.000 A 
ATOM     22  C   UNL     1      -0.076  10.526  21.209  0.00  0.00    +0.000 A 
ATOM     23  O   UNL     1      -0.557  10.541  22.338  0.00  0.00    +0.000 OA
ATOM     24  H   UNL     1       2.990   9.121  17.270  0.00  0.00    +0.000 HD
ENDROOT
BRANCH   1  26
ATOM     25  C   UNL     1       3.207   2.200  18.238  0.00  0.00    +0.000 C 
ATOM     26  O   UNL     1       4.323   3.082  18.175  0.00  0.00    +0.000 OA
ENDBRANCH   1  26
TORSDOF 1
ENDMDL
