MODEL 1
REMARK VINA RESULT:      -7.7      0.000      0.000
REMARK  Name = 
REMARK  4 active torsions:
REMARK  status: ('A' for Active; 'I' for Inactive)
REMARK    1  A    between atoms: C_1  and  C_2
REMARK    2  A    between atoms: N_5  and  N_6
REMARK    3  A    between atoms: N_6  and  C_7
REMARK    4  A    between atoms: C_14  and  C_15
REMARK                            x       y       z     vdW  Elec       q    Type
REMARK                         _______ _______ _______ _____ _____    ______ ____
ROOT
ATOM      1  C   UNL     1       2.517   2.215  18.030  0.00  0.00    +0.000 C 
ATOM      2  C   UNL     1       1.957   3.350  18.870  0.00  0.00    +0.000 C 
ATOM      3  N   UNL     1       2.148   3.089  20.346  0.00  0.00    +0.000 NA
ATOM      4  C   UNL     1       2.281   4.300  20.816  0.00  0.00    +0.000 C 
ATOM      5  N   UNL     1       2.317   5.353  19.939  0.00  0.00    +0.000 N 
ATOM      6  C   UNL     1       2.527   4.778  18.602  0.00  0.00    +0.000 C 
ENDROOT
BRANCH   6   7
ATOM      7  C   UNL     1       3.983   4.828  18.151  0.00  0.00    +0.000 A 
ATOM      8  C   UNL     1       5.059   4.704  19.048  0.00  0.00    +0.000 A 
ATOM      9  C   UNL     1       6.374   4.609  18.589  0.00  0.00    +0.000 A 
ATOM     10  C   UNL     1       6.640   4.663  17.223  0.00  0.00    +0.000 A 
ATOM     11  C   UNL     1       5.591   4.836  16.326  0.00  0.00    +0.000 A 
ATOM     12 CL   UNL     1       5.916   4.907  14.637  0.00  0.00    +0.000 Cl
ATOM     13  C   UNL     1       4.273   4.924  16.780  0.00  0.00    +0.000 A 
ENDBRANCH   6   7
BRANCH   5  14
ATOM     14  N   UNL     1       2.719   6.633  20.248  0.00  0.00    +0.000 N 
ATOM     15  H   UNL     1       2.838   6.800  21.251  0.00  0.00    +0.000 HD
BRANCH  14  16
ATOM     16  C   UNL     1       2.058   7.756  19.689  0.00  0.00    +0.000 A 
ATOM     17  C   UNL     1       2.222   8.143  18.352  0.00  0.00    +0.000 A 
ATOM     18  C   UNL     1       1.596   9.293  17.859  0.00  0.00    +0.000 A 
ATOM     19  C   UNL     1       0.784  10.052  18.698  0.00  0.00    +0.000 A 
ATOM     20  C   UNL     1       0.562   9.635  20.008  0.00  0.00    +0.000 A 
ATOM     21 CL   UNL     1      -0.455  10.564  21.041  0.00  0.00    +0.000 Cl
ATOM     22  C   UNL     1       1.177   8.486  20.498  0.00  0.00    +0.000 A 
ENDBRANCH  14  16
ENDBRANCH   5  14
TORSDOF 3
ENDMDL
MODEL 2
REMARK VINA RESULT:      -7.7      2.213      5.378
REMARK  Name = 
REMARK  4 active torsions:
REMARK  status: ('A' for Active; 'I' for Inactive)
REMARK    1  A    between atoms: C_1  and  C_2
REMARK    2  A    between atoms: N_5  and  N_6
REMARK    3  A    between atoms: N_6  and  C_7
REMARK    4  A    between atoms: C_14  and  C_15
REMARK                            x       y       z     vdW  Elec       q    Type
REMARK                         _______ _______ _______ _____ _____    ______ ____
ROOT
ATOM      1  C   UNL     1       0.582   3.010  19.225  0.00  0.00    +0.000 C 
ATOM      2  C   UNL     1       2.016   2.519  19.322  0.00  0.00    +0.000 C 
ATOM      3  N   UNL     1       2.517   2.016  17.988  0.00  0.00    +0.000 NA
ATOM      4  C   UNL     1       3.791   2.297  18.058  0.00  0.00    +0.000 C 
ATOM      5  N   UNL     1       4.259   2.988  19.145  0.00  0.00    +0.000 N 
ATOM      6  C   UNL     1       3.081   3.538  19.832  0.00  0.00    +0.000 C 
ENDROOT
BRANCH   6   7
ATOM      7  C   UNL     1       2.812   4.998  19.482  0.00  0.00    +0.000 A 
ATOM      8  C   UNL     1       2.895   5.489  18.166  0.00  0.00    +0.000 A 
ATOM      9  C   UNL     1       2.503   6.793  17.856  0.00  0.00    +0.000 A 
ATOM     10  C   UNL     1       2.045   7.640  18.862  0.00  0.00    +0.000 A 
ATOM     11  C   UNL     1       2.004   7.184  20.177  0.00  0.00    +0.000 A 
ATOM     12 CL   UNL     1       1.442   8.229  21.425  0.00  0.00    +0.000 Cl
ATOM     13  C   UNL     1       2.389   5.878  20.491  0.00  0.00    +0.000 A 
ENDBRANCH   6   7
BRANCH   5  14
ATOM     14  N   UNL     1       5.495   3.587  19.235  0.00  0.00    +0.000 N 
ATOM     15  H   UNL     1       5.658   4.074  20.121  0.00  0.00    +0.000 HD
BRANCH  14  16
ATOM     16  C   UNL     1       5.982   4.407  18.185  0.00  0.00    +0.000 A 
ATOM     17  C   UNL     1       5.858   4.059  16.833  0.00  0.00    +0.000 A 
ATOM     18  C   UNL     1       6.405   4.870  15.833  0.00  0.00    +0.000 A 
ATOM     19  C   UNL     1       7.065   6.046  16.181  0.00  0.00    +0.000 A 
ATOM     20  C   UNL     1       7.132   6.432  17.517  0.00  0.00    +0.000 A 
ATOM     21 CL   UNL     1       7.932   7.894  17.946  0.00  0.00    +0.000 Cl
ATOM     22  C   UNL     1       6.579   5.631  18.513  0.00  0.00    +0.000 A 
ENDBRANCH  14  16
ENDBRANCH   5  14
TORSDOF 3
ENDMDL
MODEL 3
REMARK VINA RESULT:      -7.6      1.248      1.598
REMARK  Name = 
REMARK  4 active torsions:
REMARK  status: ('A' for Active; 'I' for Inactive)
REMARK    1  A    between atoms: C_1  and  C_2
REMARK    2  A    between atoms: N_5  and  N_6
REMARK    3  A    between atoms: N_6  and  C_7
REMARK    4  A    between atoms: C_14  and  C_15
REMARK                            x       y       z     vdW  Elec       q    Type
REMARK                         _______ _______ _______ _____ _____    ______ ____
ROOT
ATOM      1  C   UNL     1       1.739   2.114  18.770  0.00  0.00    +0.000 C 
ATOM      2  C   UNL     1       1.388   3.389  19.519  0.00  0.00    +0.000 C 
ATOM      3  N   UNL     1       1.741   3.281  20.984  0.00  0.00    +0.000 NA
ATOM      4  C   UNL     1       2.035   4.519  21.279  0.00  0.00    +0.000 C 
ATOM      5  N   UNL     1       2.050   5.454  20.277  0.00  0.00    +0.000 N 
ATOM      6  C   UNL     1       2.039   4.712  19.009  0.00  0.00    +0.000 C 
ENDROOT
BRANCH   6   7
ATOM      7  C   UNL     1       3.426   4.564  18.390  0.00  0.00    +0.000 A 
ATOM      8  C   UNL     1       3.623   4.126  17.068  0.00  0.00    +0.000 A 
ATOM      9  C   UNL     1       4.892   4.141  16.486  0.00  0.00    +0.000 A 
ATOM     10  C   UNL     1       5.993   4.569  17.224  0.00  0.00    +0.000 A 
ATOM     11  C   UNL     1       5.821   4.958  18.549  0.00  0.00    +0.000 A 
ATOM     12 CL   UNL     1       7.179   5.484  19.467  0.00  0.00    +0.000 Cl
ATOM     13  C   UNL     1       4.552   4.952  19.134  0.00  0.00    +0.000 A 
ENDBRANCH   6   7
BRANCH   5  14
ATOM     14  N   UNL     1       2.595   6.715  20.374  0.00  0.00    +0.000 N 
ATOM     15  H   UNL     1       2.822   6.998  21.332  0.00  0.00    +0.000 HD
BRANCH  14  16
ATOM     16  C   UNL     1       1.991   7.819  19.721  0.00  0.00    +0.000 A 
ATOM     17  C   UNL     1       2.252   8.141  18.381  0.00  0.00    +0.000 A 
ATOM     18  C   UNL     1       1.679   9.275  17.794  0.00  0.00    +0.000 A 
ATOM     19  C   UNL     1       0.824  10.083  18.541  0.00  0.00    +0.000 A 
ATOM     20  C   UNL     1       0.508   9.730  19.851  0.00  0.00    +0.000 A 
ATOM     21 CL   UNL     1      -0.561  10.720  20.767  0.00  0.00    +0.000 Cl
ATOM     22  C   UNL     1       1.069   8.598  20.433  0.00  0.00    +0.000 A 
ENDBRANCH  14  16
ENDBRANCH   5  14
TORSDOF 3
ENDMDL
MODEL 4
REMARK VINA RESULT:      -7.6      2.523      5.113
REMARK  Name = 
REMARK  4 active torsions:
REMARK  status: ('A' for Active; 'I' for Inactive)
REMARK    1  A    between atoms: C_1  and  C_2
REMARK    2  A    between atoms: N_5  and  N_6
REMARK    3  A    between atoms: N_6  and  C_7
REMARK    4  A    between atoms: C_14  and  C_15
REMARK                            x       y       z     vdW  Elec       q    Type
REMARK                         _______ _______ _______ _____ _____    ______ ____
ROOT
ATOM      1  C   UNL     1       0.534   2.555  18.966  0.00  0.00    +0.000 C 
ATOM      2  C   UNL     1       2.008   2.188  18.979  0.00  0.00    +0.000 C 
ATOM      3  N   UNL     1       2.559   2.077  17.577  0.00  0.00    +0.000 NA
ATOM      4  C   UNL     1       3.800   2.446  17.748  0.00  0.00    +0.000 C 
ATOM      5  N   UNL     1       4.196   2.889  18.983  0.00  0.00    +0.000 N 
ATOM      6  C   UNL     1       2.969   3.144  19.752  0.00  0.00    +0.000 C 
ENDROOT
BRANCH   6   7
ATOM      7  C   UNL     1       2.564   4.614  19.761  0.00  0.00    +0.000 A 
ATOM      8  C   UNL     1       1.918   5.215  20.857  0.00  0.00    +0.000 A 
ATOM      9  C   UNL     1       1.691   6.592  20.894  0.00  0.00    +0.000 A 
ATOM     10  C   UNL     1       2.083   7.392  19.823  0.00  0.00    +0.000 A 
ATOM     11  C   UNL     1       2.678   6.804  18.710  0.00  0.00    +0.000 A 
ATOM     12 CL   UNL     1       3.161   7.788  17.383  0.00  0.00    +0.000 Cl
ATOM     13  C   UNL     1       2.914   5.428  18.672  0.00  0.00    +0.000 A 
ENDBRANCH   6   7
BRANCH   5  14
ATOM     14  N   UNL     1       5.370   3.558  19.250  0.00  0.00    +0.000 N 
ATOM     15  H   UNL     1       5.384   4.028  20.159  0.00  0.00    +0.000 HD
BRANCH  14  16
ATOM     16  C   UNL     1       5.939   4.436  18.292  0.00  0.00    +0.000 A 
ATOM     17  C   UNL     1       5.790   4.247  16.911  0.00  0.00    +0.000 A 
ATOM     18  C   UNL     1       6.418   5.105  16.001  0.00  0.00    +0.000 A 
ATOM     19  C   UNL     1       7.183   6.170  16.470  0.00  0.00    +0.000 A 
ATOM     20  C   UNL     1       7.279   6.403  17.840  0.00  0.00    +0.000 A 
ATOM     21 CL   UNL     1       8.211   7.729  18.419  0.00  0.00    +0.000 Cl
ATOM     22  C   UNL     1       6.647   5.556  18.746  0.00  0.00    +0.000 A 
ENDBRANCH  14  16
ENDBRANCH   5  14
TORSDOF 3
ENDMDL
MODEL 5
REMARK VINA RESULT:      -7.6      1.453      1.801
REMARK  Name = 
REMARK  4 active torsions:
REMARK  status: ('A' for Active; 'I' for Inactive)
REMARK    1  A    between atoms: C_1  and  C_2
REMARK    2  A    between atoms: N_5  and  N_6
REMARK    3  A    between atoms: N_6  and  C_7
REMARK    4  A    between atoms: C_14  and  C_15
REMARK                            x       y       z     vdW  Elec       q    Type
REMARK                         _______ _______ _______ _____ _____    ______ ____
ROOT
ATOM      1  C   UNL     1       3.247   1.862  18.194  0.00  0.00    +0.000 C 
ATOM      2  C   UNL     1       2.612   3.189  18.574  0.00  0.00    +0.000 C 
ATOM      3  N   UNL     1       2.747   3.459  20.055  0.00  0.00    +0.000 NA
ATOM      4  C   UNL     1       2.818   4.763  20.083  0.00  0.00    +0.000 C 
ATOM      5  N   UNL     1       2.858   5.451  18.898  0.00  0.00    +0.000 N 
ATOM      6  C   UNL     1       3.145   4.463  17.848  0.00  0.00    +0.000 C 
ENDROOT
BRANCH   6   7
ATOM      7  C   UNL     1       4.617   4.424  17.450  0.00  0.00    +0.000 A 
ATOM      8  C   UNL     1       5.043   4.083  16.153  0.00  0.00    +0.000 A 
ATOM      9  C   UNL     1       6.384   4.196  15.781  0.00  0.00    +0.000 A 
ATOM     10  C   UNL     1       7.329   4.629  16.707  0.00  0.00    +0.000 A 
ATOM     11  C   UNL     1       6.931   4.923  18.009  0.00  0.00    +0.000 A 
ATOM     12 CL   UNL     1       8.097   5.455  19.158  0.00  0.00    +0.000 Cl
ATOM     13  C   UNL     1       5.589   4.818  18.384  0.00  0.00    +0.000 A 
ENDBRANCH   6   7
BRANCH   5  14
ATOM     14  N   UNL     1       3.202   6.777  18.759  0.00  0.00    +0.000 N 
ATOM     15  H   UNL     1       4.057   7.039  19.257  0.00  0.00    +0.000 HD
BRANCH  14  16
ATOM     16  C   UNL     1       2.242   7.801  18.963  0.00  0.00    +0.000 A 
ATOM     17  C   UNL     1       1.768   8.612  17.922  0.00  0.00    +0.000 A 
ATOM     18  C   UNL     1       0.865   9.649  18.179  0.00  0.00    +0.000 A 
ATOM     19  C   UNL     1       0.416   9.869  19.479  0.00  0.00    +0.000 A 
ATOM     20  C   UNL     1       0.831   9.025  20.506  0.00  0.00    +0.000 A 
ATOM     21 CL   UNL     1       0.263   9.286  22.109  0.00  0.00    +0.000 Cl
ATOM     22  C   UNL     1       1.722   7.986  20.250  0.00  0.00    +0.000 A 
ENDBRANCH  14  16
ENDBRANCH   5  14
TORSDOF 3
ENDMDL
MODEL 6
REMARK VINA RESULT:      -7.6      2.291      5.278
REMARK  Name = 
REMARK  4 active torsions:
REMARK  status: ('A' for Active; 'I' for Inactive)
REMARK    1  A    between atoms: C_1  and  C_2
REMARK    2  A    between atoms: N_5  and  N_6
REMARK    3  A    between atoms: N_6  and  C_7
REMARK    4  A    between atoms: C_14  and  C_15
REMARK                            x       y       z     vdW  Elec       q    Type
REMARK                         _______ _______ _______ _____ _____    ______ ____
ROOT
ATOM      1  C   UNL     1       0.472   2.646  18.834  0.00  0.00    +0.000 C 
ATOM      2  C   UNL     1       1.931   2.231  18.915  0.00  0.00    +0.000 C 
ATOM      3  N   UNL     1       2.549   2.117  17.541  0.00  0.00    +0.000 NA
ATOM      4  C   UNL     1       3.791   2.444  17.778  0.00  0.00    +0.000 C 
ATOM      5  N   UNL     1       4.138   2.859  19.038  0.00  0.00    +0.000 N 
ATOM      6  C   UNL     1       2.883   3.145  19.748  0.00  0.00    +0.000 C 
ENDROOT
BRANCH   6   7
ATOM      7  C   UNL     1       2.526   4.628  19.756  0.00  0.00    +0.000 A 
ATOM      8  C   UNL     1       1.896   5.250  20.850  0.00  0.00    +0.000 A 
ATOM      9  C   UNL     1       1.713   6.634  20.886  0.00  0.00    +0.000 A 
ATOM     10  C   UNL     1       2.134   7.420  19.816  0.00  0.00    +0.000 A 
ATOM     11  C   UNL     1       2.713   6.814  18.705  0.00  0.00    +0.000 A 
ATOM     12 CL   UNL     1       3.232   7.781  17.379  0.00  0.00    +0.000 Cl
ATOM     13  C   UNL     1       2.905   5.431  18.667  0.00  0.00    +0.000 A 
ENDBRANCH   6   7
BRANCH   5  14
ATOM     14  N   UNL     1       5.318   3.486  19.371  0.00  0.00    +0.000 N 
ATOM     15  H   UNL     1       5.321   3.896  20.310  0.00  0.00    +0.000 HD
BRANCH  14  16
ATOM     16  C   UNL     1       5.923   4.413  18.485  0.00  0.00    +0.000 A 
ATOM     17  C   UNL     1       6.599   5.557  18.932  0.00  0.00    +0.000 A 
ATOM     18  C   UNL     1       7.130   6.476  18.019  0.00  0.00    +0.000 A 
ATOM     19  C   UNL     1       7.004   6.244  16.652  0.00  0.00    +0.000 A 
ATOM     20  C   UNL     1       6.393   5.076  16.202  0.00  0.00    +0.000 A 
ATOM     21 CL   UNL     1       6.251   4.781  14.512  0.00  0.00    +0.000 Cl
ATOM     22  C   UNL     1       5.873   4.156  17.109  0.00  0.00    +0.000 A 
ENDBRANCH  14  16
ENDBRANCH   5  14
TORSDOF 3
ENDMDL
MODEL 7
REMARK VINA RESULT:      -7.6      3.681      4.986
REMARK  Name = 
REMARK  4 active torsions:
REMARK  status: ('A' for Active; 'I' for Inactive)
REMARK    1  A    between atoms: C_1  and  C_2
REMARK    2  A    between atoms: N_5  and  N_6
REMARK    3  A    between atoms: N_6  and  C_7
REMARK    4  A    between atoms: C_14  and  C_15
REMARK                            x       y       z     vdW  Elec       q    Type
REMARK                         _______ _______ _______ _____ _____    ______ ____
ROOT
ATOM      1  C   UNL     1       7.388   5.127  14.733  0.00  0.00    +0.000 C 
ATOM      2  C   UNL     1       5.922   4.999  15.112  0.00  0.00    +0.000 C 
ATOM      3  N   UNL     1       5.600   3.606  15.602  0.00  0.00    +0.000 NA
ATOM      4  C   UNL     1       4.645   3.840  16.461  0.00  0.00    +0.000 C 
ATOM      5  N   UNL     1       4.304   5.139  16.738  0.00  0.00    +0.000 N 
ATOM      6  C   UNL     1       5.383   5.980  16.198  0.00  0.00    +0.000 C 
ENDROOT
BRANCH   6   7
ATOM      7  C   UNL     1       6.395   6.406  17.257  0.00  0.00    +0.000 A 
ATOM      8  C   UNL     1       6.891   5.521  18.231  0.00  0.00    +0.000 A 
ATOM      9  C   UNL     1       7.922   5.901  19.093  0.00  0.00    +0.000 A 
ATOM     10  C   UNL     1       8.459   7.183  19.014  0.00  0.00    +0.000 A 
ATOM     11  C   UNL     1       7.944   8.086  18.089  0.00  0.00    +0.000 A 
ATOM     12 CL   UNL     1       8.603   9.674  17.990  0.00  0.00    +0.000 Cl
ATOM     13  C   UNL     1       6.918   7.709  17.219  0.00  0.00    +0.000 A 
ENDBRANCH   6   7
BRANCH   5  14
ATOM     14  N   UNL     1       3.527   5.549  17.798  0.00  0.00    +0.000 N 
ATOM     15  H   UNL     1       4.045   6.053  18.523  0.00  0.00    +0.000 HD
BRANCH  14  16
ATOM     16  C   UNL     1       2.639   4.647  18.438  0.00  0.00    +0.000 A 
ATOM     17  C   UNL     1       1.560   4.048  17.774  0.00  0.00    +0.000 A 
ATOM     18  C   UNL     1       0.675   3.210  18.461  0.00  0.00    +0.000 A 
ATOM     19  C   UNL     1       0.877   2.951  19.814  0.00  0.00    +0.000 A 
ATOM     20  C   UNL     1       1.986   3.489  20.463  0.00  0.00    +0.000 A 
ATOM     21 CL   UNL     1       2.244   3.156  22.132  0.00  0.00    +0.000 Cl
ATOM     22  C   UNL     1       2.873   4.315  19.779  0.00  0.00    +0.000 A 
ENDBRANCH  14  16
ENDBRANCH   5  14
TORSDOF 3
ENDMDL
MODEL 8
REMARK VINA RESULT:      -7.5      1.940      5.648
REMARK  Name = 
REMARK  4 active torsions:
REMARK  status: ('A' for Active; 'I' for Inactive)
REMARK    1  A    between atoms: C_1  and  C_2
REMARK    2  A    between atoms: N_5  and  N_6
REMARK    3  A    between atoms: N_6  and  C_7
REMARK    4  A    between atoms: C_14  and  C_15
REMARK                            x       y       z     vdW  Elec       q    Type
REMARK                         _______ _______ _______ _____ _____    ______ ____
ROOT
ATOM      1  C   UNL     1       0.548   3.084  19.175  0.00  0.00    +0.000 C 
ATOM      2  C   UNL     1       1.972   2.566  19.286  0.00  0.00    +0.000 C 
ATOM      3  N   UNL     1       2.484   2.076  17.951  0.00  0.00    +0.000 NA
ATOM      4  C   UNL     1       3.761   2.333  18.045  0.00  0.00    +0.000 C 
ATOM      5  N   UNL     1       4.225   2.999  19.150  0.00  0.00    +0.000 N 
ATOM      6  C   UNL     1       3.047   3.559  19.828  0.00  0.00    +0.000 C 
ENDROOT
BRANCH   6   7
ATOM      7  C   UNL     1       2.809   5.029  19.497  0.00  0.00    +0.000 A 
ATOM      8  C   UNL     1       2.975   5.550  18.200  0.00  0.00    +0.000 A 
ATOM      9  C   UNL     1       2.611   6.863  17.899  0.00  0.00    +0.000 A 
ATOM     10  C   UNL     1       2.096   7.689  18.895  0.00  0.00    +0.000 A 
ATOM     11  C   UNL     1       1.972   7.203  20.193  0.00  0.00    +0.000 A 
ATOM     12 CL   UNL     1       1.340   8.222  21.429  0.00  0.00    +0.000 Cl
ATOM     13  C   UNL     1       2.329   5.888  20.499  0.00  0.00    +0.000 A 
ENDBRANCH   6   7
BRANCH   5  14
ATOM     14  N   UNL     1       5.471   3.575  19.267  0.00  0.00    +0.000 N 
ATOM     15  H   UNL     1       5.621   4.063  20.154  0.00  0.00    +0.000 HD
BRANCH  14  16
ATOM     16  C   UNL     1       5.998   4.381  18.226  0.00  0.00    +0.000 A 
ATOM     17  C   UNL     1       6.587   5.631  18.462  0.00  0.00    +0.000 A 
ATOM     18  C   UNL     1       7.042   6.419  17.399  0.00  0.00    +0.000 A 
ATOM     19  C   UNL     1       6.926   5.950  16.092  0.00  0.00    +0.000 A 
ATOM     20  C   UNL     1       6.405   4.680  15.856  0.00  0.00    +0.000 A 
ATOM     21 CL   UNL     1       6.278   4.094  14.243  0.00  0.00    +0.000 Cl
ATOM     22  C   UNL     1       5.961   3.891  16.914  0.00  0.00    +0.000 A 
ENDBRANCH  14  16
ENDBRANCH   5  14
TORSDOF 3
ENDMDL
MODEL 9
REMARK VINA RESULT:      -7.4      1.492      1.888
REMARK  Name = 
REMARK  4 active torsions:
REMARK  status: ('A' for Active; 'I' for Inactive)
REMARK    1  A    between atoms: C_1  and  C_2
REMARK    2  A    between atoms: N_5  and  N_6
REMARK    3  A    between atoms: N_6  and  C_7
REMARK    4  A    between atoms: C_14  and  C_15
REMARK                            x       y       z     vdW  Elec       q    Type
REMARK                         _______ _______ _______ _____ _____    ______ ____
ROOT
ATOM      1  C   UNL     1       2.119   2.152  19.121  0.00  0.00    +0.000 C 
ATOM      2  C   UNL     1       1.646   3.508  19.616  0.00  0.00    +0.000 C 
ATOM      3  N   UNL     1       1.945   3.692  21.085  0.00  0.00    +0.000 NA
ATOM      4  C   UNL     1       2.136   4.982  21.159  0.00  0.00    +0.000 C 
ATOM      5  N   UNL     1       2.124   5.722  20.005  0.00  0.00    +0.000 N 
ATOM      6  C   UNL     1       2.220   4.766  18.892  0.00  0.00    +0.000 C 
ENDROOT
BRANCH   6   7
ATOM      7  C   UNL     1       3.638   4.621  18.350  0.00  0.00    +0.000 A 
ATOM      8  C   UNL     1       3.908   4.147  17.053  0.00  0.00    +0.000 A 
ATOM      9  C   UNL     1       5.205   4.162  16.535  0.00  0.00    +0.000 A 
ATOM     10  C   UNL     1       6.260   4.629  17.315  0.00  0.00    +0.000 A 
ATOM     11  C   UNL     1       6.016   5.054  18.617  0.00  0.00    +0.000 A 
ATOM     12 CL   UNL     1       7.319   5.628  19.585  0.00  0.00    +0.000 Cl
ATOM     13  C   UNL     1       4.720   5.047  19.137  0.00  0.00    +0.000 A 
ENDBRANCH   6   7
BRANCH   5  14
ATOM     14  N   UNL     1       2.571   7.019  19.887  0.00  0.00    +0.000 N 
ATOM     15  H   UNL     1       3.444   7.205  20.390  0.00  0.00    +0.000 HD
BRANCH  14  16
ATOM     16  C   UNL     1       1.695   8.112  20.108  0.00  0.00    +0.000 A 
ATOM     17  C   UNL     1       1.319   8.998  19.088  0.00  0.00    +0.000 A 
ATOM     18  C   UNL     1       0.499  10.098  19.364  0.00  0.00    +0.000 A 
ATOM     19  C   UNL     1       0.034  10.306  20.660  0.00  0.00    +0.000 A 
ATOM     20  C   UNL     1       0.348   9.391  21.663  0.00  0.00    +0.000 A 
ATOM     21 CL   UNL     1      -0.241   9.640  23.261  0.00  0.00    +0.000 Cl
ATOM     22  C   UNL     1       1.156   8.291  21.388  0.00  0.00    +0.000 A 
ENDBRANCH  14  16
ENDBRANCH   5  14
TORSDOF 3
ENDMDL
