MODEL 1
REMARK VINA RESULT:      -8.0      0.000      0.000
REMARK  Name = 
REMARK  5 active torsions:
REMARK  status: ('A' for Active; 'I' for Inactive)
REMARK    1  A    between atoms: C_1  and  C_2
REMARK    2  A    between atoms: C_6  and  O_7
REMARK    3  A    between atoms: O_7  and  C_8
REMARK    4  A    between atoms: C_8  and  C_9
REMARK    5  A    between atoms: C_24  and  C_25
REMARK                            x       y       z     vdW  Elec       q    Type
REMARK                         _______ _______ _______ _____ _____    ______ ____
ROOT
ATOM      1  C   UNL     1       4.822   4.626  17.941  0.00  0.00    +0.000 C 
ATOM      2  O   UNL     1       6.045   4.801  18.696  0.00  0.00    +0.000 OA
ATOM      3  C   UNL     1       6.872   5.648  17.996  0.00  0.00    +0.000 C 
ATOM      4  O   UNL     1       7.801   6.285  18.446  0.00  0.00    +0.000 OA
ATOM      5  C   UNL     1       6.519   5.484  16.595  0.00  0.00    +0.000 A 
ATOM      6  C   UNL     1       7.320   5.765  15.501  0.00  0.00    +0.000 A 
ATOM      7  C   UNL     1       7.140   4.971  14.374  0.00  0.00    +0.000 A 
ATOM      8  C   UNL     1       6.219   3.912  14.406  0.00  0.00    +0.000 A 
ATOM      9  C   UNL     1       5.354   3.742  15.498  0.00  0.00    +0.000 A 
ATOM     10  C   UNL     1       5.453   4.614  16.573  0.00  0.00    +0.000 A 
ENDROOT
BRANCH   1  11
ATOM     11  C   UNL     1       3.942   5.885  18.243  0.00  0.00    +0.000 A 
ATOM     12  C   UNL     1       3.732   6.861  17.220  0.00  0.00    +0.000 A 
ATOM     13  C   UNL     1       2.925   7.988  17.392  0.00  0.00    +0.000 A 
ATOM     14  C   UNL     1       2.295   8.192  18.599  0.00  0.00    +0.000 A 
ATOM     15  C   UNL     1       2.483   7.265  19.641  0.00  0.00    +0.000 A 
ATOM     16  C   UNL     1       3.300   6.125  19.465  0.00  0.00    +0.000 A 
ENDBRANCH   1  11
BRANCH   1  17
ATOM     17  O   UNL     1       4.191   3.348  18.076  0.00  0.00    +0.000 OA
BRANCH  17  23
ATOM     18  C   UNL     1       1.483   2.199  22.028  0.00  0.00    +0.000 C 
ATOM     19  C   UNL     1       1.635   2.493  20.559  0.00  0.00    +0.000 A 
ATOM     20  C   UNL     1       0.475   2.563  19.778  0.00  0.00    +0.000 A 
ATOM     21  C   UNL     1       0.539   2.986  18.459  0.00  0.00    +0.000 A 
ATOM     22  C   UNL     1       1.766   3.313  17.891  0.00  0.00    +0.000 A 
ATOM     23  C   UNL     1       2.951   3.160  18.606  0.00  0.00    +0.000 A 
ATOM     24  C   UNL     1       2.891   2.780  19.969  0.00  0.00    +0.000 A 
ATOM     25  C   UNL     1       4.133   2.754  20.829  0.00  0.00    +0.000 C 
ENDBRANCH  17  23
ENDBRANCH   1  17
TORSDOF 3
ENDMDL
MODEL 2
REMARK VINA RESULT:      -8.0      1.533      5.263
REMARK  Name = 
REMARK  5 active torsions:
REMARK  status: ('A' for Active; 'I' for Inactive)
REMARK    1  A    between atoms: C_1  and  C_2
REMARK    2  A    between atoms: C_6  and  O_7
REMARK    3  A    between atoms: O_7  and  C_8
REMARK    4  A    between atoms: C_8  and  C_9
REMARK    5  A    between atoms: C_24  and  C_25
REMARK                            x       y       z     vdW  Elec       q    Type
REMARK                         _______ _______ _______ _____ _____    ______ ____
ROOT
ATOM      1  C   UNL     1       3.834   5.346  17.991  0.00  0.00    +0.000 C 
ATOM      2  O   UNL     1       4.481   5.060  19.253  0.00  0.00    +0.000 OA
ATOM      3  C   UNL     1       4.521   3.696  19.425  0.00  0.00    +0.000 C 
ATOM      4  O   UNL     1       5.262   3.083  20.163  0.00  0.00    +0.000 OA
ATOM      5  C   UNL     1       3.385   3.168  18.685  0.00  0.00    +0.000 A 
ATOM      6  C   UNL     1       2.752   1.955  18.895  0.00  0.00    +0.000 A 
ATOM      7  C   UNL     1       1.389   1.905  18.625  0.00  0.00    +0.000 A 
ATOM      8  C   UNL     1       0.717   3.068  18.213  0.00  0.00    +0.000 A 
ATOM      9  C   UNL     1       1.425   4.240  17.907  0.00  0.00    +0.000 A 
ATOM     10  C   UNL     1       2.805   4.248  18.061  0.00  0.00    +0.000 A 
ENDROOT
BRANCH   1  11
ATOM     11  C   UNL     1       4.928   5.145  16.888  0.00  0.00    +0.000 A 
ATOM     12  C   UNL     1       6.189   5.805  17.018  0.00  0.00    +0.000 A 
ATOM     13  C   UNL     1       7.234   5.644  16.105  0.00  0.00    +0.000 A 
ATOM     14  C   UNL     1       7.061   4.818  15.017  0.00  0.00    +0.000 A 
ATOM     15  C   UNL     1       5.831   4.157  14.841  0.00  0.00    +0.000 A 
ATOM     16  C   UNL     1       4.776   4.321  15.766  0.00  0.00    +0.000 A 
ENDBRANCH   1  11
BRANCH   1  17
ATOM     17  O   UNL     1       3.083   6.564  17.943  0.00  0.00    +0.000 OA
BRANCH  17  23
ATOM     18  C   UNL     1       0.607  10.378  19.839  0.00  0.00    +0.000 C 
ATOM     19  C   UNL     1       1.241   9.017  19.949  0.00  0.00    +0.000 A 
ATOM     20  C   UNL     1       1.088   8.313  21.150  0.00  0.00    +0.000 A 
ATOM     21  C   UNL     1       1.512   6.996  21.254  0.00  0.00    +0.000 A 
ATOM     22  C   UNL     1       2.125   6.375  20.170  0.00  0.00    +0.000 A 
ATOM     23  C   UNL     1       2.384   7.073  18.995  0.00  0.00    +0.000 A 
ATOM     24  C   UNL     1       1.909   8.401  18.861  0.00  0.00    +0.000 A 
ATOM     25  C   UNL     1       2.025   9.145  17.551  0.00  0.00    +0.000 C 
ENDBRANCH  17  23
ENDBRANCH   1  17
TORSDOF 3
ENDMDL
MODEL 3
REMARK VINA RESULT:      -7.9      1.474      5.701
REMARK  Name = 
REMARK  5 active torsions:
REMARK  status: ('A' for Active; 'I' for Inactive)
REMARK    1  A    between atoms: C_1  and  C_2
REMARK    2  A    between atoms: C_6  and  O_7
REMARK    3  A    between atoms: O_7  and  C_8
REMARK    4  A    between atoms: C_8  and  C_9
REMARK    5  A    between atoms: C_24  and  C_25
REMARK                            x       y       z     vdW  Elec       q    Type
REMARK                         _______ _______ _______ _____ _____    ______ ____
ROOT
ATOM      1  C   UNL     1       3.260   5.518  18.895  0.00  0.00    +0.000 C 
ATOM      2  O   UNL     1       2.720   4.905  17.700  0.00  0.00    +0.000 OA
ATOM      3  C   UNL     1       1.470   4.411  17.989  0.00  0.00    +0.000 C 
ATOM      4  O   UNL     1       0.596   4.147  17.191  0.00  0.00    +0.000 OA
ATOM      5  C   UNL     1       1.481   4.105  19.412  0.00  0.00    +0.000 A 
ATOM      6  C   UNL     1       0.654   3.213  20.073  0.00  0.00    +0.000 A 
ATOM      7  C   UNL     1       1.193   2.561  21.176  0.00  0.00    +0.000 A 
ATOM      8  C   UNL     1       2.532   2.785  21.533  0.00  0.00    +0.000 A 
ATOM      9  C   UNL     1       3.290   3.782  20.900  0.00  0.00    +0.000 A 
ATOM     10  C   UNL     1       2.707   4.518  19.878  0.00  0.00    +0.000 A 
ENDROOT
BRANCH   1  11
ATOM     11  C   UNL     1       2.615   6.942  18.980  0.00  0.00    +0.000 A 
ATOM     12  C   UNL     1       2.609   7.784  17.825  0.00  0.00    +0.000 A 
ATOM     13  C   UNL     1       2.015   9.048  17.803  0.00  0.00    +0.000 A 
ATOM     14  C   UNL     1       1.403   9.528  18.939  0.00  0.00    +0.000 A 
ATOM     15  C   UNL     1       1.395   8.740  20.105  0.00  0.00    +0.000 A 
ATOM     16  C   UNL     1       1.996   7.462  20.125  0.00  0.00    +0.000 A 
ENDBRANCH   1  11
BRANCH   1  17
ATOM     17  O   UNL     1       4.682   5.442  19.040  0.00  0.00    +0.000 OA
BRANCH  17  23
ATOM     18  C   UNL     1       6.991   4.381  14.819  0.00  0.00    +0.000 C 
ATOM     19  C   UNL     1       6.774   5.240  16.037  0.00  0.00    +0.000 A 
ATOM     20  C   UNL     1       7.506   6.428  16.145  0.00  0.00    +0.000 A 
ATOM     21  C   UNL     1       7.233   7.333  17.160  0.00  0.00    +0.000 A 
ATOM     22  C   UNL     1       6.248   7.048  18.101  0.00  0.00    +0.000 A 
ATOM     23  C   UNL     1       5.570   5.833  18.085  0.00  0.00    +0.000 A 
ATOM     24  C   UNL     1       5.804   4.926  17.022  0.00  0.00    +0.000 A 
ATOM     25  C   UNL     1       4.981   3.668  16.873  0.00  0.00    +0.000 C 
ENDBRANCH  17  23
ENDBRANCH   1  17
TORSDOF 3
ENDMDL
MODEL 4
REMARK VINA RESULT:      -7.9      0.627      1.615
REMARK  Name = 
REMARK  5 active torsions:
REMARK  status: ('A' for Active; 'I' for Inactive)
REMARK    1  A    between atoms: C_1  and  C_2
REMARK    2  A    between atoms: C_6  and  O_7
REMARK    3  A    between atoms: O_7  and  C_8
REMARK    4  A    between atoms: C_8  and  C_9
REMARK    5  A    between atoms: C_24  and  C_25
REMARK                            x       y       z     vdW  Elec       q    Type
REMARK                         _______ _______ _______ _____ _____    ______ ____
ROOT
ATOM      1  C   UNL     1       5.235   4.727  18.252  0.00  0.00    +0.000 C 
ATOM      2  O   UNL     1       6.464   5.190  18.862  0.00  0.00    +0.000 OA
ATOM      3  C   UNL     1       7.063   6.087  18.010  0.00  0.00    +0.000 C 
ATOM      4  O   UNL     1       7.895   6.918  18.305  0.00  0.00    +0.000 OA
ATOM      5  C   UNL     1       6.632   5.716  16.671  0.00  0.00    +0.000 A 
ATOM      6  C   UNL     1       7.275   6.013  15.482  0.00  0.00    +0.000 A 
ATOM      7  C   UNL     1       7.150   5.084  14.454  0.00  0.00    +0.000 A 
ATOM      8  C   UNL     1       6.442   3.892  14.674  0.00  0.00    +0.000 A 
ATOM      9  C   UNL     1       5.715   3.693  15.858  0.00  0.00    +0.000 A 
ATOM     10  C   UNL     1       5.743   4.679  16.835  0.00  0.00    +0.000 A 
ENDROOT
BRANCH   1  11
ATOM     11  C   UNL     1       4.169   5.841  18.526  0.00  0.00    +0.000 A 
ATOM     12  C   UNL     1       3.830   6.763  17.488  0.00  0.00    +0.000 A 
ATOM     13  C   UNL     1       2.859   7.757  17.634  0.00  0.00    +0.000 A 
ATOM     14  C   UNL     1       2.185   7.874  18.830  0.00  0.00    +0.000 A 
ATOM     15  C   UNL     1       2.494   6.996  19.885  0.00  0.00    +0.000 A 
ATOM     16  C   UNL     1       3.478   5.992  19.735  0.00  0.00    +0.000 A 
ENDBRANCH   1  11
BRANCH   1  17
ATOM     17  O   UNL     1       4.859   3.381  18.564  0.00  0.00    +0.000 OA
BRANCH  17  23
ATOM     18  C   UNL     1       0.036   2.420  18.862  0.00  0.00    +0.000 C 
ATOM     19  C   UNL     1       1.384   2.667  19.485  0.00  0.00    +0.000 A 
ATOM     20  C   UNL     1       1.500   2.543  20.875  0.00  0.00    +0.000 A 
ATOM     21  C   UNL     1       2.744   2.601  21.486  0.00  0.00    +0.000 A 
ATOM     22  C   UNL     1       3.886   2.818  20.721  0.00  0.00    +0.000 A 
ATOM     23  C   UNL     1       3.799   3.047  19.351  0.00  0.00    +0.000 A 
ATOM     24  C   UNL     1       2.540   2.937  18.711  0.00  0.00    +0.000 A 
ATOM     25  C   UNL     1       2.418   3.018  17.207  0.00  0.00    +0.000 C 
ENDBRANCH  17  23
ENDBRANCH   1  17
TORSDOF 3
ENDMDL
MODEL 5
REMARK VINA RESULT:      -7.8      1.996      4.000
REMARK  Name = 
REMARK  5 active torsions:
REMARK  status: ('A' for Active; 'I' for Inactive)
REMARK    1  A    between atoms: C_1  and  C_2
REMARK    2  A    between atoms: C_6  and  O_7
REMARK    3  A    between atoms: O_7  and  C_8
REMARK    4  A    between atoms: C_8  and  C_9
REMARK    5  A    between atoms: C_24  and  C_25
REMARK                            x       y       z     vdW  Elec       q    Type
REMARK                         _______ _______ _______ _____ _____    ______ ____
ROOT
ATOM      1  C   UNL     1       5.303   4.514  16.446  0.00  0.00    +0.000 C 
ATOM      2  O   UNL     1       4.417   5.656  16.366  0.00  0.00    +0.000 OA
ATOM      3  C   UNL     1       5.180   6.796  16.271  0.00  0.00    +0.000 C 
ATOM      4  O   UNL     1       4.817   7.875  15.853  0.00  0.00    +0.000 OA
ATOM      5  C   UNL     1       6.439   6.489  16.933  0.00  0.00    +0.000 A 
ATOM      6  C   UNL     1       7.332   7.398  17.475  0.00  0.00    +0.000 A 
ATOM      7  C   UNL     1       8.055   6.978  18.586  0.00  0.00    +0.000 A 
ATOM      8  C   UNL     1       7.819   5.705  19.131  0.00  0.00    +0.000 A 
ATOM      9  C   UNL     1       6.988   4.783  18.476  0.00  0.00    +0.000 A 
ATOM     10  C   UNL     1       6.361   5.165  17.298  0.00  0.00    +0.000 A 
ENDROOT
BRANCH   1  11
ATOM     11  C   UNL     1       5.746   4.206  14.976  0.00  0.00    +0.000 A 
ATOM     12  C   UNL     1       4.802   3.654  14.056  0.00  0.00    +0.000 A 
ATOM     13  C   UNL     1       5.102   3.393  12.716  0.00  0.00    +0.000 A 
ATOM     14  C   UNL     1       6.364   3.669  12.239  0.00  0.00    +0.000 A 
ATOM     15  C   UNL     1       7.331   4.202  13.112  0.00  0.00    +0.000 A 
ATOM     16  C   UNL     1       7.025   4.466  14.466  0.00  0.00    +0.000 A 
ENDBRANCH   1  11
BRANCH   1  17
ATOM     17  O   UNL     1       4.821   3.411  17.221  0.00  0.00    +0.000 OA
BRANCH  17  23
ATOM     18  C   UNL     1       2.298   2.481  21.349  0.00  0.00    +0.000 C 
ATOM     19  C   UNL     1       2.373   2.828  19.885  0.00  0.00    +0.000 A 
ATOM     20  C   UNL     1       1.179   3.117  19.214  0.00  0.00    +0.000 A 
ATOM     21  C   UNL     1       1.201   3.596  17.913  0.00  0.00    +0.000 A 
ATOM     22  C   UNL     1       2.415   3.760  17.252  0.00  0.00    +0.000 A 
ATOM     23  C   UNL     1       3.614   3.388  17.851  0.00  0.00    +0.000 A 
ATOM     24  C   UNL     1       3.606   2.948  19.197  0.00  0.00    +0.000 A 
ATOM     25  C   UNL     1       4.895   2.685  19.942  0.00  0.00    +0.000 C 
ENDBRANCH  17  23
ENDBRANCH   1  17
TORSDOF 3
ENDMDL
MODEL 6
REMARK VINA RESULT:      -7.7      1.848      5.054
REMARK  Name = 
REMARK  5 active torsions:
REMARK  status: ('A' for Active; 'I' for Inactive)
REMARK    1  A    between atoms: C_1  and  C_2
REMARK    2  A    between atoms: C_6  and  O_7
REMARK    3  A    between atoms: O_7  and  C_8
REMARK    4  A    between atoms: C_8  and  C_9
REMARK    5  A    between atoms: C_24  and  C_25
REMARK                            x       y       z     vdW  Elec       q    Type
REMARK                         _______ _______ _______ _____ _____    ______ ____
ROOT
ATOM      1  C   UNL     1       3.102   5.340  19.093  0.00  0.00    +0.000 C 
ATOM      2  O   UNL     1       2.189   5.171  17.983  0.00  0.00    +0.000 OA
ATOM      3  C   UNL     1       2.688   4.196  17.151  0.00  0.00    +0.000 C 
ATOM      4  O   UNL     1       2.063   3.555  16.334  0.00  0.00    +0.000 OA
ATOM      5  C   UNL     1       4.132   4.223  17.327  0.00  0.00    +0.000 A 
ATOM      6  C   UNL     1       5.084   3.766  16.432  0.00  0.00    +0.000 A 
ATOM      7  C   UNL     1       6.302   4.437  16.416  0.00  0.00    +0.000 A 
ATOM      8  C   UNL     1       6.494   5.552  17.248  0.00  0.00    +0.000 A 
ATOM      9  C   UNL     1       5.541   5.902  18.216  0.00  0.00    +0.000 A 
ATOM     10  C   UNL     1       4.376   5.153  18.311  0.00  0.00    +0.000 A 
ENDROOT
BRANCH   1  11
ATOM     11  C   UNL     1       2.779   4.185  20.099  0.00  0.00    +0.000 A 
ATOM     12  C   UNL     1       1.462   4.072  20.644  0.00  0.00    +0.000 A 
ATOM     13  C   UNL     1       1.079   3.046  21.511  0.00  0.00    +0.000 A 
ATOM     14  C   UNL     1       1.999   2.088  21.876  0.00  0.00    +0.000 A 
ATOM     15  C   UNL     1       3.311   2.166  21.374  0.00  0.00    +0.000 A 
ATOM     16  C   UNL     1       3.697   3.204  20.497  0.00  0.00    +0.000 A 
ENDBRANCH   1  11
BRANCH   1  17
ATOM     17  O   UNL     1       3.181   6.664  19.632  0.00  0.00    +0.000 OA
BRANCH  17  23
ATOM     18  C   UNL     1      -0.334  10.002  20.511  0.00  0.00    +0.000 C 
ATOM     19  C   UNL     1       0.642   9.307  19.599  0.00  0.00    +0.000 A 
ATOM     20  C   UNL     1       0.771   9.781  18.288  0.00  0.00    +0.000 A 
ATOM     21  C   UNL     1       1.765   9.286  17.456  0.00  0.00    +0.000 A 
ATOM     22  C   UNL     1       2.620   8.287  17.910  0.00  0.00    +0.000 A 
ATOM     23  C   UNL     1       2.458   7.722  19.171  0.00  0.00    +0.000 A 
ATOM     24  C   UNL     1       1.482   8.256  20.047  0.00  0.00    +0.000 A 
ATOM     25  C   UNL     1       1.373   7.785  21.479  0.00  0.00    +0.000 C 
ENDBRANCH  17  23
ENDBRANCH   1  17
TORSDOF 3
ENDMDL
MODEL 7
REMARK VINA RESULT:      -7.7      1.662      5.312
REMARK  Name = 
REMARK  5 active torsions:
REMARK  status: ('A' for Active; 'I' for Inactive)
REMARK    1  A    between atoms: C_1  and  C_2
REMARK    2  A    between atoms: C_6  and  O_7
REMARK    3  A    between atoms: O_7  and  C_8
REMARK    4  A    between atoms: C_8  and  C_9
REMARK    5  A    between atoms: C_24  and  C_25
REMARK                            x       y       z     vdW  Elec       q    Type
REMARK                         _______ _______ _______ _____ _____    ______ ____
ROOT
ATOM      1  C   UNL     1       3.878   4.979  19.351  0.00  0.00    +0.000 C 
ATOM      2  O   UNL     1       4.564   4.066  20.240  0.00  0.00    +0.000 OA
ATOM      3  C   UNL     1       4.383   2.785  19.775  0.00  0.00    +0.000 C 
ATOM      4  O   UNL     1       5.064   1.817  20.040  0.00  0.00    +0.000 OA
ATOM      5  C   UNL     1       3.118   2.797  19.055  0.00  0.00    +0.000 A 
ATOM      6  C   UNL     1       2.305   1.708  18.792  0.00  0.00    +0.000 A 
ATOM      7  C   UNL     1       0.937   1.948  18.735  0.00  0.00    +0.000 A 
ATOM      8  C   UNL     1       0.444   3.237  18.992  0.00  0.00    +0.000 A 
ATOM      9  C   UNL     1       1.316   4.326  19.141  0.00  0.00    +0.000 A 
ATOM     10  C   UNL     1       2.685   4.102  19.075  0.00  0.00    +0.000 A 
ENDROOT
BRANCH   1  11
ATOM     11  C   UNL     1       4.831   5.189  18.126  0.00  0.00    +0.000 A 
ATOM     12  C   UNL     1       6.153   5.688  18.340  0.00  0.00    +0.000 A 
ATOM     13  C   UNL     1       7.081   5.861  17.309  0.00  0.00    +0.000 A 
ATOM     14  C   UNL     1       6.723   5.546  16.017  0.00  0.00    +0.000 A 
ATOM     15  C   UNL     1       5.427   5.063  15.757  0.00  0.00    +0.000 A 
ATOM     16  C   UNL     1       4.491   4.889  16.801  0.00  0.00    +0.000 A 
ENDBRANCH   1  11
BRANCH   1  17
ATOM     17  O   UNL     1       3.346   6.158  19.966  0.00  0.00    +0.000 OA
BRANCH  17  23
ATOM     18  C   UNL     1       0.133   9.893  19.935  0.00  0.00    +0.000 C 
ATOM     19  C   UNL     1       1.127   8.987  19.256  0.00  0.00    +0.000 A 
ATOM     20  C   UNL     1       1.456   9.251  17.921  0.00  0.00    +0.000 A 
ATOM     21  C   UNL     1       2.478   8.553  17.297  0.00  0.00    +0.000 A 
ATOM     22  C   UNL     1       3.163   7.557  17.986  0.00  0.00    +0.000 A 
ATOM     23  C   UNL     1       2.798   7.198  19.280  0.00  0.00    +0.000 A 
ATOM     24  C   UNL     1       1.792   7.941  19.944  0.00  0.00    +0.000 A 
ATOM     25  C   UNL     1       1.470   7.694  21.400  0.00  0.00    +0.000 C 
ENDBRANCH  17  23
ENDBRANCH   1  17
TORSDOF 3
ENDMDL
MODEL 8
REMARK VINA RESULT:      -7.7      1.853      5.132
REMARK  Name = 
REMARK  5 active torsions:
REMARK  status: ('A' for Active; 'I' for Inactive)
REMARK    1  A    between atoms: C_1  and  C_2
REMARK    2  A    between atoms: C_6  and  O_7
REMARK    3  A    between atoms: O_7  and  C_8
REMARK    4  A    between atoms: C_8  and  C_9
REMARK    5  A    between atoms: C_24  and  C_25
REMARK                            x       y       z     vdW  Elec       q    Type
REMARK                         _______ _______ _______ _____ _____    ______ ____
ROOT
ATOM      1  C   UNL     1       3.078   5.427  19.054  0.00  0.00    +0.000 C 
ATOM      2  O   UNL     1       2.179   5.266  17.932  0.00  0.00    +0.000 OA
ATOM      3  C   UNL     1       2.666   4.268  17.121  0.00  0.00    +0.000 C 
ATOM      4  O   UNL     1       2.038   3.632  16.302  0.00  0.00    +0.000 OA
ATOM      5  C   UNL     1       4.107   4.260  17.320  0.00  0.00    +0.000 A 
ATOM      6  C   UNL     1       5.061   3.767  16.446  0.00  0.00    +0.000 A 
ATOM      7  C   UNL     1       6.296   4.405  16.442  0.00  0.00    +0.000 A 
ATOM      8  C   UNL     1       6.504   5.526  17.262  0.00  0.00    +0.000 A 
ATOM      9  C   UNL     1       5.545   5.914  18.210  0.00  0.00    +0.000 A 
ATOM     10  C   UNL     1       4.359   5.197  18.295  0.00  0.00    +0.000 A 
ENDROOT
BRANCH   1  11
ATOM     11  C   UNL     1       2.709   4.294  20.070  0.00  0.00    +0.000 A 
ATOM     12  C   UNL     1       1.343   4.098  20.442  0.00  0.00    +0.000 A 
ATOM     13  C   UNL     1       0.923   3.083  21.305  0.00  0.00    +0.000 A 
ATOM     14  C   UNL     1       1.855   2.220  21.839  0.00  0.00    +0.000 A 
ATOM     15  C   UNL     1       3.213   2.383  21.512  0.00  0.00    +0.000 A 
ATOM     16  C   UNL     1       3.636   3.410  20.638  0.00  0.00    +0.000 A 
ENDBRANCH   1  11
BRANCH   1  17
ATOM     17  O   UNL     1       3.183   6.756  19.577  0.00  0.00    +0.000 OA
BRANCH  17  23
ATOM     18  C   UNL     1       0.186  10.473  18.361  0.00  0.00    +0.000 C 
ATOM     19  C   UNL     1       0.702   9.442  19.331  0.00  0.00    +0.000 A 
ATOM     20  C   UNL     1       0.055   9.317  20.566  0.00  0.00    +0.000 A 
ATOM     21  C   UNL     1       0.381   8.283  21.430  0.00  0.00    +0.000 A 
ATOM     22  C   UNL     1       1.383   7.379  21.088  0.00  0.00    +0.000 A 
ATOM     23  C   UNL     1       2.116   7.531  19.915  0.00  0.00    +0.000 A 
ATOM     24  C   UNL     1       1.754   8.551  19.002  0.00  0.00    +0.000 A 
ATOM     25  C   UNL     1       2.414   8.658  17.647  0.00  0.00    +0.000 C 
ENDBRANCH  17  23
ENDBRANCH   1  17
TORSDOF 3
ENDMDL
MODEL 9
REMARK VINA RESULT:      -7.5      1.527      4.974
REMARK  Name = 
REMARK  5 active torsions:
REMARK  status: ('A' for Active; 'I' for Inactive)
REMARK    1  A    between atoms: C_1  and  C_2
REMARK    2  A    between atoms: C_6  and  O_7
REMARK    3  A    between atoms: O_7  and  C_8
REMARK    4  A    between atoms: C_8  and  C_9
REMARK    5  A    between atoms: C_24  and  C_25
REMARK                            x       y       z     vdW  Elec       q    Type
REMARK                         _______ _______ _______ _____ _____    ______ ____
ROOT
ATOM      1  C   UNL     1       3.756   5.354  18.032  0.00  0.00    +0.000 C 
ATOM      2  O   UNL     1       4.684   5.939  18.976  0.00  0.00    +0.000 OA
ATOM      3  C   UNL     1       5.481   4.939  19.482  0.00  0.00    +0.000 C 
ATOM      4  O   UNL     1       6.561   5.077  20.015  0.00  0.00    +0.000 OA
ATOM      5  C   UNL     1       4.689   3.721  19.406  0.00  0.00    +0.000 A 
ATOM      6  C   UNL     1       4.860   2.574  20.162  0.00  0.00    +0.000 A 
ATOM      7  C   UNL     1       3.715   1.844  20.459  0.00  0.00    +0.000 A 
ATOM      8  C   UNL     1       2.461   2.313  20.038  0.00  0.00    +0.000 A 
ATOM      9  C   UNL     1       2.354   3.417  19.179  0.00  0.00    +0.000 A 
ATOM     10  C   UNL     1       3.513   4.073  18.785  0.00  0.00    +0.000 A 
ENDROOT
BRANCH   1  11
ATOM     11  C   UNL     1       4.551   5.184  16.693  0.00  0.00    +0.000 A 
ATOM     12  C   UNL     1       5.103   6.335  16.050  0.00  0.00    +0.000 A 
ATOM     13  C   UNL     1       5.863   6.267  14.879  0.00  0.00    +0.000 A 
ATOM     14  C   UNL     1       6.101   5.041  14.298  0.00  0.00    +0.000 A 
ATOM     15  C   UNL     1       5.567   3.881  14.889  0.00  0.00    +0.000 A 
ATOM     16  C   UNL     1       4.798   3.953  16.073  0.00  0.00    +0.000 A 
ENDBRANCH   1  11
BRANCH   1  17
ATOM     17  O   UNL     1       2.476   5.991  17.948  0.00  0.00    +0.000 OA
BRANCH  17  23
ATOM     18  C   UNL     1       0.985   9.023  21.533  0.00  0.00    +0.000 C 
ATOM     19  C   UNL     1       1.395   8.745  20.111  0.00  0.00    +0.000 A 
ATOM     20  C   UNL     1       1.510   9.830  19.233  0.00  0.00    +0.000 A 
ATOM     21  C   UNL     1       2.037   9.655  17.962  0.00  0.00    +0.000 A 
ATOM     22  C   UNL     1       2.423   8.387  17.537  0.00  0.00    +0.000 A 
ATOM     23  C   UNL     1       2.231   7.270  18.344  0.00  0.00    +0.000 A 
ATOM     24  C   UNL     1       1.744   7.446  19.663  0.00  0.00    +0.000 A 
ATOM     25  C   UNL     1       1.667   6.287  20.630  0.00  0.00    +0.000 C 
ENDBRANCH  17  23
ENDBRANCH   1  17
TORSDOF 3
ENDMDL
