MODEL 1
REMARK VINA RESULT:      -3.1      0.000      0.000
REMARK  Name = 
REMARK  4 active torsions:
REMARK  status: ('A' for Active; 'I' for Inactive)
REMARK    1  A    between atoms: C_1  and  C_2
REMARK    2  A    between atoms: C_2  and  C_3
REMARK    3  A    between atoms: C_2  and  C_4
REMARK    4  A    between atoms: C_2  and  O_5
REMARK                            x       y       z     vdW  Elec       q    Type
REMARK                         _______ _______ _______ _____ _____    ______ ____
ROOT
ATOM      1  C   UNL     1       7.507   7.221  17.528  0.00  0.00    +0.000 C 
ATOM      2  C   UNL     1       7.017   5.940  16.853  0.00  0.00    +0.000 C 
ATOM      3  C   UNL     1       7.459   4.707  17.640  0.00  0.00    +0.000 C 
ATOM      4  C   UNL     1       5.498   5.962  16.703  0.00  0.00    +0.000 C 
ENDROOT
BRANCH   2   5
ATOM      5  O   UNL     1       7.582   5.870  15.543  0.00  0.00    +0.000 OA
ATOM      6  H   UNL     1       8.266   5.178  15.547  0.00  0.00    +0.000 HD
ENDBRANCH   2   5
TORSDOF 1
ENDMDL
MODEL 2
REMARK VINA RESULT:      -3.1      6.445      6.961
REMARK  Name = 
REMARK  4 active torsions:
REMARK  status: ('A' for Active; 'I' for Inactive)
REMARK    1  A    between atoms: C_1  and  C_2
REMARK    2  A    between atoms: C_2  and  C_3
REMARK    3  A    between atoms: C_2  and  C_4
REMARK    4  A    between atoms: C_2  and  O_5
REMARK                            x       y       z     vdW  Elec       q    Type
REMARK                         _______ _______ _______ _____ _____    ______ ____
ROOT
ATOM      1  C   UNL     1       2.614   2.154  18.996  0.00  0.00    +0.000 C 
ATOM      2  C   UNL     1       1.357   3.017  18.906  0.00  0.00    +0.000 C 
ATOM      3  C   UNL     1       1.012   3.621  20.267  0.00  0.00    +0.000 C 
ATOM      4  C   UNL     1       1.537   4.118  17.864  0.00  0.00    +0.000 C 
ENDROOT
BRANCH   2   5
ATOM      5  O   UNL     1       0.268   2.194  18.484  0.00  0.00    +0.000 OA
ATOM      6  H   UNL     1       0.585   1.623  17.763  0.00  0.00    +0.000 HD
ENDBRANCH   2   5
TORSDOF 1
ENDMDL
MODEL 3
REMARK VINA RESULT:      -3.1      0.214      1.962
REMARK  Name = 
REMARK  4 active torsions:
REMARK  status: ('A' for Active; 'I' for Inactive)
REMARK    1  A    between atoms: C_1  and  C_2
REMARK    2  A    between atoms: C_2  and  C_3
REMARK    3  A    between atoms: C_2  and  C_4
REMARK    4  A    between atoms: C_2  and  O_5
REMARK                            x       y       z     vdW  Elec       q    Type
REMARK                         _______ _______ _______ _____ _____    ______ ____
ROOT
ATOM      1  C   UNL     1       7.504   4.860  17.802  0.00  0.00    +0.000 C 
ATOM      2  C   UNL     1       7.048   6.074  16.994  0.00  0.00    +0.000 C 
ATOM      3  C   UNL     1       5.523   6.140  16.924  0.00  0.00    +0.000 C 
ATOM      4  C   UNL     1       7.611   7.359  17.596  0.00  0.00    +0.000 C 
ENDROOT
BRANCH   2   5
ATOM      5  O   UNL     1       7.560   5.956  15.666  0.00  0.00    +0.000 OA
ATOM      6  H   UNL     1       8.164   5.194  15.643  0.00  0.00    +0.000 HD
ENDBRANCH   2   5
TORSDOF 1
ENDMDL
MODEL 4
REMARK VINA RESULT:      -3.1      1.718      1.880
REMARK  Name = 
REMARK  4 active torsions:
REMARK  status: ('A' for Active; 'I' for Inactive)
REMARK    1  A    between atoms: C_1  and  C_2
REMARK    2  A    between atoms: C_2  and  C_3
REMARK    3  A    between atoms: C_2  and  C_4
REMARK    4  A    between atoms: C_2  and  O_5
REMARK                            x       y       z     vdW  Elec       q    Type
REMARK                         _______ _______ _______ _____ _____    ______ ____
ROOT
ATOM      1  C   UNL     1       7.440   6.339  17.646  0.00  0.00    +0.000 C 
ATOM      2  C   UNL     1       7.121   4.886  17.297  0.00  0.00    +0.000 C 
ATOM      3  C   UNL     1       5.868   4.411  18.032  0.00  0.00    +0.000 C 
ATOM      4  C   UNL     1       6.951   4.723  15.789  0.00  0.00    +0.000 C 
ENDROOT
BRANCH   2   5
ATOM      5  O   UNL     1       8.222   4.069  17.700  0.00  0.00    +0.000 OA
ATOM      6  H   UNL     1       8.892   4.646  18.106  0.00  0.00    +0.000 HD
ENDBRANCH   2   5
TORSDOF 1
ENDMDL
MODEL 5
REMARK VINA RESULT:      -3.1      0.789      2.088
REMARK  Name = 
REMARK  4 active torsions:
REMARK  status: ('A' for Active; 'I' for Inactive)
REMARK    1  A    between atoms: C_1  and  C_2
REMARK    2  A    between atoms: C_2  and  C_3
REMARK    3  A    between atoms: C_2  and  C_4
REMARK    4  A    between atoms: C_2  and  O_5
REMARK                            x       y       z     vdW  Elec       q    Type
REMARK                         _______ _______ _______ _____ _____    ______ ____
ROOT
ATOM      1  C   UNL     1       5.562   6.694  17.267  0.00  0.00    +0.000 C 
ATOM      2  C   UNL     1       7.084   6.555  17.273  0.00  0.00    +0.000 C 
ATOM      3  C   UNL     1       7.750   7.880  17.643  0.00  0.00    +0.000 C 
ATOM      4  C   UNL     1       7.516   5.452  18.235  0.00  0.00    +0.000 C 
ENDROOT
BRANCH   2   5
ATOM      5  O   UNL     1       7.512   6.181  15.962  0.00  0.00    +0.000 OA
ATOM      6  H   UNL     1       6.786   6.370  15.343  0.00  0.00    +0.000 HD
ENDBRANCH   2   5
TORSDOF 1
ENDMDL
MODEL 6
REMARK VINA RESULT:      -3.1      6.445      7.031
REMARK  Name = 
REMARK  4 active torsions:
REMARK  status: ('A' for Active; 'I' for Inactive)
REMARK    1  A    between atoms: C_1  and  C_2
REMARK    2  A    between atoms: C_2  and  C_3
REMARK    3  A    between atoms: C_2  and  C_4
REMARK    4  A    between atoms: C_2  and  O_5
REMARK                            x       y       z     vdW  Elec       q    Type
REMARK                         _______ _______ _______ _____ _____    ______ ____
ROOT
ATOM      1  C   UNL     1       1.001   3.658  20.256  0.00  0.00    +0.000 C 
ATOM      2  C   UNL     1       1.337   3.031  18.903  0.00  0.00    +0.000 C 
ATOM      3  C   UNL     1       1.571   4.110  17.846  0.00  0.00    +0.000 C 
ATOM      4  C   UNL     1       2.559   2.125  19.022  0.00  0.00    +0.000 C 
ENDROOT
BRANCH   2   5
ATOM      5  O   UNL     1       0.234   2.222  18.490  0.00  0.00    +0.000 OA
ATOM      6  H   UNL     1       0.418   1.305  18.756  0.00  0.00    +0.000 HD
ENDBRANCH   2   5
TORSDOF 1
ENDMDL
MODEL 7
REMARK VINA RESULT:      -3.1      6.441      6.871
REMARK  Name = 
REMARK  4 active torsions:
REMARK  status: ('A' for Active; 'I' for Inactive)
REMARK    1  A    between atoms: C_1  and  C_2
REMARK    2  A    between atoms: C_2  and  C_3
REMARK    3  A    between atoms: C_2  and  C_4
REMARK    4  A    between atoms: C_2  and  O_5
REMARK                            x       y       z     vdW  Elec       q    Type
REMARK                         _______ _______ _______ _____ _____    ______ ____
ROOT
ATOM      1  C   UNL     1       1.562   4.119  17.831  0.00  0.00    +0.000 C 
ATOM      2  C   UNL     1       1.342   3.035  18.885  0.00  0.00    +0.000 C 
ATOM      3  C   UNL     1       2.576   2.144  19.016  0.00  0.00    +0.000 C 
ATOM      4  C   UNL     1       0.991   3.662  20.232  0.00  0.00    +0.000 C 
ENDROOT
BRANCH   2   5
ATOM      5  O   UNL     1       0.237   2.225  18.482  0.00  0.00    +0.000 OA
ATOM      6  H   UNL     1      -0.242   2.697  17.779  0.00  0.00    +0.000 HD
ENDBRANCH   2   5
TORSDOF 1
ENDMDL
MODEL 8
REMARK VINA RESULT:      -3.1      2.429      2.696
REMARK  Name = 
REMARK  4 active torsions:
REMARK  status: ('A' for Active; 'I' for Inactive)
REMARK    1  A    between atoms: C_1  and  C_2
REMARK    2  A    between atoms: C_2  and  C_3
REMARK    3  A    between atoms: C_2  and  C_4
REMARK    4  A    between atoms: C_2  and  O_5
REMARK                            x       y       z     vdW  Elec       q    Type
REMARK                         _______ _______ _______ _____ _____    ______ ____
ROOT
ATOM      1  C   UNL     1       7.689   6.988  18.144  0.00  0.00    +0.000 C 
ATOM      2  C   UNL     1       7.430   5.592  18.710  0.00  0.00    +0.000 C 
ATOM      3  C   UNL     1       5.991   5.465  19.209  0.00  0.00    +0.000 C 
ATOM      4  C   UNL     1       7.728   4.526  17.659  0.00  0.00    +0.000 C 
ENDROOT
BRANCH   2   5
ATOM      5  O   UNL     1       8.314   5.376  19.811  0.00  0.00    +0.000 OA
ATOM      6  H   UNL     1       8.942   4.676  19.560  0.00  0.00    +0.000 HD
ENDBRANCH   2   5
TORSDOF 1
ENDMDL
MODEL 9
REMARK VINA RESULT:      -3.0      1.729      2.346
REMARK  Name = 
REMARK  4 active torsions:
REMARK  status: ('A' for Active; 'I' for Inactive)
REMARK    1  A    between atoms: C_1  and  C_2
REMARK    2  A    between atoms: C_2  and  C_3
REMARK    3  A    between atoms: C_2  and  C_4
REMARK    4  A    between atoms: C_2  and  O_5
REMARK                            x       y       z     vdW  Elec       q    Type
REMARK                         _______ _______ _______ _____ _____    ______ ____
ROOT
ATOM      1  C   UNL     1       6.728   4.551  15.848  0.00  0.00    +0.000 C 
ATOM      2  C   UNL     1       7.071   4.856  17.306  0.00  0.00    +0.000 C 
ATOM      3  C   UNL     1       7.407   6.335  17.488  0.00  0.00    +0.000 C 
ATOM      4  C   UNL     1       5.918   4.453  18.221  0.00  0.00    +0.000 C 
ENDROOT
BRANCH   2   5
ATOM      5  O   UNL     1       8.212   4.080  17.677  0.00  0.00    +0.000 OA
ATOM      6  H   UNL     1       9.000   4.644  17.590  0.00  0.00    +0.000 HD
ENDBRANCH   2   5
TORSDOF 1
ENDMDL
