MODEL 1
REMARK VINA RESULT:      -7.3      0.000      0.000
REMARK  Name = 
REMARK  6 active torsions:
REMARK  status: ('A' for Active; 'I' for Inactive)
REMARK    1  A    between atoms: C_1  and  C_2
REMARK    2  A    between atoms: C_2  and  C_3
REMARK    3  A    between atoms: C_2  and  C_4
REMARK    4  A    between atoms: C_2  and  N_5
REMARK    5  A    between atoms: C_6  and  C_8
REMARK    6  A    between atoms: C_8  and  C_10
REMARK                            x       y       z     vdW  Elec       q    Type
REMARK                         _______ _______ _______ _____ _____    ______ ____
ROOT
ATOM      1  C   UNL     1       3.254   7.218  17.732  0.00  0.00    +0.000 C 
ATOM      2  O   UNL     1       2.720   8.170  17.160  0.00  0.00    +0.000 OA
ENDROOT
BRANCH   1   3
ATOM      3  C   UNL     1       2.604   6.473  18.813  0.00  0.00    +0.000 A 
ATOM      4  C   UNL     1       2.317   6.965  20.076  0.00  0.00    +0.000 A 
ATOM      5  N   UNL     1       1.740   5.972  20.817  0.00  0.00    +0.000 N 
ATOM      6  C   UNL     1       1.629   4.828  20.067  0.00  0.00    +0.000 A 
ATOM      7  C   UNL     1       1.113   3.577  20.419  0.00  0.00    +0.000 A 
ATOM      8  C   UNL     1       1.143   2.571  19.452  0.00  0.00    +0.000 A 
ATOM      9  C   UNL     1       1.672   2.810  18.186  0.00  0.00    +0.000 A 
ATOM     10  C   UNL     1       2.179   4.071  17.849  0.00  0.00    +0.000 A 
ATOM     11  C   UNL     1       2.158   5.109  18.803  0.00  0.00    +0.000 A 
ATOM     12  H   UNL     1       1.452   6.059  21.783  0.00  0.00    +0.000 HD
ENDBRANCH   1   3
BRANCH   1  14
ATOM     13  N   UNL     1       5.534   6.396  18.230  0.00  0.00    +0.000 N 
ATOM     14  C   UNL     1       4.655   6.799  17.235  0.00  0.00    +0.000 C 
ATOM     15  O   UNL     1       4.946   6.862  16.051  0.00  0.00    +0.000 OA
ATOM     16  H   UNL     1       5.184   6.441  19.183  0.00  0.00    +0.000 HD
BRANCH  13  18
ATOM     17  C   UNL     1       7.685   7.257  17.361  0.00  0.00    +0.000 C 
ATOM     18  C   UNL     1       6.938   6.054  17.965  0.00  0.00    +0.000 C 
ATOM     19  C   UNL     1       7.035   4.845  17.017  0.00  0.00    +0.000 C 
ATOM     20  C   UNL     1       7.625   5.682  19.289  0.00  0.00    +0.000 C 
ENDBRANCH  13  18
ENDBRANCH   1  14
TORSDOF 3
ENDMDL
MODEL 2
REMARK VINA RESULT:      -7.3      0.042      1.029
REMARK  Name = 
REMARK  6 active torsions:
REMARK  status: ('A' for Active; 'I' for Inactive)
REMARK    1  A    between atoms: C_1  and  C_2
REMARK    2  A    between atoms: C_2  and  C_3
REMARK    3  A    between atoms: C_2  and  C_4
REMARK    4  A    between atoms: C_2  and  N_5
REMARK    5  A    between atoms: C_6  and  C_8
REMARK    6  A    between atoms: C_8  and  C_10
REMARK                            x       y       z     vdW  Elec       q    Type
REMARK                         _______ _______ _______ _____ _____    ______ ____
ROOT
ATOM      1  C   UNL     1       3.278   7.202  17.756  0.00  0.00    +0.000 C 
ATOM      2  O   UNL     1       2.760   8.169  17.196  0.00  0.00    +0.000 OA
ENDROOT
BRANCH   1   3
ATOM      3  C   UNL     1       2.614   6.453  18.826  0.00  0.00    +0.000 A 
ATOM      4  C   UNL     1       2.322   6.935  20.091  0.00  0.00    +0.000 A 
ATOM      5  N   UNL     1       1.732   5.941  20.819  0.00  0.00    +0.000 N 
ATOM      6  C   UNL     1       1.617   4.804  20.058  0.00  0.00    +0.000 A 
ATOM      7  C   UNL     1       1.088   3.554  20.395  0.00  0.00    +0.000 A 
ATOM      8  C   UNL     1       1.117   2.556  19.419  0.00  0.00    +0.000 A 
ATOM      9  C   UNL     1       1.656   2.802  18.159  0.00  0.00    +0.000 A 
ATOM     10  C   UNL     1       2.176   4.062  17.837  0.00  0.00    +0.000 A 
ATOM     11  C   UNL     1       2.157   5.092  18.800  0.00  0.00    +0.000 A 
ATOM     12  H   UNL     1       1.438   6.021  21.784  0.00  0.00    +0.000 HD
ENDBRANCH   1   3
BRANCH   1  14
ATOM     13  N   UNL     1       5.561   6.387  18.252  0.00  0.00    +0.000 N 
ATOM     14  C   UNL     1       4.673   6.767  17.256  0.00  0.00    +0.000 C 
ATOM     15  O   UNL     1       4.952   6.800  16.068  0.00  0.00    +0.000 OA
ATOM     16  H   UNL     1       5.220   6.457  19.207  0.00  0.00    +0.000 HD
BRANCH  13  18
ATOM     17  C   UNL     1       7.045   4.838  17.017  0.00  0.00    +0.000 C 
ATOM     18  C   UNL     1       6.962   6.036  17.982  0.00  0.00    +0.000 C 
ATOM     19  C   UNL     1       7.704   5.709  19.290  0.00  0.00    +0.000 C 
ATOM     20  C   UNL     1       7.663   7.232  17.318  0.00  0.00    +0.000 C 
ENDBRANCH  13  18
ENDBRANCH   1  14
TORSDOF 3
ENDMDL
MODEL 3
REMARK VINA RESULT:      -7.2      0.034      1.018
REMARK  Name = 
REMARK  6 active torsions:
REMARK  status: ('A' for Active; 'I' for Inactive)
REMARK    1  A    between atoms: C_1  and  C_2
REMARK    2  A    between atoms: C_2  and  C_3
REMARK    3  A    between atoms: C_2  and  C_4
REMARK    4  A    between atoms: C_2  and  N_5
REMARK    5  A    between atoms: C_6  and  C_8
REMARK    6  A    between atoms: C_8  and  C_10
REMARK                            x       y       z     vdW  Elec       q    Type
REMARK                         _______ _______ _______ _____ _____    ______ ____
ROOT
ATOM      1  C   UNL     1       3.259   7.227  17.760  0.00  0.00    +0.000 C 
ATOM      2  O   UNL     1       2.736   8.192  17.200  0.00  0.00    +0.000 OA
ENDROOT
BRANCH   1   3
ATOM      3  C   UNL     1       2.599   6.473  18.828  0.00  0.00    +0.000 A 
ATOM      4  C   UNL     1       2.287   6.957  20.088  0.00  0.00    +0.000 A 
ATOM      5  N   UNL     1       1.708   5.957  20.817  0.00  0.00    +0.000 N 
ATOM      6  C   UNL     1       1.620   4.815  20.061  0.00  0.00    +0.000 A 
ATOM      7  C   UNL     1       1.109   3.557  20.401  0.00  0.00    +0.000 A 
ATOM      8  C   UNL     1       1.165   2.555  19.431  0.00  0.00    +0.000 A 
ATOM      9  C   UNL     1       1.711   2.803  18.175  0.00  0.00    +0.000 A 
ATOM     10  C   UNL     1       2.211   4.070  17.849  0.00  0.00    +0.000 A 
ATOM     11  C   UNL     1       2.166   5.104  18.807  0.00  0.00    +0.000 A 
ATOM     12  H   UNL     1       1.404   6.038  21.778  0.00  0.00    +0.000 HD
ENDBRANCH   1   3
BRANCH   1  14
ATOM     13  N   UNL     1       5.539   6.403  18.256  0.00  0.00    +0.000 N 
ATOM     14  C   UNL     1       4.658   6.803  17.261  0.00  0.00    +0.000 C 
ATOM     15  O   UNL     1       4.946   6.859  16.077  0.00  0.00    +0.000 OA
ATOM     16  H   UNL     1       5.191   6.453  19.210  0.00  0.00    +0.000 HD
BRANCH  13  18
ATOM     17  C   UNL     1       7.661   5.667  19.294  0.00  0.00    +0.000 C 
ATOM     18  C   UNL     1       6.942   6.057  17.990  0.00  0.00    +0.000 C 
ATOM     19  C   UNL     1       7.674   7.232  17.316  0.00  0.00    +0.000 C 
ATOM     20  C   UNL     1       6.991   4.850  17.038  0.00  0.00    +0.000 C 
ENDBRANCH  13  18
ENDBRANCH   1  14
TORSDOF 3
ENDMDL
MODEL 4
REMARK VINA RESULT:      -7.1      2.019      3.586
REMARK  Name = 
REMARK  6 active torsions:
REMARK  status: ('A' for Active; 'I' for Inactive)
REMARK    1  A    between atoms: C_1  and  C_2
REMARK    2  A    between atoms: C_2  and  C_3
REMARK    3  A    between atoms: C_2  and  C_4
REMARK    4  A    between atoms: C_2  and  N_5
REMARK    5  A    between atoms: C_6  and  C_8
REMARK    6  A    between atoms: C_8  and  C_10
REMARK                            x       y       z     vdW  Elec       q    Type
REMARK                         _______ _______ _______ _____ _____    ______ ____
ROOT
ATOM      1  C   UNL     1       3.332   4.984  18.539  0.00  0.00    +0.000 C 
ATOM      2  O   UNL     1       2.745   4.238  17.754  0.00  0.00    +0.000 OA
ENDROOT
BRANCH   1   3
ATOM      3  C   UNL     1       2.640   5.982  19.357  0.00  0.00    +0.000 A 
ATOM      4  C   UNL     1       2.172   5.789  20.647  0.00  0.00    +0.000 A 
ATOM      5  N   UNL     1       1.556   6.932  21.071  0.00  0.00    +0.000 N 
ATOM      6  C   UNL     1       1.612   7.889  20.089  0.00  0.00    +0.000 A 
ATOM      7  C   UNL     1       1.107   9.194  20.084  0.00  0.00    +0.000 A 
ATOM      8  C   UNL     1       1.290   9.953  18.927  0.00  0.00    +0.000 A 
ATOM      9  C   UNL     1       1.950   9.425  17.821  0.00  0.00    +0.000 A 
ATOM     10  C   UNL     1       2.454   8.118  17.845  0.00  0.00    +0.000 A 
ATOM     11  C   UNL     1       2.289   7.328  19.001  0.00  0.00    +0.000 A 
ATOM     12  H   UNL     1       1.108   7.053  21.969  0.00  0.00    +0.000 HD
ENDBRANCH   1   3
BRANCH   1  14
ATOM     13  N   UNL     1       5.619   5.850  18.159  0.00  0.00    +0.000 N 
ATOM     14  C   UNL     1       4.862   4.804  18.665  0.00  0.00    +0.000 C 
ATOM     15  O   UNL     1       5.336   3.789  19.149  0.00  0.00    +0.000 OA
ATOM     16  H   UNL     1       5.101   6.614  17.733  0.00  0.00    +0.000 HD
BRANCH  13  18
ATOM     17  C   UNL     1       7.570   4.629  17.249  0.00  0.00    +0.000 C 
ATOM     18  C   UNL     1       7.087   5.818  18.100  0.00  0.00    +0.000 C 
ATOM     19  C   UNL     1       7.687   5.730  19.515  0.00  0.00    +0.000 C 
ATOM     20  C   UNL     1       7.594   7.112  17.443  0.00  0.00    +0.000 C 
ENDBRANCH  13  18
ENDBRANCH   1  14
TORSDOF 3
ENDMDL
MODEL 5
REMARK VINA RESULT:      -7.0      2.028      3.430
REMARK  Name = 
REMARK  6 active torsions:
REMARK  status: ('A' for Active; 'I' for Inactive)
REMARK    1  A    between atoms: C_1  and  C_2
REMARK    2  A    between atoms: C_2  and  C_3
REMARK    3  A    between atoms: C_2  and  C_4
REMARK    4  A    between atoms: C_2  and  N_5
REMARK    5  A    between atoms: C_6  and  C_8
REMARK    6  A    between atoms: C_8  and  C_10
REMARK                            x       y       z     vdW  Elec       q    Type
REMARK                         _______ _______ _______ _____ _____    ______ ____
ROOT
ATOM      1  C   UNL     1       3.355   4.911  18.629  0.00  0.00    +0.000 C 
ATOM      2  O   UNL     1       2.770   4.118  17.889  0.00  0.00    +0.000 OA
ENDROOT
BRANCH   1   3
ATOM      3  C   UNL     1       2.657   5.927  19.419  0.00  0.00    +0.000 A 
ATOM      4  C   UNL     1       2.169   5.759  20.705  0.00  0.00    +0.000 A 
ATOM      5  N   UNL     1       1.553   6.913  21.100  0.00  0.00    +0.000 N 
ATOM      6  C   UNL     1       1.628   7.852  20.102  0.00  0.00    +0.000 A 
ATOM      7  C   UNL     1       1.131   9.159  20.067  0.00  0.00    +0.000 A 
ATOM      8  C   UNL     1       1.335   9.897  18.899  0.00  0.00    +0.000 A 
ATOM      9  C   UNL     1       2.008   9.345  17.812  0.00  0.00    +0.000 A 
ATOM     10  C   UNL     1       2.505   8.037  17.867  0.00  0.00    +0.000 A 
ATOM     11  C   UNL     1       2.318   7.268  19.034  0.00  0.00    +0.000 A 
ATOM     12  H   UNL     1       1.092   7.053  21.989  0.00  0.00    +0.000 HD
ENDBRANCH   1   3
BRANCH   1  14
ATOM     13  N   UNL     1       5.612   5.828  18.194  0.00  0.00    +0.000 N 
ATOM     14  C   UNL     1       4.891   4.771  18.729  0.00  0.00    +0.000 C 
ATOM     15  O   UNL     1       5.400   3.776  19.219  0.00  0.00    +0.000 OA
ATOM     16  H   UNL     1       5.066   6.572  17.766  0.00  0.00    +0.000 HD
BRANCH  13  18
ATOM     17  C   UNL     1       7.581   7.145  17.477  0.00  0.00    +0.000 C 
ATOM     18  C   UNL     1       7.079   5.833  18.108  0.00  0.00    +0.000 C 
ATOM     19  C   UNL     1       7.580   4.629  17.289  0.00  0.00    +0.000 C 
ATOM     20  C   UNL     1       7.667   5.729  19.524  0.00  0.00    +0.000 C 
ENDBRANCH  13  18
ENDBRANCH   1  14
TORSDOF 3
ENDMDL
MODEL 6
REMARK VINA RESULT:      -7.0      2.041      3.558
REMARK  Name = 
REMARK  6 active torsions:
REMARK  status: ('A' for Active; 'I' for Inactive)
REMARK    1  A    between atoms: C_1  and  C_2
REMARK    2  A    between atoms: C_2  and  C_3
REMARK    3  A    between atoms: C_2  and  C_4
REMARK    4  A    between atoms: C_2  and  N_5
REMARK    5  A    between atoms: C_6  and  C_8
REMARK    6  A    between atoms: C_8  and  C_10
REMARK                            x       y       z     vdW  Elec       q    Type
REMARK                         _______ _______ _______ _____ _____    ______ ____
ROOT
ATOM      1  C   UNL     1       3.396   4.830  18.713  0.00  0.00    +0.000 C 
ATOM      2  O   UNL     1       2.819   3.993  18.016  0.00  0.00    +0.000 OA
ENDROOT
BRANCH   1   3
ATOM      3  C   UNL     1       2.684   5.859  19.475  0.00  0.00    +0.000 A 
ATOM      4  C   UNL     1       2.171   5.710  20.753  0.00  0.00    +0.000 A 
ATOM      5  N   UNL     1       1.550   6.870  21.119  0.00  0.00    +0.000 N 
ATOM      6  C   UNL     1       1.648   7.796  20.110  0.00  0.00    +0.000 A 
ATOM      7  C   UNL     1       1.156   9.103  20.048  0.00  0.00    +0.000 A 
ATOM      8  C   UNL     1       1.385   9.824  18.874  0.00  0.00    +0.000 A 
ATOM      9  C   UNL     1       2.078   9.256  17.808  0.00  0.00    +0.000 A 
ATOM     10  C   UNL     1       2.570   7.947  17.891  0.00  0.00    +0.000 A 
ATOM     11  C   UNL     1       2.358   7.195  19.065  0.00  0.00    +0.000 A 
ATOM     12  H   UNL     1       1.073   7.023  21.997  0.00  0.00    +0.000 HD
ENDBRANCH   1   3
BRANCH   1  14
ATOM     13  N   UNL     1       5.619   5.800  18.222  0.00  0.00    +0.000 N 
ATOM     14  C   UNL     1       4.936   4.734  18.790  0.00  0.00    +0.000 C 
ATOM     15  O   UNL     1       5.480   3.762  19.289  0.00  0.00    +0.000 OA
ATOM     16  H   UNL     1       5.047   6.520  17.791  0.00  0.00    +0.000 HD
BRANCH  13  18
ATOM     17  C   UNL     1       7.735   5.752  19.505  0.00  0.00    +0.000 C 
ATOM     18  C   UNL     1       7.084   5.842  18.112  0.00  0.00    +0.000 C 
ATOM     19  C   UNL     1       7.539   7.129  17.401  0.00  0.00    +0.000 C 
ATOM     20  C   UNL     1       7.562   4.639  17.283  0.00  0.00    +0.000 C 
ENDBRANCH  13  18
ENDBRANCH   1  14
TORSDOF 3
ENDMDL
MODEL 7
REMARK VINA RESULT:      -7.0      2.324      5.719
REMARK  Name = 
REMARK  6 active torsions:
REMARK  status: ('A' for Active; 'I' for Inactive)
REMARK    1  A    between atoms: C_1  and  C_2
REMARK    2  A    between atoms: C_2  and  C_3
REMARK    3  A    between atoms: C_2  and  C_4
REMARK    4  A    between atoms: C_2  and  N_5
REMARK    5  A    between atoms: C_6  and  C_8
REMARK    6  A    between atoms: C_8  and  C_10
REMARK                            x       y       z     vdW  Elec       q    Type
REMARK                         _______ _______ _______ _____ _____    ______ ____
ROOT
ATOM      1  C   UNL     1       5.661   5.190  19.092  0.00  0.00    +0.000 C 
ATOM      2  O   UNL     1       6.274   4.907  20.123  0.00  0.00    +0.000 OA
ENDROOT
BRANCH   1   3
ATOM      3  C   UNL     1       6.331   5.500  17.827  0.00  0.00    +0.000 A 
ATOM      4  C   UNL     1       7.246   6.520  17.625  0.00  0.00    +0.000 A 
ATOM      5  N   UNL     1       7.629   6.518  16.313  0.00  0.00    +0.000 N 
ATOM      6  C   UNL     1       6.991   5.508  15.638  0.00  0.00    +0.000 A 
ATOM      7  C   UNL     1       7.073   5.144  14.290  0.00  0.00    +0.000 A 
ATOM      8  C   UNL     1       6.287   4.074  13.860  0.00  0.00    +0.000 A 
ATOM      9  C   UNL     1       5.452   3.398  14.746  0.00  0.00    +0.000 A 
ATOM     10  C   UNL     1       5.387   3.771  16.094  0.00  0.00    +0.000 A 
ATOM     11  C   UNL     1       6.172   4.846  16.559  0.00  0.00    +0.000 A 
ATOM     12  H   UNL     1       8.274   7.175  15.894  0.00  0.00    +0.000 HD
ENDBRANCH   1   3
BRANCH   1  14
ATOM     13  N   UNL     1       3.550   3.906  19.235  0.00  0.00    +0.000 N 
ATOM     14  C   UNL     1       4.118   5.170  19.168  0.00  0.00    +0.000 C 
ATOM     15  O   UNL     1       3.475   6.207  19.135  0.00  0.00    +0.000 OA
ATOM     16  H   UNL     1       4.196   3.122  19.200  0.00  0.00    +0.000 HD
BRANCH  13  18
ATOM     17  C   UNL     1       1.494   4.155  17.880  0.00  0.00    +0.000 C 
ATOM     18  C   UNL     1       2.098   3.681  19.215  0.00  0.00    +0.000 C 
ATOM     19  C   UNL     1       1.418   4.409  20.388  0.00  0.00    +0.000 C 
ATOM     20  C   UNL     1       1.820   2.175  19.356  0.00  0.00    +0.000 C 
ENDBRANCH  13  18
ENDBRANCH   1  14
TORSDOF 3
ENDMDL
MODEL 8
REMARK VINA RESULT:      -6.9      3.405      4.837
REMARK  Name = 
REMARK  6 active torsions:
REMARK  status: ('A' for Active; 'I' for Inactive)
REMARK    1  A    between atoms: C_1  and  C_2
REMARK    2  A    between atoms: C_2  and  C_3
REMARK    3  A    between atoms: C_2  and  C_4
REMARK    4  A    between atoms: C_2  and  N_5
REMARK    5  A    between atoms: C_6  and  C_8
REMARK    6  A    between atoms: C_8  and  C_10
REMARK                            x       y       z     vdW  Elec       q    Type
REMARK                         _______ _______ _______ _____ _____    ______ ____
ROOT
ATOM      1  C   UNL     1       6.793   4.734  15.838  0.00  0.00    +0.000 C 
ATOM      2  O   UNL     1       7.746   4.238  16.442  0.00  0.00    +0.000 OA
ENDROOT
BRANCH   1   3
ATOM      3  C   UNL     1       5.670   5.382  16.520  0.00  0.00    +0.000 A 
ATOM      4  C   UNL     1       5.620   6.708  16.916  0.00  0.00    +0.000 A 
ATOM      5  N   UNL     1       4.429   6.938  17.546  0.00  0.00    +0.000 N 
ATOM      6  C   UNL     1       3.679   5.789  17.569  0.00  0.00    +0.000 A 
ATOM      7  C   UNL     1       2.411   5.562  18.113  0.00  0.00    +0.000 A 
ATOM      8  C   UNL     1       1.886   4.272  18.012  0.00  0.00    +0.000 A 
ATOM      9  C   UNL     1       2.605   3.253  17.392  0.00  0.00    +0.000 A 
ATOM     10  C   UNL     1       3.871   3.500  16.847  0.00  0.00    +0.000 A 
ATOM     11  C   UNL     1       4.425   4.794  16.930  0.00  0.00    +0.000 A 
ATOM     12  H   UNL     1       4.146   7.820  17.952  0.00  0.00    +0.000 HD
ENDBRANCH   1   3
BRANCH   1  14
ATOM     13  N   UNL     1       6.113   3.646  13.723  0.00  0.00    +0.000 N 
ATOM     14  C   UNL     1       6.837   4.681  14.295  0.00  0.00    +0.000 C 
ATOM     15  O   UNL     1       7.498   5.486  13.659  0.00  0.00    +0.000 OA
ATOM     16  H   UNL     1       5.650   3.012  14.368  0.00  0.00    +0.000 HD
BRANCH  13  18
ATOM     17  C   UNL     1       6.468   1.901  12.004  0.00  0.00    +0.000 C 
ATOM     18  C   UNL     1       6.113   3.374  12.278  0.00  0.00    +0.000 C 
ATOM     19  C   UNL     1       7.104   4.299  11.550  0.00  0.00    +0.000 C 
ATOM     20  C   UNL     1       4.707   3.638  11.715  0.00  0.00    +0.000 C 
ENDBRANCH  13  18
ENDBRANCH   1  14
TORSDOF 3
ENDMDL
MODEL 9
REMARK VINA RESULT:      -6.9      1.280      1.946
REMARK  Name = 
REMARK  6 active torsions:
REMARK  status: ('A' for Active; 'I' for Inactive)
REMARK    1  A    between atoms: C_1  and  C_2
REMARK    2  A    between atoms: C_2  and  C_3
REMARK    3  A    between atoms: C_2  and  C_4
REMARK    4  A    between atoms: C_2  and  N_5
REMARK    5  A    between atoms: C_6  and  C_8
REMARK    6  A    between atoms: C_8  and  C_10
REMARK                            x       y       z     vdW  Elec       q    Type
REMARK                         _______ _______ _______ _____ _____    ______ ____
ROOT
ATOM      1  C   UNL     1       3.198   6.445  18.140  0.00  0.00    +0.000 C 
ATOM      2  O   UNL     1       2.746   7.563  18.395  0.00  0.00    +0.000 OA
ENDROOT
BRANCH   1   3
ATOM      3  C   UNL     1       2.432   5.212  18.340  0.00  0.00    +0.000 A 
ATOM      4  C   UNL     1       1.715   4.538  17.365  0.00  0.00    +0.000 A 
ATOM      5  N   UNL     1       1.108   3.453  17.931  0.00  0.00    +0.000 N 
ATOM      6  C   UNL     1       1.416   3.386  19.267  0.00  0.00    +0.000 A 
ATOM      7  C   UNL     1       1.012   2.455  20.230  0.00  0.00    +0.000 A 
ATOM      8  C   UNL     1       1.464   2.642  21.538  0.00  0.00    +0.000 A 
ATOM      9  C   UNL     1       2.286   3.718  21.865  0.00  0.00    +0.000 A 
ATOM     10  C   UNL     1       2.685   4.636  20.887  0.00  0.00    +0.000 A 
ATOM     11  C   UNL     1       2.248   4.472  19.556  0.00  0.00    +0.000 A 
ATOM     12  H   UNL     1       0.506   2.803  17.445  0.00  0.00    +0.000 HD
ENDBRANCH   1   3
BRANCH   1  14
ATOM     13  N   UNL     1       5.605   5.953  18.435  0.00  0.00    +0.000 N 
ATOM     14  C   UNL     1       4.625   6.385  17.553  0.00  0.00    +0.000 C 
ATOM     15  O   UNL     1       4.846   6.730  16.403  0.00  0.00    +0.000 OA
ATOM     16  H   UNL     1       5.297   5.746  19.381  0.00  0.00    +0.000 HD
BRANCH  13  18
ATOM     17  C   UNL     1       7.476   7.268  17.490  0.00  0.00    +0.000 C 
ATOM     18  C   UNL     1       7.033   5.921  18.090  0.00  0.00    +0.000 C 
ATOM     19  C   UNL     1       7.329   4.781  17.099  0.00  0.00    +0.000 C 
ATOM     20  C   UNL     1       7.854   5.674  19.366  0.00  0.00    +0.000 C 
ENDBRANCH  13  18
ENDBRANCH   1  14
TORSDOF 3
ENDMDL
