MODEL 1
REMARK VINA RESULT:      -7.8      0.000      0.000
REMARK  Name = 
REMARK  4 active torsions:
REMARK  status: ('A' for Active; 'I' for Inactive)
REMARK    1  A    between atoms: C_6  and  C_7
REMARK    2  A    between atoms: C_7  and  O_8
REMARK    3  A    between atoms: C_7  and  C_9
REMARK    4  A    between atoms: C_15  and  O_16
REMARK                            x       y       z     vdW  Elec       q    Type
REMARK                         _______ _______ _______ _____ _____    ______ ____
ROOT
ATOM      1  O   UNL     1       8.230   8.197  18.186  0.00  0.00    +0.000 OA
ATOM      2  C   UNL     1       7.803   7.095  17.866  0.00  0.00    +0.000 C 
ATOM      3  C   UNL     1       7.512   5.989  18.820  0.00  0.00    +0.000 C 
ATOM      4  C   UNL     1       6.970   4.896  17.940  0.00  0.00    +0.000 C 
ATOM      5  O   UNL     1       5.627   4.602  18.309  0.00  0.00    +0.000 OA
ATOM      6  C   UNL     1       4.774   4.671  17.146  0.00  0.00    +0.000 C 
ATOM      7  C   UNL     1       5.524   5.518  16.113  0.00  0.00    +0.000 C 
ATOM      8  C   UNL     1       6.986   5.425  16.531  0.00  0.00    +0.000 C 
ATOM      9  O   UNL     1       7.588   6.718  16.577  0.00  0.00    +0.000 OA
ENDROOT
BRANCH   7  10
ATOM     10  O   UNL     1       5.319   5.023  14.787  0.00  0.00    +0.000 OA
ATOM     11  H   UNL     1       4.850   5.692  14.260  0.00  0.00    +0.000 HD
ENDBRANCH   7  10
BRANCH   6  12
ATOM     12  C   UNL     1       3.409   5.286  17.540  0.00  0.00    +0.000 C 
BRANCH  12  13
ATOM     13  C   UNL     1       2.539   4.500  18.511  0.00  0.00    +0.000 A 
ATOM     14  C   UNL     1       1.927   3.316  18.060  0.00  0.00    +0.000 A 
ATOM     15  C   UNL     1       1.028   2.615  18.867  0.00  0.00    +0.000 A 
ATOM     16  C   UNL     1       0.728   3.078  20.143  0.00  0.00    +0.000 A 
ATOM     17  C   UNL     1       1.349   4.228  20.621  0.00  0.00    +0.000 A 
ATOM     18  C   UNL     1       2.251   4.928  19.817  0.00  0.00    +0.000 A 
ENDBRANCH  12  13
BRANCH  12  19
ATOM     19  O   UNL     1       3.656   6.566  18.143  0.00  0.00    +0.000 OA
ATOM     20  H   UNL     1       3.482   6.447  19.096  0.00  0.00    +0.000 HD
ENDBRANCH  12  19
ENDBRANCH   6  12
TORSDOF 4
ENDMDL
MODEL 2
REMARK VINA RESULT:      -7.8      0.174      1.141
REMARK  Name = 
REMARK  4 active torsions:
REMARK  status: ('A' for Active; 'I' for Inactive)
REMARK    1  A    between atoms: C_6  and  C_7
REMARK    2  A    between atoms: C_7  and  O_8
REMARK    3  A    between atoms: C_7  and  C_9
REMARK    4  A    between atoms: C_15  and  O_16
REMARK                            x       y       z     vdW  Elec       q    Type
REMARK                         _______ _______ _______ _____ _____    ______ ____
ROOT
ATOM      1  O   UNL     1       8.223   8.124  18.175  0.00  0.00    +0.000 OA
ATOM      2  C   UNL     1       7.774   7.021  17.893  0.00  0.00    +0.000 C 
ATOM      3  C   UNL     1       7.452   5.958  18.885  0.00  0.00    +0.000 C 
ATOM      4  C   UNL     1       6.891   4.845  18.042  0.00  0.00    +0.000 C 
ATOM      5  O   UNL     1       5.539   4.595  18.413  0.00  0.00    +0.000 OA
ATOM      6  C   UNL     1       4.695   4.640  17.242  0.00  0.00    +0.000 C 
ATOM      7  C   UNL     1       5.470   5.431  16.184  0.00  0.00    +0.000 C 
ATOM      8  C   UNL     1       6.927   5.321  16.615  0.00  0.00    +0.000 C 
ATOM      9  O   UNL     1       7.558   6.601  16.617  0.00  0.00    +0.000 OA
ENDROOT
BRANCH   7  10
ATOM     10  O   UNL     1       5.262   4.892  14.876  0.00  0.00    +0.000 OA
ATOM     11  H   UNL     1       5.929   5.253  14.267  0.00  0.00    +0.000 HD
ENDBRANCH   7  10
BRANCH   6  12
ATOM     12  C   UNL     1       3.342   5.300  17.604  0.00  0.00    +0.000 C 
BRANCH  12  13
ATOM     13  C   UNL     1       2.414   4.534  18.538  0.00  0.00    +0.000 A 
ATOM     14  C   UNL     1       2.339   4.933  19.885  0.00  0.00    +0.000 A 
ATOM     15  C   UNL     1       1.596   4.200  20.814  0.00  0.00    +0.000 A 
ATOM     16  C   UNL     1       0.909   3.059  20.415  0.00  0.00    +0.000 A 
ATOM     17  C   UNL     1       0.943   2.667  19.080  0.00  0.00    +0.000 A 
ATOM     18  C   UNL     1       1.682   3.402  18.149  0.00  0.00    +0.000 A 
ENDBRANCH  12  13
BRANCH  12  19
ATOM     19  O   UNL     1       3.617   6.562  18.232  0.00  0.00    +0.000 OA
ATOM     20  H   UNL     1       4.130   7.076  17.579  0.00  0.00    +0.000 HD
ENDBRANCH  12  19
ENDBRANCH   6  12
TORSDOF 4
ENDMDL
MODEL 3
REMARK VINA RESULT:      -7.7      1.643      2.917
REMARK  Name = 
REMARK  4 active torsions:
REMARK  status: ('A' for Active; 'I' for Inactive)
REMARK    1  A    between atoms: C_6  and  C_7
REMARK    2  A    between atoms: C_7  and  O_8
REMARK    3  A    between atoms: C_7  and  C_9
REMARK    4  A    between atoms: C_15  and  O_16
REMARK                            x       y       z     vdW  Elec       q    Type
REMARK                         _______ _______ _______ _____ _____    ______ ____
ROOT
ATOM      1  O   UNL     1       6.719   4.044  13.615  0.00  0.00    +0.000 OA
ATOM      2  C   UNL     1       6.587   4.695  14.643  0.00  0.00    +0.000 C 
ATOM      3  C   UNL     1       5.357   5.446  15.018  0.00  0.00    +0.000 C 
ATOM      4  C   UNL     1       5.689   6.017  16.370  0.00  0.00    +0.000 C 
ATOM      5  O   UNL     1       4.797   5.490  17.347  0.00  0.00    +0.000 OA
ATOM      6  C   UNL     1       5.549   4.927  18.443  0.00  0.00    +0.000 C 
ATOM      7  C   UNL     1       6.955   4.651  17.902  0.00  0.00    +0.000 C 
ATOM      8  C   UNL     1       7.090   5.573  16.697  0.00  0.00    +0.000 C 
ATOM      9  O   UNL     1       7.578   4.862  15.560  0.00  0.00    +0.000 OA
ENDROOT
BRANCH   7  10
ATOM     10  O   UNL     1       7.955   4.919  18.888  0.00  0.00    +0.000 OA
ATOM     11  H   UNL     1       8.366   5.782  18.707  0.00  0.00    +0.000 HD
ENDBRANCH   7  10
BRANCH   6  12
ATOM     12  C   UNL     1       4.845   3.645  18.951  0.00  0.00    +0.000 C 
BRANCH  12  13
ATOM     13  C   UNL     1       3.452   3.798  19.547  0.00  0.00    +0.000 A 
ATOM     14  C   UNL     1       2.549   2.726  19.427  0.00  0.00    +0.000 A 
ATOM     15  C   UNL     1       1.223   2.849  19.851  0.00  0.00    +0.000 A 
ATOM     16  C   UNL     1       0.777   4.041  20.409  0.00  0.00    +0.000 A 
ATOM     17  C   UNL     1       1.664   5.101  20.568  0.00  0.00    +0.000 A 
ATOM     18  C   UNL     1       2.991   4.979  20.149  0.00  0.00    +0.000 A 
ENDBRANCH  12  13
BRANCH  12  19
ATOM     19  O   UNL     1       4.728   2.736  17.845  0.00  0.00    +0.000 OA
ATOM     20  H   UNL     1       4.523   3.289  17.068  0.00  0.00    +0.000 HD
ENDBRANCH  12  19
ENDBRANCH   6  12
TORSDOF 4
ENDMDL
MODEL 4
REMARK VINA RESULT:      -7.7      2.299      6.022
REMARK  Name = 
REMARK  4 active torsions:
REMARK  status: ('A' for Active; 'I' for Inactive)
REMARK    1  A    between atoms: C_6  and  C_7
REMARK    2  A    between atoms: C_7  and  O_8
REMARK    3  A    between atoms: C_7  and  C_9
REMARK    4  A    between atoms: C_15  and  O_16
REMARK                            x       y       z     vdW  Elec       q    Type
REMARK                         _______ _______ _______ _____ _____    ______ ____
ROOT
ATOM      1  O   UNL     1       1.637   2.476  22.294  0.00  0.00    +0.000 OA
ATOM      2  C   UNL     1       1.658   3.182  21.294  0.00  0.00    +0.000 C 
ATOM      3  C   UNL     1       2.107   4.601  21.268  0.00  0.00    +0.000 C 
ATOM      4  C   UNL     1       1.991   4.983  19.817  0.00  0.00    +0.000 C 
ATOM      5  O   UNL     1       3.276   5.320  19.304  0.00  0.00    +0.000 OA
ATOM      6  C   UNL     1       3.541   4.554  18.109  0.00  0.00    +0.000 C 
ATOM      7  C   UNL     1       2.603   3.344  18.158  0.00  0.00    +0.000 C 
ATOM      8  C   UNL     1       1.476   3.770  19.090  0.00  0.00    +0.000 C 
ATOM      9  O   UNL     1       1.220   2.769  20.074  0.00  0.00    +0.000 OA
ENDROOT
BRANCH   7  10
ATOM     10  O   UNL     1       2.116   3.010  16.856  0.00  0.00    +0.000 OA
ATOM     11  H   UNL     1       1.156   3.159  16.820  0.00  0.00    +0.000 HD
ENDBRANCH   7  10
BRANCH   6  12
ATOM     12  C   UNL     1       5.034   4.147  18.075  0.00  0.00    +0.000 C 
BRANCH  12  13
ATOM     13  C   UNL     1       6.066   5.265  18.008  0.00  0.00    +0.000 A 
ATOM     14  C   UNL     1       7.156   5.229  18.896  0.00  0.00    +0.000 A 
ATOM     15  C   UNL     1       8.070   6.283  18.961  0.00  0.00    +0.000 A 
ATOM     16  C   UNL     1       7.917   7.391  18.135  0.00  0.00    +0.000 A 
ATOM     17  C   UNL     1       6.866   7.431  17.225  0.00  0.00    +0.000 A 
ATOM     18  C   UNL     1       5.953   6.375  17.156  0.00  0.00    +0.000 A 
ENDBRANCH  12  13
BRANCH  12  19
ATOM     19  O   UNL     1       5.316   3.391  19.264  0.00  0.00    +0.000 OA
ATOM     20  H   UNL     1       4.594   3.599  19.887  0.00  0.00    +0.000 HD
ENDBRANCH  12  19
ENDBRANCH   6  12
TORSDOF 4
ENDMDL
MODEL 5
REMARK VINA RESULT:      -7.7      1.616      3.088
REMARK  Name = 
REMARK  4 active torsions:
REMARK  status: ('A' for Active; 'I' for Inactive)
REMARK    1  A    between atoms: C_6  and  C_7
REMARK    2  A    between atoms: C_7  and  O_8
REMARK    3  A    between atoms: C_7  and  C_9
REMARK    4  A    between atoms: C_15  and  O_16
REMARK                            x       y       z     vdW  Elec       q    Type
REMARK                         _______ _______ _______ _____ _____    ______ ____
ROOT
ATOM      1  O   UNL     1       6.781   4.135  13.518  0.00  0.00    +0.000 OA
ATOM      2  C   UNL     1       6.636   4.759  14.561  0.00  0.00    +0.000 C 
ATOM      3  C   UNL     1       5.414   5.528  14.924  0.00  0.00    +0.000 C 
ATOM      4  C   UNL     1       5.721   6.052  16.302  0.00  0.00    +0.000 C 
ATOM      5  O   UNL     1       4.790   5.518  17.238  0.00  0.00    +0.000 OA
ATOM      6  C   UNL     1       5.499   4.906  18.337  0.00  0.00    +0.000 C 
ATOM      7  C   UNL     1       6.912   4.612  17.826  0.00  0.00    +0.000 C 
ATOM      8  C   UNL     1       7.102   5.565  16.653  0.00  0.00    +0.000 C 
ATOM      9  O   UNL     1       7.605   4.876  15.509  0.00  0.00    +0.000 OA
ENDROOT
BRANCH   7  10
ATOM     10  O   UNL     1       7.890   4.828  18.846  0.00  0.00    +0.000 OA
ATOM     11  H   UNL     1       8.733   4.421  18.580  0.00  0.00    +0.000 HD
ENDBRANCH   7  10
BRANCH   6  12
ATOM     12  C   UNL     1       4.752   3.627  18.787  0.00  0.00    +0.000 C 
BRANCH  12  13
ATOM     13  C   UNL     1       3.315   3.784  19.266  0.00  0.00    +0.000 A 
ATOM     14  C   UNL     1       3.023   4.801  20.193  0.00  0.00    +0.000 A 
ATOM     15  C   UNL     1       1.750   4.921  20.756  0.00  0.00    +0.000 A 
ATOM     16  C   UNL     1       0.742   4.034  20.397  0.00  0.00    +0.000 A 
ATOM     17  C   UNL     1       1.000   3.043  19.455  0.00  0.00    +0.000 A 
ATOM     18  C   UNL     1       2.272   2.924  18.889  0.00  0.00    +0.000 A 
ENDBRANCH  12  13
BRANCH  12  19
ATOM     19  O   UNL     1       4.723   2.715  17.677  0.00  0.00    +0.000 OA
ATOM     20  H   UNL     1       5.456   2.988  17.092  0.00  0.00    +0.000 HD
ENDBRANCH  12  19
ENDBRANCH   6  12
TORSDOF 4
ENDMDL
MODEL 6
REMARK VINA RESULT:      -7.7      1.487      2.980
REMARK  Name = 
REMARK  4 active torsions:
REMARK  status: ('A' for Active; 'I' for Inactive)
REMARK    1  A    between atoms: C_6  and  C_7
REMARK    2  A    between atoms: C_7  and  O_8
REMARK    3  A    between atoms: C_7  and  C_9
REMARK    4  A    between atoms: C_15  and  O_16
REMARK                            x       y       z     vdW  Elec       q    Type
REMARK                         _______ _______ _______ _____ _____    ______ ____
ROOT
ATOM      1  O   UNL     1       6.945   4.870  14.653  0.00  0.00    +0.000 OA
ATOM      2  C   UNL     1       6.630   5.449  15.685  0.00  0.00    +0.000 C 
ATOM      3  C   UNL     1       5.274   5.993  15.972  0.00  0.00    +0.000 C 
ATOM      4  C   UNL     1       5.401   6.545  17.366  0.00  0.00    +0.000 C 
ATOM      5  O   UNL     1       4.520   5.850  18.241  0.00  0.00    +0.000 OA
ATOM      6  C   UNL     1       5.253   5.356  19.382  0.00  0.00    +0.000 C 
ATOM      7  C   UNL     1       6.725   5.313  18.961  0.00  0.00    +0.000 C 
ATOM      8  C   UNL     1       6.821   6.298  17.803  0.00  0.00    +0.000 C 
ATOM      9  O   UNL     1       7.505   5.718  16.692  0.00  0.00    +0.000 OA
ENDROOT
BRANCH   7  10
ATOM     10  O   UNL     1       7.586   5.681  20.041  0.00  0.00    +0.000 OA
ATOM     11  H   UNL     1       8.512   5.530  19.784  0.00  0.00    +0.000 HD
ENDBRANCH   7  10
BRANCH   6  12
ATOM     12  C   UNL     1       4.710   3.962  19.783  0.00  0.00    +0.000 C 
BRANCH  12  13
ATOM     13  C   UNL     1       3.223   3.702  19.576  0.00  0.00    +0.000 A 
ATOM     14  C   UNL     1       2.308   4.287  20.469  0.00  0.00    +0.000 A 
ATOM     15  C   UNL     1       0.943   3.993  20.400  0.00  0.00    +0.000 A 
ATOM     16  C   UNL     1       0.467   3.114  19.434  0.00  0.00    +0.000 A 
ATOM     17  C   UNL     1       1.351   2.552  18.520  0.00  0.00    +0.000 A 
ATOM     18  C   UNL     1       2.715   2.848  18.584  0.00  0.00    +0.000 A 
ENDBRANCH  12  13
BRANCH  12  19
ATOM     19  O   UNL     1       5.416   2.973  19.018  0.00  0.00    +0.000 OA
ATOM     20  H   UNL     1       4.959   2.927  18.157  0.00  0.00    +0.000 HD
ENDBRANCH  12  19
ENDBRANCH   6  12
TORSDOF 4
ENDMDL
MODEL 7
REMARK VINA RESULT:      -7.6      1.505      2.737
REMARK  Name = 
REMARK  4 active torsions:
REMARK  status: ('A' for Active; 'I' for Inactive)
REMARK    1  A    between atoms: C_6  and  C_7
REMARK    2  A    between atoms: C_7  and  O_8
REMARK    3  A    between atoms: C_7  and  C_9
REMARK    4  A    between atoms: C_15  and  O_16
REMARK                            x       y       z     vdW  Elec       q    Type
REMARK                         _______ _______ _______ _____ _____    ______ ____
ROOT
ATOM      1  O   UNL     1       7.072   5.160  14.632  0.00  0.00    +0.000 OA
ATOM      2  C   UNL     1       6.704   5.652  15.690  0.00  0.00    +0.000 C 
ATOM      3  C   UNL     1       5.314   6.101  15.978  0.00  0.00    +0.000 C 
ATOM      4  C   UNL     1       5.380   6.569  17.406  0.00  0.00    +0.000 C 
ATOM      5  O   UNL     1       4.522   5.771  18.215  0.00  0.00    +0.000 OA
ATOM      6  C   UNL     1       5.259   5.246  19.339  0.00  0.00    +0.000 C 
ATOM      7  C   UNL     1       6.739   5.312  18.952  0.00  0.00    +0.000 C 
ATOM      8  C   UNL     1       6.802   6.373  17.861  0.00  0.00    +0.000 C 
ATOM      9  O   UNL     1       7.541   5.904  16.733  0.00  0.00    +0.000 OA
ENDROOT
BRANCH   7  10
ATOM     10  O   UNL     1       7.555   5.657  20.074  0.00  0.00    +0.000 OA
ATOM     11  H   UNL     1       8.093   6.437  19.857  0.00  0.00    +0.000 HD
ENDBRANCH   7  10
BRANCH   6  12
ATOM     12  C   UNL     1       4.787   3.801  19.639  0.00  0.00    +0.000 C 
BRANCH  12  13
ATOM     13  C   UNL     1       3.286   3.554  19.715  0.00  0.00    +0.000 A 
ATOM     14  C   UNL     1       2.710   2.638  18.816  0.00  0.00    +0.000 A 
ATOM     15  C   UNL     1       1.326   2.455  18.761  0.00  0.00    +0.000 A 
ATOM     16  C   UNL     1       0.492   3.178  19.606  0.00  0.00    +0.000 A 
ATOM     17  C   UNL     1       1.045   4.064  20.526  0.00  0.00    +0.000 A 
ATOM     18  C   UNL     1       2.429   4.244  20.586  0.00  0.00    +0.000 A 
ENDBRANCH  12  13
BRANCH  12  19
ATOM     19  O   UNL     1       5.299   2.944  18.606  0.00  0.00    +0.000 OA
ATOM     20  H   UNL     1       5.902   2.321  19.055  0.00  0.00    +0.000 HD
ENDBRANCH  12  19
ENDBRANCH   6  12
TORSDOF 4
ENDMDL
MODEL 8
REMARK VINA RESULT:      -7.6      2.433      6.016
REMARK  Name = 
REMARK  4 active torsions:
REMARK  status: ('A' for Active; 'I' for Inactive)
REMARK    1  A    between atoms: C_6  and  C_7
REMARK    2  A    between atoms: C_7  and  O_8
REMARK    3  A    between atoms: C_7  and  C_9
REMARK    4  A    between atoms: C_15  and  O_16
REMARK                            x       y       z     vdW  Elec       q    Type
REMARK                         _______ _______ _______ _____ _____    ______ ____
ROOT
ATOM      1  O   UNL     1       1.478   2.588  22.419  0.00  0.00    +0.000 OA
ATOM      2  C   UNL     1       1.500   3.055  21.288  0.00  0.00    +0.000 C 
ATOM      3  C   UNL     1       1.766   4.484  20.966  0.00  0.00    +0.000 C 
ATOM      4  C   UNL     1       1.733   4.521  19.462  0.00  0.00    +0.000 C 
ATOM      5  O   UNL     1       3.006   4.918  18.962  0.00  0.00    +0.000 OA
ATOM      6  C   UNL     1       3.472   3.957  17.991  0.00  0.00    +0.000 C 
ATOM      7  C   UNL     1       2.694   2.665  18.258  0.00  0.00    +0.000 C 
ATOM      8  C   UNL     1       1.443   3.118  19.000  0.00  0.00    +0.000 C 
ATOM      9  O   UNL     1       1.228   2.329  20.169  0.00  0.00    +0.000 OA
ENDROOT
BRANCH   7  10
ATOM     10  O   UNL     1       2.372   1.990  17.039  0.00  0.00    +0.000 OA
ATOM     11  H   UNL     1       2.500   1.033  17.154  0.00  0.00    +0.000 HD
ENDBRANCH   7  10
BRANCH   6  12
ATOM     12  C   UNL     1       5.002   3.771  18.139  0.00  0.00    +0.000 C 
BRANCH  12  13
ATOM     13  C   UNL     1       5.871   5.019  18.072  0.00  0.00    +0.000 A 
ATOM     14  C   UNL     1       5.604   5.972  17.072  0.00  0.00    +0.000 A 
ATOM     15  C   UNL     1       6.437   7.079  16.888  0.00  0.00    +0.000 A 
ATOM     16  C   UNL     1       7.548   7.259  17.704  0.00  0.00    +0.000 A 
ATOM     17  C   UNL     1       7.810   6.347  18.721  0.00  0.00    +0.000 A 
ATOM     18  C   UNL     1       6.976   5.242  18.909  0.00  0.00    +0.000 A 
ENDBRANCH  12  13
BRANCH  12  19
ATOM     19  O   UNL     1       5.253   3.156  19.412  0.00  0.00    +0.000 OA
ATOM     20  H   UNL     1       5.060   2.206  19.290  0.00  0.00    +0.000 HD
ENDBRANCH  12  19
ENDBRANCH   6  12
TORSDOF 4
ENDMDL
MODEL 9
REMARK VINA RESULT:      -7.5      2.329      5.997
REMARK  Name = 
REMARK  4 active torsions:
REMARK  status: ('A' for Active; 'I' for Inactive)
REMARK    1  A    between atoms: C_6  and  C_7
REMARK    2  A    between atoms: C_7  and  O_8
REMARK    3  A    between atoms: C_7  and  C_9
REMARK    4  A    between atoms: C_15  and  O_16
REMARK                            x       y       z     vdW  Elec       q    Type
REMARK                         _______ _______ _______ _____ _____    ______ ____
ROOT
ATOM      1  O   UNL     1       1.892   2.013  22.191  0.00  0.00    +0.000 OA
ATOM      2  C   UNL     1       1.771   2.963  21.429  0.00  0.00    +0.000 C 
ATOM      3  C   UNL     1       2.397   4.299  21.634  0.00  0.00    +0.000 C 
ATOM      4  C   UNL     1       1.989   5.073  20.410  0.00  0.00    +0.000 C 
ATOM      5  O   UNL     1       3.146   5.444  19.667  0.00  0.00    +0.000 OA
ATOM      6  C   UNL     1       3.002   5.020  18.295  0.00  0.00    +0.000 C 
ATOM      7  C   UNL     1       1.941   3.915  18.295  0.00  0.00    +0.000 C 
ATOM      8  C   UNL     1       1.146   4.149  19.573  0.00  0.00    +0.000 C 
ATOM      9  O   UNL     1       0.995   2.937  20.311  0.00  0.00    +0.000 OA
ENDROOT
BRANCH   7  10
ATOM     10  O   UNL     1       1.111   3.990  17.133  0.00  0.00    +0.000 OA
ATOM     11  H   UNL     1       0.556   4.787  17.181  0.00  0.00    +0.000 HD
ENDBRANCH   7  10
BRANCH   6  12
ATOM     12  C   UNL     1       4.369   4.531  17.757  0.00  0.00    +0.000 C 
BRANCH  12  13
ATOM     13  C   UNL     1       5.583   5.413  18.017  0.00  0.00    +0.000 A 
ATOM     14  C   UNL     1       5.797   6.524  17.182  0.00  0.00    +0.000 A 
ATOM     15  C   UNL     1       6.952   7.303  17.299  0.00  0.00    +0.000 A 
ATOM     16  C   UNL     1       7.911   6.990  18.256  0.00  0.00    +0.000 A 
ATOM     17  C   UNL     1       7.701   5.916  19.114  0.00  0.00    +0.000 A 
ATOM     18  C   UNL     1       6.545   5.139  19.002  0.00  0.00    +0.000 A 
ENDBRANCH  12  13
BRANCH  12  19
ATOM     19  O   UNL     1       4.648   3.253  18.350  0.00  0.00    +0.000 OA
ATOM     20  H   UNL     1       3.794   2.781  18.375  0.00  0.00    +0.000 HD
ENDBRANCH  12  19
ENDBRANCH   6  12
TORSDOF 4
ENDMDL
