MODEL 1
REMARK VINA RESULT:      -7.1      0.000      0.000
REMARK  Name = 
REMARK  7 active torsions:
REMARK  status: ('A' for Active; 'I' for Inactive)
REMARK    1  A    between atoms: C_1  and  C_2
REMARK    2  A    between atoms: N_4  and  C_5
REMARK    3  A    between atoms: C_8  and  C_9
REMARK    4  A    between atoms: N_15  and  C_16
REMARK    5  A    between atoms: N_19  and  C_20
REMARK    6  A    between atoms: N_21  and  C_22
REMARK    7  A    between atoms: C_25  and  C_26
REMARK                            x       y       z     vdW  Elec       q    Type
REMARK                         _______ _______ _______ _____ _____    ______ ____
ROOT
ATOM      1  C   UNL     1       1.214  12.421  19.333  0.00  0.00    +0.000 A 
ATOM      2  N   UNL     1       2.291  13.012  18.835  0.00  0.00    +0.000 NA
ATOM      3  C   UNL     1       1.979  14.318  18.710  0.00  0.00    +0.000 A 
ATOM      4  C   UNL     1       0.692  14.583  19.077  0.00  0.00    +0.000 A 
ATOM      5  C   UNL     1       0.137  15.891  18.898  0.00  0.00    +0.000 A 
ATOM      6  O   UNL     1      -1.056  16.160  19.007  0.00  0.00    +0.000 OA
ATOM      7  N   UNL     1       1.083  16.859  18.534  0.00  0.00    +0.000 N 
ATOM      8  C   UNL     1       0.651  18.241  18.423  0.00  0.00    +0.000 C 
ATOM      9  C   UNL     1       2.407  16.597  18.141  0.00  0.00    +0.000 A 
ATOM     10  O   UNL     1       3.138  17.500  17.724  0.00  0.00    +0.000 OA
ATOM     11  N   UNL     1       2.836  15.278  18.228  0.00  0.00    +0.000 N 
ATOM     12  C   UNL     1       4.186  14.920  17.825  0.00  0.00    +0.000 C 
ATOM     13  N   UNL     1       0.162  13.364  19.501  0.00  0.00    +0.000 N 
ENDROOT
BRANCH  13  14
ATOM     14  C   UNL     1      -1.156  13.125  20.010  0.00  0.00    +0.000 A 
ATOM     15  C   UNL     1      -1.529  13.559  21.289  0.00  0.00    +0.000 A 
ATOM     16  C   UNL     1      -2.851  13.433  21.733  0.00  0.00    +0.000 A 
ATOM     17  C   UNL     1      -3.812  12.807  20.938  0.00  0.00    +0.000 A 
ATOM     18  C   UNL     1      -5.226  12.645  21.407  0.00  0.00    +0.000 C 
ATOM     19  C   UNL     1      -3.428  12.312  19.689  0.00  0.00    +0.000 A 
ATOM     20  C   UNL     1      -2.123  12.494  19.218  0.00  0.00    +0.000 A 
ENDBRANCH  13  14
BRANCH   1  24
ATOM     21  C   UNL     1       1.388   8.257  20.446  0.00  0.00    +0.000 A 
ATOM     22  C   UNL     1       1.532   8.632  19.110  0.00  0.00    +0.000 A 
ATOM     23  C   UNL     1       1.406   9.972  18.720  0.00  0.00    +0.000 A 
ATOM     24  C   UNL     1       1.229  10.985  19.665  0.00  0.00    +0.000 A 
ATOM     25  C   UNL     1       1.013  10.592  21.000  0.00  0.00    +0.000 A 
ATOM     26  C   UNL     1       1.075   9.244  21.385  0.00  0.00    +0.000 A 
BRANCH  21  30
ATOM     27  C   UNL     1       2.121   4.590  20.946  0.00  0.00    +0.000 C 
ATOM     28  C   UNL     1       2.285   5.938  20.293  0.00  0.00    +0.000 C 
ATOM     29  O   UNL     1       3.033   6.077  19.330  0.00  0.00    +0.000 OA
ATOM     30  N   UNL     1       1.519   6.926  20.892  0.00  0.00    +0.000 N 
ATOM     31  H   UNL     1       1.101   6.705  21.788  0.00  0.00    +0.000 HD
ENDBRANCH  21  30
ENDBRANCH   1  24
TORSDOF 3
ENDMDL
MODEL 2
REMARK VINA RESULT:      -7.1      0.930      1.038
REMARK  Name = 
REMARK  7 active torsions:
REMARK  status: ('A' for Active; 'I' for Inactive)
REMARK    1  A    between atoms: C_1  and  C_2
REMARK    2  A    between atoms: N_4  and  C_5
REMARK    3  A    between atoms: C_8  and  C_9
REMARK    4  A    between atoms: N_15  and  C_16
REMARK    5  A    between atoms: N_19  and  C_20
REMARK    6  A    between atoms: N_21  and  C_22
REMARK    7  A    between atoms: C_25  and  C_26
REMARK                            x       y       z     vdW  Elec       q    Type
REMARK                         _______ _______ _______ _____ _____    ______ ____
ROOT
ATOM      1  C   UNL     1       1.669  12.036  18.745  0.00  0.00    +0.000 A 
ATOM      2  N   UNL     1       2.802  12.676  18.488  0.00  0.00    +0.000 NA
ATOM      3  C   UNL     1       2.493  13.988  18.463  0.00  0.00    +0.000 A 
ATOM      4  C   UNL     1       1.162  14.215  18.653  0.00  0.00    +0.000 A 
ATOM      5  C   UNL     1       0.622  15.537  18.537  0.00  0.00    +0.000 A 
ATOM      6  O   UNL     1      -0.576  15.795  18.490  0.00  0.00    +0.000 OA
ATOM      7  N   UNL     1       1.600  16.536  18.434  0.00  0.00    +0.000 N 
ATOM      8  C   UNL     1       1.170  17.923  18.412  0.00  0.00    +0.000 C 
ATOM      9  C   UNL     1       2.972  16.315  18.224  0.00  0.00    +0.000 A 
ATOM     10  O   UNL     1       3.746  17.257  18.028  0.00  0.00    +0.000 OA
ATOM     11  N   UNL     1       3.402  14.994  18.229  0.00  0.00    +0.000 N 
ATOM     12  C   UNL     1       4.802  14.679  18.003  0.00  0.00    +0.000 C 
ATOM     13  N   UNL     1       0.590  12.957  18.852  0.00  0.00    +0.000 N 
ENDROOT
BRANCH  13  14
ATOM     14  C   UNL     1      -0.787  12.668  19.121  0.00  0.00    +0.000 A 
ATOM     15  C   UNL     1      -1.376  13.019  20.343  0.00  0.00    +0.000 A 
ATOM     16  C   UNL     1      -2.751  12.846  20.553  0.00  0.00    +0.000 A 
ATOM     17  C   UNL     1      -3.550  12.252  19.576  0.00  0.00    +0.000 A 
ATOM     18  C   UNL     1      -5.018  12.039  19.795  0.00  0.00    +0.000 C 
ATOM     19  C   UNL     1      -2.954  11.837  18.383  0.00  0.00    +0.000 A 
ATOM     20  C   UNL     1      -1.594  12.068  18.147  0.00  0.00    +0.000 A 
ENDBRANCH  13  14
BRANCH   1  24
ATOM     21  C   UNL     1       1.732   7.773  19.399  0.00  0.00    +0.000 A 
ATOM     22  C   UNL     1       2.041   8.293  18.142  0.00  0.00    +0.000 A 
ATOM     23  C   UNL     1       1.956   9.669  17.891  0.00  0.00    +0.000 A 
ATOM     24  C   UNL     1       1.653  10.571  18.914  0.00  0.00    +0.000 A 
ATOM     25  C   UNL     1       1.273  10.033  20.158  0.00  0.00    +0.000 A 
ATOM     26  C   UNL     1       1.297   8.650  20.395  0.00  0.00    +0.000 A 
BRANCH  21  30
ATOM     27  C   UNL     1       2.705   4.169  19.950  0.00  0.00    +0.000 C 
ATOM     28  C   UNL     1       2.969   5.629  19.686  0.00  0.00    +0.000 C 
ATOM     29  O   UNL     1       4.111   6.028  19.476  0.00  0.00    +0.000 OA
ATOM     30  N   UNL     1       1.816   6.399  19.706  0.00  0.00    +0.000 N 
ATOM     31  H   UNL     1       0.980   5.966  20.077  0.00  0.00    +0.000 HD
ENDBRANCH  21  30
ENDBRANCH   1  24
TORSDOF 3
ENDMDL
MODEL 3
REMARK VINA RESULT:      -7.1      3.881      5.135
REMARK  Name = 
REMARK  7 active torsions:
REMARK  status: ('A' for Active; 'I' for Inactive)
REMARK    1  A    between atoms: C_1  and  C_2
REMARK    2  A    between atoms: N_4  and  C_5
REMARK    3  A    between atoms: C_8  and  C_9
REMARK    4  A    between atoms: N_15  and  C_16
REMARK    5  A    between atoms: N_19  and  C_20
REMARK    6  A    between atoms: N_21  and  C_22
REMARK    7  A    between atoms: C_25  and  C_26
REMARK                            x       y       z     vdW  Elec       q    Type
REMARK                         _______ _______ _______ _____ _____    ______ ____
ROOT
ATOM      1  C   UNL     1      -0.858  10.936  20.050  0.00  0.00    +0.000 A 
ATOM      2  N   UNL     1      -0.833  11.525  21.237  0.00  0.00    +0.000 NA
ATOM      3  C   UNL     1      -1.986  12.218  21.336  0.00  0.00    +0.000 A 
ATOM      4  C   UNL     1      -2.746  12.129  20.207  0.00  0.00    +0.000 A 
ATOM      5  C   UNL     1      -3.948  12.896  20.074  0.00  0.00    +0.000 A 
ATOM      6  O   UNL     1      -4.573  13.031  19.027  0.00  0.00    +0.000 OA
ATOM      7  N   UNL     1      -4.341  13.536  21.258  0.00  0.00    +0.000 N 
ATOM      8  C   UNL     1      -5.599  14.261  21.267  0.00  0.00    +0.000 C 
ATOM      9  C   UNL     1      -3.561  13.647  22.422  0.00  0.00    +0.000 A 
ATOM     10  O   UNL     1      -3.938  14.328  23.379  0.00  0.00    +0.000 OA
ATOM     11  N   UNL     1      -2.347  12.971  22.429  0.00  0.00    +0.000 N 
ATOM     12  C   UNL     1      -1.474  13.047  23.588  0.00  0.00    +0.000 C 
ATOM     13  N   UNL     1      -2.043  11.287  19.345  0.00  0.00    +0.000 N 
ENDROOT
BRANCH  13  14
ATOM     14  C   UNL     1      -2.444  10.861  18.037  0.00  0.00    +0.000 A 
ATOM     15  C   UNL     1      -3.125   9.651  17.846  0.00  0.00    +0.000 A 
ATOM     16  C   UNL     1      -3.622   9.299  16.584  0.00  0.00    +0.000 A 
ATOM     17  C   UNL     1      -3.388  10.112  15.475  0.00  0.00    +0.000 A 
ATOM     18  C   UNL     1      -3.894   9.738  14.114  0.00  0.00    +0.000 C 
ATOM     19  C   UNL     1      -2.649  11.285  15.648  0.00  0.00    +0.000 A 
ATOM     20  C   UNL     1      -2.208  11.670  16.919  0.00  0.00    +0.000 A 
ENDBRANCH  13  14
BRANCH   1  24
ATOM     21  C   UNL     1       2.218   8.241  18.678  0.00  0.00    +0.000 A 
ATOM     22  C   UNL     1       1.760   8.170  19.994  0.00  0.00    +0.000 A 
ATOM     23  C   UNL     1       0.814   9.083  20.478  0.00  0.00    +0.000 A 
ATOM     24  C   UNL     1       0.229  10.031  19.635  0.00  0.00    +0.000 A 
ATOM     25  C   UNL     1       0.749  10.142  18.331  0.00  0.00    +0.000 A 
ATOM     26  C   UNL     1       1.742   9.269  17.861  0.00  0.00    +0.000 A 
BRANCH  21  30
ATOM     27  C   UNL     1       4.192   5.273  17.442  0.00  0.00    +0.000 C 
ATOM     28  C   UNL     1       2.953   5.984  17.920  0.00  0.00    +0.000 C 
ATOM     29  O   UNL     1       1.904   5.368  18.084  0.00  0.00    +0.000 OA
ATOM     30  N   UNL     1       3.157   7.338  18.138  0.00  0.00    +0.000 N 
ATOM     31  H   UNL     1       4.016   7.737  17.782  0.00  0.00    +0.000 HD
ENDBRANCH  21  30
ENDBRANCH   1  24
TORSDOF 3
ENDMDL
MODEL 4
REMARK VINA RESULT:      -7.0      3.375      5.911
REMARK  Name = 
REMARK  7 active torsions:
REMARK  status: ('A' for Active; 'I' for Inactive)
REMARK    1  A    between atoms: C_1  and  C_2
REMARK    2  A    between atoms: N_4  and  C_5
REMARK    3  A    between atoms: C_8  and  C_9
REMARK    4  A    between atoms: N_15  and  C_16
REMARK    5  A    between atoms: N_19  and  C_20
REMARK    6  A    between atoms: N_21  and  C_22
REMARK    7  A    between atoms: C_25  and  C_26
REMARK                            x       y       z     vdW  Elec       q    Type
REMARK                         _______ _______ _______ _____ _____    ______ ____
ROOT
ATOM      1  C   UNL     1       0.272  13.923  21.780  0.00  0.00    +0.000 A 
ATOM      2  N   UNL     1       1.163  14.726  22.345  0.00  0.00    +0.000 NA
ATOM      3  C   UNL     1       2.195  14.808  21.481  0.00  0.00    +0.000 A 
ATOM      4  C   UNL     1       2.012  14.030  20.376  0.00  0.00    +0.000 A 
ATOM      5  C   UNL     1       3.053  13.889  19.402  0.00  0.00    +0.000 A 
ATOM      6  O   UNL     1       3.050  13.060  18.498  0.00  0.00    +0.000 OA
ATOM      7  N   UNL     1       4.128  14.768  19.597  0.00  0.00    +0.000 N 
ATOM      8  C   UNL     1       5.195  14.783  18.612  0.00  0.00    +0.000 C 
ATOM      9  C   UNL     1       4.334  15.564  20.737  0.00  0.00    +0.000 A 
ATOM     10  O   UNL     1       5.368  16.223  20.876  0.00  0.00    +0.000 OA
ATOM     11  N   UNL     1       3.329  15.553  21.698  0.00  0.00    +0.000 N 
ATOM     12  C   UNL     1       3.472  16.336  22.913  0.00  0.00    +0.000 C 
ATOM     13  N   UNL     1       0.756  13.442  20.532  0.00  0.00    +0.000 N 
ENDROOT
BRANCH  13  14
ATOM     14  C   UNL     1       0.098  12.556  19.618  0.00  0.00    +0.000 A 
ATOM     15  C   UNL     1       0.338  11.176  19.646  0.00  0.00    +0.000 A 
ATOM     16  C   UNL     1      -0.399  10.302  18.835  0.00  0.00    +0.000 A 
ATOM     17  C   UNL     1      -1.338  10.795  17.929  0.00  0.00    +0.000 A 
ATOM     18  C   UNL     1      -2.118   9.876  17.038  0.00  0.00    +0.000 C 
ATOM     19  C   UNL     1      -1.532  12.177  17.849  0.00  0.00    +0.000 A 
ATOM     20  C   UNL     1      -0.843  13.045  18.703  0.00  0.00    +0.000 A 
ENDBRANCH  13  14
BRANCH   1  24
ATOM     21  C   UNL     1      -3.569  13.038  23.533  0.00  0.00    +0.000 A 
ATOM     22  C   UNL     1      -3.173  14.362  23.347  0.00  0.00    +0.000 A 
ATOM     23  C   UNL     1      -1.900  14.670  22.847  0.00  0.00    +0.000 A 
ATOM     24  C   UNL     1      -1.027  13.664  22.429  0.00  0.00    +0.000 A 
ATOM     25  C   UNL     1      -1.406  12.332  22.686  0.00  0.00    +0.000 A 
ATOM     26  C   UNL     1      -2.655  12.022  23.246  0.00  0.00    +0.000 A 
BRANCH  21  30
ATOM     27  C   UNL     1      -7.239  12.456  24.187  0.00  0.00    +0.000 C 
ATOM     28  C   UNL     1      -6.045  12.834  23.348  0.00  0.00    +0.000 C 
ATOM     29  O   UNL     1      -6.194  13.239  22.200  0.00  0.00    +0.000 OA
ATOM     30  N   UNL     1      -4.843  12.675  24.019  0.00  0.00    +0.000 N 
ATOM     31  H   UNL     1      -4.865  12.157  24.888  0.00  0.00    +0.000 HD
ENDBRANCH  21  30
ENDBRANCH   1  24
TORSDOF 3
ENDMDL
MODEL 5
REMARK VINA RESULT:      -7.0      3.696      7.166
REMARK  Name = 
REMARK  7 active torsions:
REMARK  status: ('A' for Active; 'I' for Inactive)
REMARK    1  A    between atoms: C_1  and  C_2
REMARK    2  A    between atoms: N_4  and  C_5
REMARK    3  A    between atoms: C_8  and  C_9
REMARK    4  A    between atoms: N_15  and  C_16
REMARK    5  A    between atoms: N_19  and  C_20
REMARK    6  A    between atoms: N_21  and  C_22
REMARK    7  A    between atoms: C_25  and  C_26
REMARK                            x       y       z     vdW  Elec       q    Type
REMARK                         _______ _______ _______ _____ _____    ______ ____
ROOT
ATOM      1  C   UNL     1      -2.259  13.114  20.544  0.00  0.00    +0.000 A 
ATOM      2  N   UNL     1      -2.665  13.635  21.693  0.00  0.00    +0.000 NA
ATOM      3  C   UNL     1      -3.948  13.249  21.847  0.00  0.00    +0.000 A 
ATOM      4  C   UNL     1      -4.403  12.519  20.789  0.00  0.00    +0.000 A 
ATOM      5  C   UNL     1      -5.778  12.124  20.712  0.00  0.00    +0.000 A 
ATOM      6  O   UNL     1      -6.309  11.652  19.712  0.00  0.00    +0.000 OA
ATOM      7  N   UNL     1      -6.500  12.369  21.888  0.00  0.00    +0.000 N 
ATOM      8  C   UNL     1      -7.878  11.916  21.959  0.00  0.00    +0.000 C 
ATOM      9  C   UNL     1      -6.047  13.130  22.979  0.00  0.00    +0.000 A 
ATOM     10  O   UNL     1      -6.793  13.392  23.927  0.00  0.00    +0.000 OA
ATOM     11  N   UNL     1      -4.734  13.583  22.925  0.00  0.00    +0.000 N 
ATOM     12  C   UNL     1      -4.193  14.390  24.005  0.00  0.00    +0.000 C 
ATOM     13  N   UNL     1      -3.319  12.402  19.918  0.00  0.00    +0.000 N 
ENDROOT
BRANCH  13  14
ATOM     14  C   UNL     1      -3.287  11.699  18.670  0.00  0.00    +0.000 A 
ATOM     15  C   UNL     1      -4.220  11.970  17.660  0.00  0.00    +0.000 A 
ATOM     16  C   UNL     1      -4.109  11.369  16.399  0.00  0.00    +0.000 A 
ATOM     17  C   UNL     1      -3.107  10.433  16.144  0.00  0.00    +0.000 A 
ATOM     18  C   UNL     1      -2.988   9.765  14.807  0.00  0.00    +0.000 C 
ATOM     19  C   UNL     1      -2.215  10.108  17.170  0.00  0.00    +0.000 A 
ATOM     20  C   UNL     1      -2.287  10.754  18.409  0.00  0.00    +0.000 A 
ENDBRANCH  13  14
BRANCH   1  24
ATOM     21  C   UNL     1       1.752  13.609  19.036  0.00  0.00    +0.000 A 
ATOM     22  C   UNL     1       1.470  12.601  19.957  0.00  0.00    +0.000 A 
ATOM     23  C   UNL     1       0.190  12.470  20.513  0.00  0.00    +0.000 A 
ATOM     24  C   UNL     1      -0.865  13.282  20.092  0.00  0.00    +0.000 A 
ATOM     25  C   UNL     1      -0.556  14.341  19.218  0.00  0.00    +0.000 A 
ATOM     26  C   UNL     1       0.740  14.514  18.707  0.00  0.00    +0.000 A 
BRANCH  21  30
ATOM     27  C   UNL     1       5.203  14.669  17.938  0.00  0.00    +0.000 C 
ATOM     28  C   UNL     1       4.012  14.643  18.862  0.00  0.00    +0.000 C 
ATOM     29  O   UNL     1       3.988  15.347  19.866  0.00  0.00    +0.000 OA
ATOM     30  N   UNL     1       3.018  13.775  18.437  0.00  0.00    +0.000 N 
ATOM     31  H   UNL     1       3.258  13.126  17.698  0.00  0.00    +0.000 HD
ENDBRANCH  21  30
ENDBRANCH   1  24
TORSDOF 3
ENDMDL
MODEL 6
REMARK VINA RESULT:      -6.9      0.953      1.080
REMARK  Name = 
REMARK  7 active torsions:
REMARK  status: ('A' for Active; 'I' for Inactive)
REMARK    1  A    between atoms: C_1  and  C_2
REMARK    2  A    between atoms: N_4  and  C_5
REMARK    3  A    between atoms: C_8  and  C_9
REMARK    4  A    between atoms: N_15  and  C_16
REMARK    5  A    between atoms: N_19  and  C_20
REMARK    6  A    between atoms: N_21  and  C_22
REMARK    7  A    between atoms: C_25  and  C_26
REMARK                            x       y       z     vdW  Elec       q    Type
REMARK                         _______ _______ _______ _____ _____    ______ ____
ROOT
ATOM      1  C   UNL     1       0.965  12.555  19.729  0.00  0.00    +0.000 A 
ATOM      2  N   UNL     1       1.834  13.166  18.936  0.00  0.00    +0.000 NA
ATOM      3  C   UNL     1       1.544  14.481  19.005  0.00  0.00    +0.000 A 
ATOM      4  C   UNL     1       0.465  14.736  19.799  0.00  0.00    +0.000 A 
ATOM      5  C   UNL     1      -0.072  16.060  19.899  0.00  0.00    +0.000 A 
ATOM      6  O   UNL     1      -1.148  16.336  20.419  0.00  0.00    +0.000 OA
ATOM      7  N   UNL     1       0.732  17.039  19.299  0.00  0.00    +0.000 N 
ATOM      8  C   UNL     1       0.337  18.431  19.426  0.00  0.00    +0.000 C 
ATOM      9  C   UNL     1       1.838  16.789  18.469  0.00  0.00    +0.000 A 
ATOM     10  O   UNL     1       2.420  17.710  17.887  0.00  0.00    +0.000 OA
ATOM     11  N   UNL     1       2.224  15.462  18.323  0.00  0.00    +0.000 N 
ATOM     12  C   UNL     1       3.348  15.117  17.469  0.00  0.00    +0.000 C 
ATOM     13  N   UNL     1       0.064  13.496  20.300  0.00  0.00    +0.000 N 
ENDROOT
BRANCH  13  14
ATOM     14  C   UNL     1      -1.016  13.239  21.206  0.00  0.00    +0.000 A 
ATOM     15  C   UNL     1      -0.867  13.439  22.585  0.00  0.00    +0.000 A 
ATOM     16  C   UNL     1      -1.960  13.305  23.452  0.00  0.00    +0.000 A 
ATOM     17  C   UNL     1      -3.205  12.899  22.969  0.00  0.00    +0.000 A 
ATOM     18  C   UNL     1      -4.378  12.729  23.886  0.00  0.00    +0.000 C 
ATOM     19  C   UNL     1      -3.340  12.631  21.604  0.00  0.00    +0.000 A 
ATOM     20  C   UNL     1      -2.265  12.827  20.729  0.00  0.00    +0.000 A 
ENDBRANCH  13  14
BRANCH   1  24
ATOM     21  C   UNL     1       1.324   8.325  20.497  0.00  0.00    +0.000 A 
ATOM     22  C   UNL     1       1.332   8.802  19.187  0.00  0.00    +0.000 A 
ATOM     23  C   UNL     1       1.144  10.164  18.914  0.00  0.00    +0.000 A 
ATOM     24  C   UNL     1       1.039  11.098  19.947  0.00  0.00    +0.000 A 
ATOM     25  C   UNL     1       0.959  10.601  21.262  0.00  0.00    +0.000 A 
ATOM     26  C   UNL     1       1.084   9.230  21.534  0.00  0.00    +0.000 A 
BRANCH  21  30
ATOM     27  C   UNL     1       2.232   4.667  20.671  0.00  0.00    +0.000 C 
ATOM     28  C   UNL     1       2.326   6.073  20.136  0.00  0.00    +0.000 C 
ATOM     29  O   UNL     1       3.054   6.329  19.182  0.00  0.00    +0.000 OA
ATOM     30  N   UNL     1       1.522   6.968  20.825  0.00  0.00    +0.000 N 
ATOM     31  H   UNL     1       1.126   6.651  21.701  0.00  0.00    +0.000 HD
ENDBRANCH  21  30
ENDBRANCH   1  24
TORSDOF 3
ENDMDL
MODEL 7
REMARK VINA RESULT:      -6.8      0.974      1.431
REMARK  Name = 
REMARK  7 active torsions:
REMARK  status: ('A' for Active; 'I' for Inactive)
REMARK    1  A    between atoms: C_1  and  C_2
REMARK    2  A    between atoms: N_4  and  C_5
REMARK    3  A    between atoms: C_8  and  C_9
REMARK    4  A    between atoms: N_15  and  C_16
REMARK    5  A    between atoms: N_19  and  C_20
REMARK    6  A    between atoms: N_21  and  C_22
REMARK    7  A    between atoms: C_25  and  C_26
REMARK                            x       y       z     vdW  Elec       q    Type
REMARK                         _______ _______ _______ _____ _____    ______ ____
ROOT
ATOM      1  C   UNL     1       1.315  12.296  19.700  0.00  0.00    +0.000 A 
ATOM      2  N   UNL     1       2.439  12.991  19.810  0.00  0.00    +0.000 NA
ATOM      3  C   UNL     1       2.100  14.283  19.621  0.00  0.00    +0.000 A 
ATOM      4  C   UNL     1       0.774  14.438  19.341  0.00  0.00    +0.000 A 
ATOM      5  C   UNL     1       0.249  15.723  18.988  0.00  0.00    +0.000 A 
ATOM      6  O   UNL     1      -0.873  15.912  18.527  0.00  0.00    +0.000 OA
ATOM      7  N   UNL     1       1.158  16.773  19.174  0.00  0.00    +0.000 N 
ATOM      8  C   UNL     1       0.701  18.132  18.944  0.00  0.00    +0.000 C 
ATOM      9  C   UNL     1       2.528  16.625  19.449  0.00  0.00    +0.000 A 
ATOM     10  O   UNL     1       3.281  17.603  19.483  0.00  0.00    +0.000 OA
ATOM     11  N   UNL     1       2.989  15.331  19.660  0.00  0.00    +0.000 N 
ATOM     12  C   UNL     1       4.395  15.090  19.935  0.00  0.00    +0.000 C 
ATOM     13  N   UNL     1       0.225  13.157  19.393  0.00  0.00    +0.000 N 
ENDROOT
BRANCH  13  14
ATOM     14  C   UNL     1      -1.148  12.797  19.195  0.00  0.00    +0.000 A 
ATOM     15  C   UNL     1      -1.562  12.131  18.034  0.00  0.00    +0.000 A 
ATOM     16  C   UNL     1      -2.880  11.673  17.901  0.00  0.00    +0.000 A 
ATOM     17  C   UNL     1      -3.827  11.933  18.892  0.00  0.00    +0.000 A 
ATOM     18  C   UNL     1      -5.246  11.470  18.754  0.00  0.00    +0.000 C 
ATOM     19  C   UNL     1      -3.435  12.658  20.020  0.00  0.00    +0.000 A 
ATOM     20  C   UNL     1      -2.104  13.060  20.184  0.00  0.00    +0.000 A 
ENDBRANCH  13  14
BRANCH   1  24
ATOM     21  C   UNL     1       1.419   8.057  20.494  0.00  0.00    +0.000 A 
ATOM     22  C   UNL     1       1.600   8.531  19.195  0.00  0.00    +0.000 A 
ATOM     23  C   UNL     1       1.498   9.898  18.905  0.00  0.00    +0.000 A 
ATOM     24  C   UNL     1       1.307  10.838  19.920  0.00  0.00    +0.000 A 
ATOM     25  C   UNL     1       1.054  10.347  21.216  0.00  0.00    +0.000 A 
ATOM     26  C   UNL     1       1.093   8.973  21.498  0.00  0.00    +0.000 A 
BRANCH  21  30
ATOM     27  C   UNL     1       2.215   4.382  20.807  0.00  0.00    +0.000 C 
ATOM     28  C   UNL     1       2.438   5.791  20.317  0.00  0.00    +0.000 C 
ATOM     29  O   UNL     1       3.348   6.042  19.534  0.00  0.00    +0.000 OA
ATOM     30  N   UNL     1       1.525   6.694  20.840  0.00  0.00    +0.000 N 
ATOM     31  H   UNL     1       0.955   6.377  21.614  0.00  0.00    +0.000 HD
ENDBRANCH  21  30
ENDBRANCH   1  24
TORSDOF 3
ENDMDL
MODEL 8
REMARK VINA RESULT:      -6.8      2.481      5.135
REMARK  Name = 
REMARK  7 active torsions:
REMARK  status: ('A' for Active; 'I' for Inactive)
REMARK    1  A    between atoms: C_1  and  C_2
REMARK    2  A    between atoms: N_4  and  C_5
REMARK    3  A    between atoms: C_8  and  C_9
REMARK    4  A    between atoms: N_15  and  C_16
REMARK    5  A    between atoms: N_19  and  C_20
REMARK    6  A    between atoms: N_21  and  C_22
REMARK    7  A    between atoms: C_25  and  C_26
REMARK                            x       y       z     vdW  Elec       q    Type
REMARK                         _______ _______ _______ _____ _____    ______ ____
ROOT
ATOM      1  C   UNL     1      -0.101  11.587  21.404  0.00  0.00    +0.000 A 
ATOM      2  N   UNL     1      -1.170  11.564  22.188  0.00  0.00    +0.000 NA
ATOM      3  C   UNL     1      -1.526  12.851  22.375  0.00  0.00    +0.000 A 
ATOM      4  C   UNL     1      -0.675  13.722  21.760  0.00  0.00    +0.000 A 
ATOM      5  C   UNL     1      -0.817  15.135  21.946  0.00  0.00    +0.000 A 
ATOM      6  O   UNL     1       0.017  15.967  21.603  0.00  0.00    +0.000 OA
ATOM      7  N   UNL     1      -1.996  15.500  22.611  0.00  0.00    +0.000 N 
ATOM      8  C   UNL     1      -2.293  16.912  22.765  0.00  0.00    +0.000 C 
ATOM      9  C   UNL     1      -2.873  14.613  23.259  0.00  0.00    +0.000 A 
ATOM     10  O   UNL     1      -3.828  15.031  23.920  0.00  0.00    +0.000 OA
ATOM     11  N   UNL     1      -2.599  13.257  23.133  0.00  0.00    +0.000 N 
ATOM     12  C   UNL     1      -3.448  12.275  23.787  0.00  0.00    +0.000 C 
ATOM     13  N   UNL     1       0.267  12.929  21.105  0.00  0.00    +0.000 N 
ENDROOT
BRANCH  13  14
ATOM     14  C   UNL     1       1.360  13.378  20.293  0.00  0.00    +0.000 A 
ATOM     15  C   UNL     1       1.227  13.504  18.904  0.00  0.00    +0.000 A 
ATOM     16  C   UNL     1       2.255  14.060  18.131  0.00  0.00    +0.000 A 
ATOM     17  C   UNL     1       3.464  14.433  18.720  0.00  0.00    +0.000 A 
ATOM     18  C   UNL     1       4.582  15.009  17.904  0.00  0.00    +0.000 C 
ATOM     19  C   UNL     1       3.626  14.245  20.095  0.00  0.00    +0.000 A 
ATOM     20  C   UNL     1       2.576  13.750  20.877  0.00  0.00    +0.000 A 
ENDBRANCH  13  14
BRANCH   1  24
ATOM     21  C   UNL     1       1.848   7.943  20.171  0.00  0.00    +0.000 A 
ATOM     22  C   UNL     1       1.486   8.898  19.222  0.00  0.00    +0.000 A 
ATOM     23  C   UNL     1       0.788  10.055  19.594  0.00  0.00    +0.000 A 
ATOM     24  C   UNL     1       0.517  10.333  20.936  0.00  0.00    +0.000 A 
ATOM     25  C   UNL     1       0.821   9.331  21.877  0.00  0.00    +0.000 A 
ATOM     26  C   UNL     1       1.465   8.143  21.499  0.00  0.00    +0.000 A 
BRANCH  21  30
ATOM     27  C   UNL     1       3.223   4.450  19.784  0.00  0.00    +0.000 C 
ATOM     28  C   UNL     1       2.183   5.474  20.162  0.00  0.00    +0.000 C 
ATOM     29  O   UNL     1       1.132   5.128  20.692  0.00  0.00    +0.000 OA
ATOM     30  N   UNL     1       2.564   6.770  19.850  0.00  0.00    +0.000 N 
ATOM     31  H   UNL     1       3.370   6.882  19.248  0.00  0.00    +0.000 HD
ENDBRANCH  21  30
ENDBRANCH   1  24
TORSDOF 3
ENDMDL
MODEL 9
REMARK VINA RESULT:      -6.8      3.619      6.738
REMARK  Name = 
REMARK  7 active torsions:
REMARK  status: ('A' for Active; 'I' for Inactive)
REMARK    1  A    between atoms: C_1  and  C_2
REMARK    2  A    between atoms: N_4  and  C_5
REMARK    3  A    between atoms: C_8  and  C_9
REMARK    4  A    between atoms: N_15  and  C_16
REMARK    5  A    between atoms: N_19  and  C_20
REMARK    6  A    between atoms: N_21  and  C_22
REMARK    7  A    between atoms: C_25  and  C_26
REMARK                            x       y       z     vdW  Elec       q    Type
REMARK                         _______ _______ _______ _____ _____    ______ ____
ROOT
ATOM      1  C   UNL     1      -1.575  12.712  19.210  0.00  0.00    +0.000 A 
ATOM      2  N   UNL     1      -2.271  12.007  18.330  0.00  0.00    +0.000 NA
ATOM      3  C   UNL     1      -3.529  11.942  18.812  0.00  0.00    +0.000 A 
ATOM      4  C   UNL     1      -3.656  12.556  20.023  0.00  0.00    +0.000 A 
ATOM      5  C   UNL     1      -4.886  12.486  20.752  0.00  0.00    +0.000 A 
ATOM      6  O   UNL     1      -5.020  12.828  21.923  0.00  0.00    +0.000 OA
ATOM      7  N   UNL     1      -5.945  11.936  20.016  0.00  0.00    +0.000 N 
ATOM      8  C   UNL     1      -7.265  11.908  20.621  0.00  0.00    +0.000 C 
ATOM      9  C   UNL     1      -5.825  11.289  18.774  0.00  0.00    +0.000 A 
ATOM     10  O   UNL     1      -6.794  10.731  18.250  0.00  0.00    +0.000 OA
ATOM     11  N   UNL     1      -4.567  11.294  18.184  0.00  0.00    +0.000 N 
ATOM     12  C   UNL     1      -4.355  10.633  16.908  0.00  0.00    +0.000 C 
ATOM     13  N   UNL     1      -2.396  13.082  20.312  0.00  0.00    +0.000 N 
ENDROOT
BRANCH  13  14
ATOM     14  C   UNL     1      -2.023  13.844  21.467  0.00  0.00    +0.000 A 
ATOM     15  C   UNL     1      -2.204  15.233  21.509  0.00  0.00    +0.000 A 
ATOM     16  C   UNL     1      -1.953  15.955  22.683  0.00  0.00    +0.000 A 
ATOM     17  C   UNL     1      -1.448  15.316  23.816  0.00  0.00    +0.000 A 
ATOM     18  C   UNL     1      -1.153  16.078  25.073  0.00  0.00    +0.000 C 
ATOM     19  C   UNL     1      -1.201  13.942  23.757  0.00  0.00    +0.000 A 
ATOM     20  C   UNL     1      -1.512  13.210  22.606  0.00  0.00    +0.000 A 
ENDBRANCH  13  14
BRANCH   1  24
ATOM     21  C   UNL     1       2.510  13.780  18.329  0.00  0.00    +0.000 A 
ATOM     22  C   UNL     1       2.167  12.446  18.548  0.00  0.00    +0.000 A 
ATOM     23  C   UNL     1       0.860  12.088  18.907  0.00  0.00    +0.000 A 
ATOM     24  C   UNL     1      -0.159  13.041  18.962  0.00  0.00    +0.000 A 
ATOM     25  C   UNL     1       0.210  14.391  18.811  0.00  0.00    +0.000 A 
ATOM     26  C   UNL     1       1.531  14.760  18.514  0.00  0.00    +0.000 A 
BRANCH  21  30
ATOM     27  C   UNL     1       6.011  15.164  18.068  0.00  0.00    +0.000 C 
ATOM     28  C   UNL     1       4.773  14.711  18.799  0.00  0.00    +0.000 C 
ATOM     29  O   UNL     1       4.692  14.825  20.018  0.00  0.00    +0.000 OA
ATOM     30  N   UNL     1       3.806  14.191  17.953  0.00  0.00    +0.000 N 
ATOM     31  H   UNL     1       4.087  13.988  17.002  0.00  0.00    +0.000 HD
ENDBRANCH  21  30
ENDBRANCH   1  24
TORSDOF 3
ENDMDL
