MODEL 1
REMARK VINA RESULT:      -8.3      0.000      0.000
REMARK  Name = 
REMARK  7 active torsions:
REMARK  status: ('A' for Active; 'I' for Inactive)
REMARK    1  A    between atoms: C_1  and  O_2
REMARK    2  A    between atoms: O_2  and  C_3
REMARK    3  A    between atoms: C_7  and  O_8
REMARK    4  A    between atoms: O_8  and  C_9
REMARK    5  A    between atoms: C_10  and  C_11
REMARK    6  A    between atoms: C_11  and  N_12
REMARK    7  A    between atoms: C_13  and  C_15
REMARK                            x       y       z     vdW  Elec       q    Type
REMARK                         _______ _______ _______ _____ _____    ______ ____
ROOT
ATOM      1  N   UNL     1       5.165   5.705  17.961  0.00  0.00    +0.000 NA
ATOM      2  C   UNL     1       6.122   4.915  17.603  0.00  0.00    +0.000 C 
ATOM      3  N   UNL     1       6.865   4.156  18.466  0.00  0.00    +0.000 N 
ATOM      4  H   UNL     1       6.852   4.466  19.431  0.00  0.00    +0.000 HD
ATOM      5  H   UNL     1       7.807   3.979  18.141  0.00  0.00    +0.000 HD
ENDROOT
BRANCH   2   6
ATOM      6  C   UNL     1       6.397   4.770  16.178  0.00  0.00    +0.000 A 
ATOM      7  C   UNL     1       5.764   3.847  15.364  0.00  0.00    +0.000 A 
ATOM      8  C   UNL     1       6.230   3.992  14.044  0.00  0.00    +0.000 A 
ATOM      9  C   UNL     1       5.899   3.343  12.842  0.00  0.00    +0.000 A 
ATOM     10  C   UNL     1       6.583   3.678  11.676  0.00  0.00    +0.000 A 
ATOM     11  C   UNL     1       7.588   4.641  11.708  0.00  0.00    +0.000 A 
ATOM     12  C   UNL     1       7.915   5.324  12.894  0.00  0.00    +0.000 A 
ATOM     13  C   UNL     1       7.201   4.991  14.059  0.00  0.00    +0.000 A 
ATOM     14  N   UNL     1       7.238   5.494  15.355  0.00  0.00    +0.000 N 
ATOM     15  H   UNL     1       7.808   6.274  15.658  0.00  0.00    +0.000 HD
ENDBRANCH   2   6
BRANCH   1  16
ATOM     16  C   UNL     1       4.672   5.620  19.357  0.00  0.00    +0.000 C 
BRANCH  16  22
ATOM     17  C   UNL     1       2.221   5.670  20.065  0.00  0.00    +0.000 A 
ATOM     18  C   UNL     1       1.056   5.029  20.514  0.00  0.00    +0.000 A 
ATOM     19  C   UNL     1       0.947   3.648  20.452  0.00  0.00    +0.000 A 
ATOM     20  C   UNL     1       2.013   2.904  19.968  0.00  0.00    +0.000 A 
ATOM     21  C   UNL     1       3.211   3.515  19.562  0.00  0.00    +0.000 A 
ATOM     22  C   UNL     1       3.346   4.918  19.611  0.00  0.00    +0.000 A 
BRANCH  17  24
ATOM     23  C   UNL     1       1.405   7.755  20.896  0.00  0.00    +0.000 C 
ATOM     24  O   UNL     1       2.338   7.044  20.080  0.00  0.00    +0.000 OA
ENDBRANCH  17  24
BRANCH  21  25
ATOM     25  O   UNL     1       4.191   2.594  19.306  0.00  0.00    +0.000 OA
ATOM     26  C   UNL     1       3.827   1.444  18.558  0.00  0.00    +0.000 C 
ENDBRANCH  21  25
ENDBRANCH  16  22
ENDBRANCH   1  16
TORSDOF 5
ENDMDL
MODEL 2
REMARK VINA RESULT:      -8.1      0.513      2.681
REMARK  Name = 
REMARK  7 active torsions:
REMARK  status: ('A' for Active; 'I' for Inactive)
REMARK    1  A    between atoms: C_1  and  O_2
REMARK    2  A    between atoms: O_2  and  C_3
REMARK    3  A    between atoms: C_7  and  O_8
REMARK    4  A    between atoms: O_8  and  C_9
REMARK    5  A    between atoms: C_10  and  C_11
REMARK    6  A    between atoms: C_11  and  N_12
REMARK    7  A    between atoms: C_13  and  C_15
REMARK                            x       y       z     vdW  Elec       q    Type
REMARK                         _______ _______ _______ _____ _____    ______ ____
ROOT
ATOM      1  N   UNL     1       5.191   5.284  18.068  0.00  0.00    +0.000 NA
ATOM      2  C   UNL     1       6.320   4.819  17.646  0.00  0.00    +0.000 C 
ATOM      3  N   UNL     1       7.330   4.381  18.458  0.00  0.00    +0.000 N 
ATOM      4  H   UNL     1       7.293   4.724  19.413  0.00  0.00    +0.000 HD
ATOM      5  H   UNL     1       8.252   4.493  18.054  0.00  0.00    +0.000 HD
ENDROOT
BRANCH   2   6
ATOM      6  C   UNL     1       6.516   4.690  16.207  0.00  0.00    +0.000 A 
ATOM      7  C   UNL     1       5.810   3.805  15.411  0.00  0.00    +0.000 A 
ATOM      8  C   UNL     1       6.213   3.957  14.071  0.00  0.00    +0.000 A 
ATOM      9  C   UNL     1       5.798   3.343  12.877  0.00  0.00    +0.000 A 
ATOM     10  C   UNL     1       6.434   3.674  11.683  0.00  0.00    +0.000 A 
ATOM     11  C   UNL     1       7.473   4.601  11.680  0.00  0.00    +0.000 A 
ATOM     12  C   UNL     1       7.884   5.251  12.858  0.00  0.00    +0.000 A 
ATOM     13  C   UNL     1       7.218   4.922  14.053  0.00  0.00    +0.000 A 
ATOM     14  N   UNL     1       7.340   5.400  15.353  0.00  0.00    +0.000 N 
ATOM     15  H   UNL     1       7.952   6.153  15.639  0.00  0.00    +0.000 HD
ENDBRANCH   2   6
BRANCH   1  16
ATOM     16  C   UNL     1       4.860   5.125  19.504  0.00  0.00    +0.000 C 
BRANCH  16  22
ATOM     17  C   UNL     1       3.147   3.249  19.751  0.00  0.00    +0.000 A 
ATOM     18  C   UNL     1       1.824   2.799  19.871  0.00  0.00    +0.000 A 
ATOM     19  C   UNL     1       0.806   3.687  20.186  0.00  0.00    +0.000 A 
ATOM     20  C   UNL     1       1.106   5.030  20.354  0.00  0.00    +0.000 A 
ATOM     21  C   UNL     1       2.413   5.518  20.187  0.00  0.00    +0.000 A 
ATOM     22  C   UNL     1       3.466   4.635  19.872  0.00  0.00    +0.000 A 
BRANCH  17  24
ATOM     23  C   UNL     1       3.908   1.338  18.538  0.00  0.00    +0.000 C 
ATOM     24  O   UNL     1       4.182   2.380  19.477  0.00  0.00    +0.000 OA
ENDBRANCH  17  24
BRANCH  21  25
ATOM     25  O   UNL     1       2.452   6.887  20.207  0.00  0.00    +0.000 OA
ATOM     26  C   UNL     1       2.262   7.564  18.974  0.00  0.00    +0.000 C 
ENDBRANCH  21  25
ENDBRANCH  16  22
ENDBRANCH   1  16
TORSDOF 5
ENDMDL
MODEL 3
REMARK VINA RESULT:      -7.7      0.575      1.216
REMARK  Name = 
REMARK  7 active torsions:
REMARK  status: ('A' for Active; 'I' for Inactive)
REMARK    1  A    between atoms: C_1  and  O_2
REMARK    2  A    between atoms: O_2  and  C_3
REMARK    3  A    between atoms: C_7  and  O_8
REMARK    4  A    between atoms: O_8  and  C_9
REMARK    5  A    between atoms: C_10  and  C_11
REMARK    6  A    between atoms: C_11  and  N_12
REMARK    7  A    between atoms: C_13  and  C_15
REMARK                            x       y       z     vdW  Elec       q    Type
REMARK                         _______ _______ _______ _____ _____    ______ ____
ROOT
ATOM      1  N   UNL     1       5.035   5.569  17.944  0.00  0.00    +0.000 NA
ATOM      2  C   UNL     1       5.997   4.790  17.576  0.00  0.00    +0.000 C 
ATOM      3  N   UNL     1       6.783   4.070  18.434  0.00  0.00    +0.000 N 
ATOM      4  H   UNL     1       6.795   4.407  19.391  0.00  0.00    +0.000 HD
ATOM      5  H   UNL     1       7.719   3.904  18.084  0.00  0.00    +0.000 HD
ENDROOT
BRANCH   2   6
ATOM      6  C   UNL     1       6.230   4.610  16.148  0.00  0.00    +0.000 A 
ATOM      7  C   UNL     1       7.120   5.372  15.412  0.00  0.00    +0.000 A 
ATOM      8  C   UNL     1       7.131   4.920  14.079  0.00  0.00    +0.000 A 
ATOM      9  C   UNL     1       7.866   5.314  12.947  0.00  0.00    +0.000 A 
ATOM     10  C   UNL     1       7.615   4.697  11.723  0.00  0.00    +0.000 A 
ATOM     11  C   UNL     1       6.641   3.706  11.627  0.00  0.00    +0.000 A 
ATOM     12  C   UNL     1       5.916   3.276  12.754  0.00  0.00    +0.000 A 
ATOM     13  C   UNL     1       6.195   3.892  13.986  0.00  0.00    +0.000 A 
ATOM     14  N   UNL     1       5.707   3.678  15.271  0.00  0.00    +0.000 N 
ATOM     15  H   UNL     1       5.053   2.949  15.529  0.00  0.00    +0.000 HD
ENDBRANCH   2   6
BRANCH   1  16
ATOM     16  C   UNL     1       4.589   5.513  19.356  0.00  0.00    +0.000 C 
BRANCH  16  22
ATOM     17  C   UNL     1       2.155   5.547  20.121  0.00  0.00    +0.000 A 
ATOM     18  C   UNL     1       1.013   4.904  20.624  0.00  0.00    +0.000 A 
ATOM     19  C   UNL     1       0.930   3.520  20.622  0.00  0.00    +0.000 A 
ATOM     20  C   UNL     1       1.999   2.776  20.144  0.00  0.00    +0.000 A 
ATOM     21  C   UNL     1       3.175   3.392  19.684  0.00  0.00    +0.000 A 
ATOM     22  C   UNL     1       3.283   4.798  19.671  0.00  0.00    +0.000 A 
BRANCH  17  24
ATOM     23  C   UNL     1       1.356   7.648  20.927  0.00  0.00    +0.000 C 
ATOM     24  O   UNL     1       2.246   6.922  20.076  0.00  0.00    +0.000 OA
ENDBRANCH  17  24
BRANCH  21  25
ATOM     25  O   UNL     1       4.166   2.479  19.442  0.00  0.00    +0.000 OA
ATOM     26  C   UNL     1       3.878   1.425  18.536  0.00  0.00    +0.000 C 
ENDBRANCH  21  25
ENDBRANCH  16  22
ENDBRANCH   1  16
TORSDOF 5
ENDMDL
MODEL 4
REMARK VINA RESULT:      -7.5      0.817      2.973
REMARK  Name = 
REMARK  7 active torsions:
REMARK  status: ('A' for Active; 'I' for Inactive)
REMARK    1  A    between atoms: C_1  and  O_2
REMARK    2  A    between atoms: O_2  and  C_3
REMARK    3  A    between atoms: C_7  and  O_8
REMARK    4  A    between atoms: O_8  and  C_9
REMARK    5  A    between atoms: C_10  and  C_11
REMARK    6  A    between atoms: C_11  and  N_12
REMARK    7  A    between atoms: C_13  and  C_15
REMARK                            x       y       z     vdW  Elec       q    Type
REMARK                         _______ _______ _______ _____ _____    ______ ____
ROOT
ATOM      1  N   UNL     1       5.062   5.531  18.054  0.00  0.00    +0.000 NA
ATOM      2  C   UNL     1       6.075   4.842  17.646  0.00  0.00    +0.000 C 
ATOM      3  N   UNL     1       6.992   4.248  18.471  0.00  0.00    +0.000 N 
ATOM      4  H   UNL     1       7.032   4.626  19.411  0.00  0.00    +0.000 HD
ATOM      5  H   UNL     1       7.913   4.166  18.059  0.00  0.00    +0.000 HD
ENDROOT
BRANCH   2   6
ATOM      6  C   UNL     1       6.227   4.625  16.212  0.00  0.00    +0.000 A 
ATOM      7  C   UNL     1       7.140   5.302  15.424  0.00  0.00    +0.000 A 
ATOM      8  C   UNL     1       7.055   4.833  14.100  0.00  0.00    +0.000 A 
ATOM      9  C   UNL     1       7.766   5.151  12.930  0.00  0.00    +0.000 A 
ATOM     10  C   UNL     1       7.411   4.540  11.730  0.00  0.00    +0.000 A 
ATOM     11  C   UNL     1       6.358   3.629  11.694  0.00  0.00    +0.000 A 
ATOM     12  C   UNL     1       5.653   3.274  12.859  0.00  0.00    +0.000 A 
ATOM     13  C   UNL     1       6.036   3.883  14.067  0.00  0.00    +0.000 A 
ATOM     14  N   UNL     1       5.592   3.726  15.376  0.00  0.00    +0.000 N 
ATOM     15  H   UNL     1       4.895   3.056  15.675  0.00  0.00    +0.000 HD
ENDBRANCH   2   6
BRANCH   1  16
ATOM     16  C   UNL     1       4.722   5.491  19.497  0.00  0.00    +0.000 C 
BRANCH  16  22
ATOM     17  C   UNL     1       3.439   3.337  19.969  0.00  0.00    +0.000 A 
ATOM     18  C   UNL     1       2.238   2.632  20.140  0.00  0.00    +0.000 A 
ATOM     19  C   UNL     1       1.047   3.313  20.341  0.00  0.00    +0.000 A 
ATOM     20  C   UNL     1       1.051   4.700  20.343  0.00  0.00    +0.000 A 
ATOM     21  C   UNL     1       2.229   5.432  20.121  0.00  0.00    +0.000 A 
ATOM     22  C   UNL     1       3.454   4.763  19.919  0.00  0.00    +0.000 A 
BRANCH  17  24
ATOM     23  C   UNL     1       4.923   1.627  20.728  0.00  0.00    +0.000 C 
ATOM     24  O   UNL     1       4.642   2.682  19.806  0.00  0.00    +0.000 OA
ENDBRANCH  17  24
BRANCH  21  25
ATOM     25  O   UNL     1       1.977   6.770  19.973  0.00  0.00    +0.000 OA
ATOM     26  C   UNL     1       1.342   7.439  21.051  0.00  0.00    +0.000 C 
ENDBRANCH  21  25
ENDBRANCH  16  22
ENDBRANCH   1  16
TORSDOF 5
ENDMDL
MODEL 5
REMARK VINA RESULT:      -6.9      3.695      8.121
REMARK  Name = 
REMARK  7 active torsions:
REMARK  status: ('A' for Active; 'I' for Inactive)
REMARK    1  A    between atoms: C_1  and  O_2
REMARK    2  A    between atoms: O_2  and  C_3
REMARK    3  A    between atoms: C_7  and  O_8
REMARK    4  A    between atoms: O_8  and  C_9
REMARK    5  A    between atoms: C_10  and  C_11
REMARK    6  A    between atoms: C_11  and  N_12
REMARK    7  A    between atoms: C_13  and  C_15
REMARK                            x       y       z     vdW  Elec       q    Type
REMARK                         _______ _______ _______ _____ _____    ______ ____
ROOT
ATOM      1  N   UNL     1       3.596   7.712  17.588  0.00  0.00    +0.000 NA
ATOM      2  C   UNL     1       2.613   7.210  18.259  0.00  0.00    +0.000 C 
ATOM      3  N   UNL     1       2.241   5.894  18.221  0.00  0.00    +0.000 N 
ATOM      4  H   UNL     1       2.561   5.380  17.406  0.00  0.00    +0.000 HD
ATOM      5  H   UNL     1       1.253   5.748  18.392  0.00  0.00    +0.000 HD
ENDROOT
BRANCH   2   6
ATOM      6  C   UNL     1       1.885   8.085  19.170  0.00  0.00    +0.000 A 
ATOM      7  C   UNL     1       1.658   7.790  20.502  0.00  0.00    +0.000 A 
ATOM      8  C   UNL     1       0.961   8.853  21.105  0.00  0.00    +0.000 A 
ATOM      9  C   UNL     1       0.520   9.077  22.421  0.00  0.00    +0.000 A 
ATOM     10  C   UNL     1      -0.206  10.231  22.709  0.00  0.00    +0.000 A 
ATOM     11  C   UNL     1      -0.493  11.146  21.700  0.00  0.00    +0.000 A 
ATOM     12  C   UNL     1      -0.035  10.956  20.383  0.00  0.00    +0.000 A 
ATOM     13  C   UNL     1       0.715   9.798  20.111  0.00  0.00    +0.000 A 
ATOM     14  N   UNL     1       1.342   9.339  18.958  0.00  0.00    +0.000 N 
ATOM     15  H   UNL     1       1.389   9.844  18.082  0.00  0.00    +0.000 HD
ENDBRANCH   2   6
BRANCH   1  16
ATOM     16  C   UNL     1       4.532   6.782  16.912  0.00  0.00    +0.000 C 
BRANCH  16  22
ATOM     17  C   UNL     1       5.749   5.167  18.468  0.00  0.00    +0.000 A 
ATOM     18  C   UNL     1       6.805   4.857  19.339  0.00  0.00    +0.000 A 
ATOM     19  C   UNL     1       7.939   5.654  19.378  0.00  0.00    +0.000 A 
ATOM     20  C   UNL     1       8.008   6.777  18.566  0.00  0.00    +0.000 A 
ATOM     21  C   UNL     1       6.944   7.141  17.724  0.00  0.00    +0.000 A 
ATOM     22  C   UNL     1       5.781   6.345  17.663  0.00  0.00    +0.000 A 
BRANCH  17  24
ATOM     23  C   UNL     1       4.553   3.275  19.300  0.00  0.00    +0.000 C 
ATOM     24  O   UNL     1       4.628   4.369  18.383  0.00  0.00    +0.000 OA
ENDBRANCH  17  24
BRANCH  21  25
ATOM     25  O   UNL     1       7.138   8.375  17.163  0.00  0.00    +0.000 OA
ATOM     26  C   UNL     1       8.095   9.227  17.773  0.00  0.00    +0.000 C 
ENDBRANCH  21  25
ENDBRANCH  16  22
ENDBRANCH   1  16
TORSDOF 5
ENDMDL
MODEL 6
REMARK VINA RESULT:      -6.9      1.039      1.061
REMARK  Name = 
REMARK  7 active torsions:
REMARK  status: ('A' for Active; 'I' for Inactive)
REMARK    1  A    between atoms: C_1  and  O_2
REMARK    2  A    between atoms: O_2  and  C_3
REMARK    3  A    between atoms: C_7  and  O_8
REMARK    4  A    between atoms: O_8  and  C_9
REMARK    5  A    between atoms: C_10  and  C_11
REMARK    6  A    between atoms: C_11  and  N_12
REMARK    7  A    between atoms: C_13  and  C_15
REMARK                            x       y       z     vdW  Elec       q    Type
REMARK                         _______ _______ _______ _____ _____    ______ ____
ROOT
ATOM      1  N   UNL     1       4.846   5.075  17.873  0.00  0.00    +0.000 NA
ATOM      2  C   UNL     1       5.964   5.485  17.375  0.00  0.00    +0.000 C 
ATOM      3  N   UNL     1       6.919   6.171  18.074  0.00  0.00    +0.000 N 
ATOM      4  H   UNL     1       6.589   6.628  18.917  0.00  0.00    +0.000 HD
ATOM      5  H   UNL     1       7.469   6.798  17.499  0.00  0.00    +0.000 HD
ENDROOT
BRANCH   2   6
ATOM      6  C   UNL     1       6.267   5.142  15.990  0.00  0.00    +0.000 A 
ATOM      7  C   UNL     1       5.551   4.215  15.253  0.00  0.00    +0.000 A 
ATOM      8  C   UNL     1       6.076   4.148  13.949  0.00  0.00    +0.000 A 
ATOM      9  C   UNL     1       5.707   3.409  12.812  0.00  0.00    +0.000 A 
ATOM     10  C   UNL     1       6.467   3.521  11.650  0.00  0.00    +0.000 A 
ATOM     11  C   UNL     1       7.584   4.353  11.624  0.00  0.00    +0.000 A 
ATOM     12  C   UNL     1       7.953   5.124  12.741  0.00  0.00    +0.000 A 
ATOM     13  C   UNL     1       7.163   5.018  13.900  0.00  0.00    +0.000 A 
ATOM     14  N   UNL     1       7.220   5.659  15.132  0.00  0.00    +0.000 N 
ATOM     15  H   UNL     1       7.872   6.395  15.374  0.00  0.00    +0.000 HD
ENDBRANCH   2   6
BRANCH   1  16
ATOM     16  C   UNL     1       4.669   5.137  19.344  0.00  0.00    +0.000 C 
BRANCH  16  22
ATOM     17  C   UNL     1       2.318   4.913  20.310  0.00  0.00    +0.000 A 
ATOM     18  C   UNL     1       1.364   4.232  21.081  0.00  0.00    +0.000 A 
ATOM     19  C   UNL     1       1.581   2.919  21.468  0.00  0.00    +0.000 A 
ATOM     20  C   UNL     1       2.765   2.293  21.108  0.00  0.00    +0.000 A 
ATOM     21  C   UNL     1       3.761   2.967  20.381  0.00  0.00    +0.000 A 
ATOM     22  C   UNL     1       3.563   4.302  19.972  0.00  0.00    +0.000 A 
BRANCH  17  24
ATOM     23  C   UNL     1       1.721   7.154  20.878  0.00  0.00    +0.000 C 
ATOM     24  O   UNL     1       2.108   6.206  19.881  0.00  0.00    +0.000 OA
ENDBRANCH  17  24
BRANCH  21  25
ATOM     25  O   UNL     1       4.916   2.235  20.301  0.00  0.00    +0.000 OA
ATOM     26  C   UNL     1       5.119   1.225  21.277  0.00  0.00    +0.000 C 
ENDBRANCH  21  25
ENDBRANCH  16  22
ENDBRANCH   1  16
TORSDOF 5
ENDMDL
MODEL 7
REMARK VINA RESULT:      -6.9      2.607      7.975
REMARK  Name = 
REMARK  7 active torsions:
REMARK  status: ('A' for Active; 'I' for Inactive)
REMARK    1  A    between atoms: C_1  and  O_2
REMARK    2  A    between atoms: O_2  and  C_3
REMARK    3  A    between atoms: C_7  and  O_8
REMARK    4  A    between atoms: O_8  and  C_9
REMARK    5  A    between atoms: C_10  and  C_11
REMARK    6  A    between atoms: C_11  and  N_12
REMARK    7  A    between atoms: C_13  and  C_15
REMARK                            x       y       z     vdW  Elec       q    Type
REMARK                         _______ _______ _______ _____ _____    ______ ____
ROOT
ATOM      1  N   UNL     1       4.063   6.234  19.459  0.00  0.00    +0.000 NA
ATOM      2  C   UNL     1       2.773   6.200  19.419  0.00  0.00    +0.000 C 
ATOM      3  N   UNL     1       2.041   5.169  18.895  0.00  0.00    +0.000 N 
ATOM      4  H   UNL     1       2.544   4.568  18.252  0.00  0.00    +0.000 HD
ATOM      5  H   UNL     1       1.147   5.459  18.517  0.00  0.00    +0.000 HD
ENDROOT
BRANCH   2   6
ATOM      6  C   UNL     1       2.036   7.302  20.026  0.00  0.00    +0.000 A 
ATOM      7  C   UNL     1       1.628   8.428  19.335  0.00  0.00    +0.000 A 
ATOM      8  C   UNL     1       0.913   9.276  20.201  0.00  0.00    +0.000 A 
ATOM      9  C   UNL     1       0.264  10.507  20.005  0.00  0.00    +0.000 A 
ATOM     10  C   UNL     1      -0.329  11.145  21.093  0.00  0.00    +0.000 A 
ATOM     11  C   UNL     1      -0.271  10.567  22.358  0.00  0.00    +0.000 A 
ATOM     12  C   UNL     1       0.348   9.321  22.570  0.00  0.00    +0.000 A 
ATOM     13  C   UNL     1       0.923   8.679  21.460  0.00  0.00    +0.000 A 
ATOM     14  N   UNL     1       1.555   7.449  21.315  0.00  0.00    +0.000 N 
ATOM     15  H   UNL     1       1.659   6.760  22.049  0.00  0.00    +0.000 HD
ENDBRANCH   2   6
BRANCH   1  16
ATOM     16  C   UNL     1       4.808   4.993  19.138  0.00  0.00    +0.000 C 
BRANCH  16  22
ATOM     17  C   UNL     1       4.768   3.941  16.814  0.00  0.00    +0.000 A 
ATOM     18  C   UNL     1       5.392   3.613  15.600  0.00  0.00    +0.000 A 
ATOM     19  C   UNL     1       6.585   4.219  15.239  0.00  0.00    +0.000 A 
ATOM     20  C   UNL     1       7.172   5.132  16.103  0.00  0.00    +0.000 A 
ATOM     21  C   UNL     1       6.598   5.439  17.348  0.00  0.00    +0.000 A 
ATOM     22  C   UNL     1       5.382   4.840  17.737  0.00  0.00    +0.000 A 
BRANCH  17  24
ATOM     23  C   UNL     1       3.613   2.071  17.749  0.00  0.00    +0.000 C 
ATOM     24  O   UNL     1       3.562   3.381  17.179  0.00  0.00    +0.000 OA
ENDBRANCH  17  24
BRANCH  21  25
ATOM     25  O   UNL     1       7.431   6.207  18.117  0.00  0.00    +0.000 OA
ATOM     26  C   UNL     1       7.694   7.530  17.675  0.00  0.00    +0.000 C 
ENDBRANCH  21  25
ENDBRANCH  16  22
ENDBRANCH   1  16
TORSDOF 5
ENDMDL
MODEL 8
REMARK VINA RESULT:      -6.8      2.644      7.703
REMARK  Name = 
REMARK  7 active torsions:
REMARK  status: ('A' for Active; 'I' for Inactive)
REMARK    1  A    between atoms: C_1  and  O_2
REMARK    2  A    between atoms: O_2  and  C_3
REMARK    3  A    between atoms: C_7  and  O_8
REMARK    4  A    between atoms: O_8  and  C_9
REMARK    5  A    between atoms: C_10  and  C_11
REMARK    6  A    between atoms: C_11  and  N_12
REMARK    7  A    between atoms: C_13  and  C_15
REMARK                            x       y       z     vdW  Elec       q    Type
REMARK                         _______ _______ _______ _____ _____    ______ ____
ROOT
ATOM      1  N   UNL     1       3.884   6.258  19.378  0.00  0.00    +0.000 NA
ATOM      2  C   UNL     1       2.629   6.160  19.666  0.00  0.00    +0.000 C 
ATOM      3  N   UNL     1       1.941   4.980  19.743  0.00  0.00    +0.000 N 
ATOM      4  H   UNL     1       2.372   4.200  19.257  0.00  0.00    +0.000 HD
ATOM      5  H   UNL     1       0.959   5.068  19.514  0.00  0.00    +0.000 HD
ENDROOT
BRANCH   2   6
ATOM      6  C   UNL     1       1.902   7.380  19.995  0.00  0.00    +0.000 A 
ATOM      7  C   UNL     1       1.270   7.595  21.207  0.00  0.00    +0.000 A 
ATOM      8  C   UNL     1       0.696   8.880  21.214  0.00  0.00    +0.000 A 
ATOM      9  C   UNL     1      -0.016   9.599  22.190  0.00  0.00    +0.000 A 
ATOM     10  C   UNL     1      -0.513  10.862  21.878  0.00  0.00    +0.000 A 
ATOM     11  C   UNL     1      -0.308  11.400  20.610  0.00  0.00    +0.000 A 
ATOM     12  C   UNL     1       0.428  10.711  19.629  0.00  0.00    +0.000 A 
ATOM     13  C   UNL     1       0.941   9.445  19.964  0.00  0.00    +0.000 A 
ATOM     14  N   UNL     1       1.732   8.541  19.263  0.00  0.00    +0.000 N 
ATOM     15  H   UNL     1       2.122   8.702  18.343  0.00  0.00    +0.000 HD
ENDBRANCH   2   6
BRANCH   1  16
ATOM     16  C   UNL     1       4.698   5.019  19.355  0.00  0.00    +0.000 C 
BRANCH  16  22
ATOM     17  C   UNL     1       6.625   4.879  17.689  0.00  0.00    +0.000 A 
ATOM     18  C   UNL     1       7.119   4.664  16.393  0.00  0.00    +0.000 A 
ATOM     19  C   UNL     1       6.323   4.065  15.429  0.00  0.00    +0.000 A 
ATOM     20  C   UNL     1       5.023   3.705  15.751  0.00  0.00    +0.000 A 
ATOM     21  C   UNL     1       4.485   3.956  17.024  0.00  0.00    +0.000 A 
ATOM     22  C   UNL     1       5.275   4.560  18.024  0.00  0.00    +0.000 A 
BRANCH  17  24
ATOM     23  C   UNL     1       7.880   6.767  18.441  0.00  0.00    +0.000 C 
ATOM     24  O   UNL     1       7.410   5.437  18.676  0.00  0.00    +0.000 OA
ENDBRANCH  17  24
BRANCH  21  25
ATOM     25  O   UNL     1       3.140   3.701  17.067  0.00  0.00    +0.000 OA
ATOM     26  C   UNL     1       2.732   2.418  17.514  0.00  0.00    +0.000 C 
ENDBRANCH  21  25
ENDBRANCH  16  22
ENDBRANCH   1  16
TORSDOF 5
ENDMDL
MODEL 9
REMARK VINA RESULT:      -6.8      2.677      7.637
REMARK  Name = 
REMARK  7 active torsions:
REMARK  status: ('A' for Active; 'I' for Inactive)
REMARK    1  A    between atoms: C_1  and  O_2
REMARK    2  A    between atoms: O_2  and  C_3
REMARK    3  A    between atoms: C_7  and  O_8
REMARK    4  A    between atoms: O_8  and  C_9
REMARK    5  A    between atoms: C_10  and  C_11
REMARK    6  A    between atoms: C_11  and  N_12
REMARK    7  A    between atoms: C_13  and  C_15
REMARK                            x       y       z     vdW  Elec       q    Type
REMARK                         _______ _______ _______ _____ _____    ______ ____
ROOT
ATOM      1  N   UNL     1       3.660   6.166  19.241  0.00  0.00    +0.000 NA
ATOM      2  C   UNL     1       2.693   6.222  20.095  0.00  0.00    +0.000 C 
ATOM      3  N   UNL     1       2.327   5.195  20.921  0.00  0.00    +0.000 N 
ATOM      4  H   UNL     1       2.634   4.274  20.624  0.00  0.00    +0.000 HD
ATOM      5  H   UNL     1       1.343   5.201  21.163  0.00  0.00    +0.000 HD
ENDROOT
BRANCH   2   6
ATOM      6  C   UNL     1       1.978   7.484  20.241  0.00  0.00    +0.000 A 
ATOM      7  C   UNL     1       1.711   8.343  19.190  0.00  0.00    +0.000 A 
ATOM      8  C   UNL     1       0.977   9.447  19.661  0.00  0.00    +0.000 A 
ATOM      9  C   UNL     1       0.431  10.572  19.019  0.00  0.00    +0.000 A 
ATOM     10  C   UNL     1      -0.217  11.543  19.779  0.00  0.00    +0.000 A 
ATOM     11  C   UNL     1      -0.315  11.399  21.160  0.00  0.00    +0.000 A 
ATOM     12  C   UNL     1       0.198  10.266  21.820  0.00  0.00    +0.000 A 
ATOM     13  C   UNL     1       0.830   9.284  21.037  0.00  0.00    +0.000 A 
ATOM     14  N   UNL     1       1.390   8.051  21.357  0.00  0.00    +0.000 N 
ATOM     15  H   UNL     1       1.380   7.630  22.277  0.00  0.00    +0.000 HD
ENDBRANCH   2   6
BRANCH   1  16
ATOM     16  C   UNL     1       4.588   5.011  19.308  0.00  0.00    +0.000 C 
BRANCH  16  22
ATOM     17  C   UNL     1       6.618   4.889  17.767  0.00  0.00    +0.000 A 
ATOM     18  C   UNL     1       7.196   4.669  16.507  0.00  0.00    +0.000 A 
ATOM     19  C   UNL     1       6.473   4.043  15.504  0.00  0.00    +0.000 A 
ATOM     20  C   UNL     1       5.162   3.661  15.749  0.00  0.00    +0.000 A 
ATOM     21  C   UNL     1       4.541   3.917  16.982  0.00  0.00    +0.000 A 
ATOM     22  C   UNL     1       5.256   4.548  18.021  0.00  0.00    +0.000 A 
BRANCH  17  24
ATOM     23  C   UNL     1       7.912   6.751  18.518  0.00  0.00    +0.000 C 
ATOM     24  O   UNL     1       7.329   5.475  18.793  0.00  0.00    +0.000 OA
ENDBRANCH  17  24
BRANCH  21  25
ATOM     25  O   UNL     1       3.201   3.636  16.945  0.00  0.00    +0.000 OA
ATOM     26  C   UNL     1       2.762   2.459  17.605  0.00  0.00    +0.000 C 
ENDBRANCH  21  25
ENDBRANCH  16  22
ENDBRANCH   1  16
TORSDOF 5
ENDMDL
