MODEL 1
REMARK VINA RESULT:      -6.2      0.000      0.000
REMARK  Name = 
REMARK  6 active torsions:
REMARK  status: ('A' for Active; 'I' for Inactive)
REMARK    1  A    between atoms: C_1  and  C_2
REMARK    2  A    between atoms: C_2  and  C_3
REMARK    3  A    between atoms: C_2  and  C_4
REMARK    4  A    between atoms: C_2  and  N_8
REMARK    5  A    between atoms: C_4  and  C_5
REMARK    6  A    between atoms: C_9  and  C_11
REMARK                            x       y       z     vdW  Elec       q    Type
REMARK                         _______ _______ _______ _____ _____    ______ ____
ROOT
ATOM      1  C   UNL     1       1.662   5.488  20.809  0.00  0.00    +0.000 C 
ATOM      2  C   UNL     1       2.412   4.413  19.996  0.00  0.00    +0.000 C 
ATOM      3  C   UNL     1       2.714   3.214  20.912  0.00  0.00    +0.000 C 
ENDROOT
BRANCH   2   4
ATOM      4  N   UNL     1       3.697   5.022  19.564  0.00  0.00    +0.000 N 
ATOM      5  C   UNL     1       4.842   4.322  19.250  0.00  0.00    +0.000 C 
ATOM      6  O   UNL     1       4.925   3.100  19.240  0.00  0.00    +0.000 OA
ATOM      7  H   UNL     1       3.806   6.032  19.587  0.00  0.00    +0.000 HD
BRANCH   5   8
ATOM      8  C   UNL     1       5.980   5.184  18.912  0.00  0.00    +0.000 A 
ATOM      9  C   UNL     1       6.003   6.007  17.800  0.00  0.00    +0.000 A 
ATOM     10  S   UNL     1       7.475   6.879  17.732  0.00  0.00    +0.000 S 
ATOM     11  C   UNL     1       7.978   6.101  19.176  0.00  0.00    +0.000 A 
ATOM     12  N   UNL     1       7.132   5.242  19.704  0.00  0.00    +0.000 NA
ENDBRANCH   5   8
ENDBRANCH   2   4
BRANCH   2  13
ATOM     13  C   UNL     1       1.589   4.006  18.747  0.00  0.00    +0.000 C 
BRANCH  13  14
ATOM     14  C   UNL     1       1.302   2.529  18.564  0.00  0.00    +0.000 C 
ATOM     15  N   UNL     1       2.302   1.843  17.932  0.00  0.00    +0.000 N 
ATOM     16  O   UNL     1       0.290   1.942  18.925  0.00  0.00    +0.000 OA
ATOM     17  H   UNL     1       3.197   2.256  17.710  0.00  0.00    +0.000 HD
ATOM     18  H   UNL     1       2.189   0.842  17.829  0.00  0.00    +0.000 HD
ENDBRANCH  13  14
ENDBRANCH   2  13
TORSDOF 4
ENDMDL
MODEL 2
REMARK VINA RESULT:      -6.2      1.051      1.051
REMARK  Name = 
REMARK  6 active torsions:
REMARK  status: ('A' for Active; 'I' for Inactive)
REMARK    1  A    between atoms: C_1  and  C_2
REMARK    2  A    between atoms: C_2  and  C_3
REMARK    3  A    between atoms: C_2  and  C_4
REMARK    4  A    between atoms: C_2  and  N_8
REMARK    5  A    between atoms: C_4  and  C_5
REMARK    6  A    between atoms: C_9  and  C_11
REMARK                            x       y       z     vdW  Elec       q    Type
REMARK                         _______ _______ _______ _____ _____    ______ ____
ROOT
ATOM      1  C   UNL     1       1.427   5.295  20.761  0.00  0.00    +0.000 C 
ATOM      2  C   UNL     1       2.193   4.093  20.170  0.00  0.00    +0.000 C 
ATOM      3  C   UNL     1       2.569   3.131  21.311  0.00  0.00    +0.000 C 
ENDROOT
BRANCH   2   4
ATOM      4  N   UNL     1       3.439   4.632  19.567  0.00  0.00    +0.000 N 
ATOM      5  C   UNL     1       4.639   3.959  19.484  0.00  0.00    +0.000 C 
ATOM      6  O   UNL     1       4.809   2.804  19.855  0.00  0.00    +0.000 OA
ATOM      7  H   UNL     1       3.473   5.606  19.275  0.00  0.00    +0.000 HD
BRANCH   5   8
ATOM      8  C   UNL     1       5.718   4.756  18.893  0.00  0.00    +0.000 A 
ATOM      9  C   UNL     1       5.759   5.099  17.552  0.00  0.00    +0.000 A 
ATOM     10  S   UNL     1       7.147   6.046  17.221  0.00  0.00    +0.000 S 
ATOM     11  C   UNL     1       7.595   5.931  18.872  0.00  0.00    +0.000 A 
ATOM     12  N   UNL     1       6.789   5.241  19.652  0.00  0.00    +0.000 NA
ENDBRANCH   5   8
ENDBRANCH   2   4
BRANCH   2  13
ATOM     13  C   UNL     1       1.347   3.399  19.071  0.00  0.00    +0.000 C 
BRANCH  13  14
ATOM     14  C   UNL     1       2.099   2.808  17.896  0.00  0.00    +0.000 C 
ATOM     15  N   UNL     1       2.502   1.515  18.087  0.00  0.00    +0.000 N 
ATOM     16  O   UNL     1       2.354   3.379  16.843  0.00  0.00    +0.000 OA
ATOM     17  H   UNL     1       2.227   0.967  18.890  0.00  0.00    +0.000 HD
ATOM     18  H   UNL     1       2.963   1.051  17.315  0.00  0.00    +0.000 HD
ENDBRANCH  13  14
ENDBRANCH   2  13
TORSDOF 4
ENDMDL
MODEL 3
REMARK VINA RESULT:      -6.1      2.908      5.356
REMARK  Name = 
REMARK  6 active torsions:
REMARK  status: ('A' for Active; 'I' for Inactive)
REMARK    1  A    between atoms: C_1  and  C_2
REMARK    2  A    between atoms: C_2  and  C_3
REMARK    3  A    between atoms: C_2  and  C_4
REMARK    4  A    between atoms: C_2  and  N_8
REMARK    5  A    between atoms: C_4  and  C_5
REMARK    6  A    between atoms: C_9  and  C_11
REMARK                            x       y       z     vdW  Elec       q    Type
REMARK                         _______ _______ _______ _____ _____    ______ ____
ROOT
ATOM      1  C   UNL     1       8.118   5.627  19.273  0.00  0.00    +0.000 C 
ATOM      2  C   UNL     1       7.162   5.896  18.093  0.00  0.00    +0.000 C 
ATOM      3  C   UNL     1       7.429   7.310  17.545  0.00  0.00    +0.000 C 
ENDROOT
BRANCH   2   4
ATOM      4  N   UNL     1       5.781   5.847  18.640  0.00  0.00    +0.000 N 
ATOM      5  C   UNL     1       5.173   4.726  19.165  0.00  0.00    +0.000 C 
ATOM      6  O   UNL     1       5.721   3.638  19.290  0.00  0.00    +0.000 OA
ATOM      7  H   UNL     1       5.175   6.658  18.546  0.00  0.00    +0.000 HD
BRANCH   5   8
ATOM      8  C   UNL     1       3.785   4.954  19.578  0.00  0.00    +0.000 A 
ATOM      9  C   UNL     1       2.957   3.946  20.042  0.00  0.00    +0.000 A 
ATOM     10  S   UNL     1       1.418   4.576  20.448  0.00  0.00    +0.000 S 
ATOM     11  C   UNL     1       1.955   6.135  19.977  0.00  0.00    +0.000 A 
ATOM     12  N   UNL     1       3.194   6.222  19.541  0.00  0.00    +0.000 NA
ENDBRANCH   5   8
ENDBRANCH   2   4
BRANCH   2  13
ATOM     13  C   UNL     1       7.324   4.804  17.004  0.00  0.00    +0.000 C 
BRANCH  13  14
ATOM     14  C   UNL     1       6.582   5.017  15.700  0.00  0.00    +0.000 C 
ATOM     15  N   UNL     1       7.399   5.204  14.620  0.00  0.00    +0.000 N 
ATOM     16  O   UNL     1       5.365   5.032  15.558  0.00  0.00    +0.000 OA
ATOM     17  H   UNL     1       8.403   5.097  14.665  0.00  0.00    +0.000 HD
ATOM     18  H   UNL     1       6.960   5.299  13.713  0.00  0.00    +0.000 HD
ENDBRANCH  13  14
ENDBRANCH   2  13
TORSDOF 4
ENDMDL
MODEL 4
REMARK VINA RESULT:      -6.1      2.875      5.603
REMARK  Name = 
REMARK  6 active torsions:
REMARK  status: ('A' for Active; 'I' for Inactive)
REMARK    1  A    between atoms: C_1  and  C_2
REMARK    2  A    between atoms: C_2  and  C_3
REMARK    3  A    between atoms: C_2  and  C_4
REMARK    4  A    between atoms: C_2  and  N_8
REMARK    5  A    between atoms: C_4  and  C_5
REMARK    6  A    between atoms: C_9  and  C_11
REMARK                            x       y       z     vdW  Elec       q    Type
REMARK                         _______ _______ _______ _____ _____    ______ ____
ROOT
ATOM      1  C   UNL     1       5.464   6.170  16.433  0.00  0.00    +0.000 C 
ATOM      2  C   UNL     1       5.984   4.849  17.037  0.00  0.00    +0.000 C 
ATOM      3  C   UNL     1       5.892   3.742  15.972  0.00  0.00    +0.000 C 
ENDROOT
BRANCH   2   4
ATOM      4  N   UNL     1       5.077   4.506  18.163  0.00  0.00    +0.000 N 
ATOM      5  C   UNL     1       3.781   4.055  18.032  0.00  0.00    +0.000 C 
ATOM      6  O   UNL     1       3.233   3.833  16.960  0.00  0.00    +0.000 OA
ATOM      7  H   UNL     1       5.368   4.702  19.118  0.00  0.00    +0.000 HD
BRANCH   5   8
ATOM      8  C   UNL     1       3.100   3.852  19.315  0.00  0.00    +0.000 A 
ATOM      9  C   UNL     1       2.747   2.603  19.796  0.00  0.00    +0.000 A 
ATOM     10  S   UNL     1       1.988   2.745  21.324  0.00  0.00    +0.000 S 
ATOM     11  C   UNL     1       2.177   4.447  21.237  0.00  0.00    +0.000 A 
ATOM     12  N   UNL     1       2.762   4.918  20.157  0.00  0.00    +0.000 NA
ENDBRANCH   5   8
ENDBRANCH   2   4
BRANCH   2  13
ATOM     13  C   UNL     1       7.427   5.030  17.574  0.00  0.00    +0.000 C 
BRANCH  13  14
ATOM     14  C   UNL     1       7.583   5.739  18.904  0.00  0.00    +0.000 C 
ATOM     15  N   UNL     1       8.264   6.922  18.827  0.00  0.00    +0.000 N 
ATOM     16  O   UNL     1       7.160   5.344  19.984  0.00  0.00    +0.000 OA
ATOM     17  H   UNL     1       8.540   7.341  17.950  0.00  0.00    +0.000 HD
ATOM     18  H   UNL     1       8.353   7.466  19.676  0.00  0.00    +0.000 HD
ENDBRANCH  13  14
ENDBRANCH   2  13
TORSDOF 4
ENDMDL
MODEL 5
REMARK VINA RESULT:      -6.1      2.855      5.423
REMARK  Name = 
REMARK  6 active torsions:
REMARK  status: ('A' for Active; 'I' for Inactive)
REMARK    1  A    between atoms: C_1  and  C_2
REMARK    2  A    between atoms: C_2  and  C_3
REMARK    3  A    between atoms: C_2  and  C_4
REMARK    4  A    between atoms: C_2  and  N_8
REMARK    5  A    between atoms: C_4  and  C_5
REMARK    6  A    between atoms: C_9  and  C_11
REMARK                            x       y       z     vdW  Elec       q    Type
REMARK                         _______ _______ _______ _____ _____    ______ ____
ROOT
ATOM      1  C   UNL     1       7.607   5.774  19.333  0.00  0.00    +0.000 C 
ATOM      2  C   UNL     1       6.888   5.809  17.968  0.00  0.00    +0.000 C 
ATOM      3  C   UNL     1       6.980   7.233  17.392  0.00  0.00    +0.000 C 
ENDROOT
BRANCH   2   4
ATOM      4  N   UNL     1       5.461   5.487  18.227  0.00  0.00    +0.000 N 
ATOM      5  C   UNL     1       5.006   4.374  18.902  0.00  0.00    +0.000 C 
ATOM      6  O   UNL     1       5.733   3.535  19.418  0.00  0.00    +0.000 OA
ATOM      7  H   UNL     1       4.734   6.057  17.802  0.00  0.00    +0.000 HD
BRANCH   5   8
ATOM      8  C   UNL     1       3.544   4.282  18.958  0.00  0.00    +0.000 A 
ATOM      9  C   UNL     1       2.840   4.111  20.137  0.00  0.00    +0.000 A 
ATOM     10  S   UNL     1       1.157   4.064  19.827  0.00  0.00    +0.000 S 
ATOM     11  C   UNL     1       1.480   4.269  18.155  0.00  0.00    +0.000 A 
ATOM     12  N   UNL     1       2.746   4.370  17.811  0.00  0.00    +0.000 NA
ENDBRANCH   5   8
ENDBRANCH   2   4
BRANCH   2  13
ATOM     13  C   UNL     1       7.491   4.748  17.012  0.00  0.00    +0.000 C 
BRANCH  13  14
ATOM     14  C   UNL     1       6.815   4.571  15.667  0.00  0.00    +0.000 C 
ATOM     15  N   UNL     1       7.482   5.160  14.628  0.00  0.00    +0.000 N 
ATOM     16  O   UNL     1       5.770   3.968  15.460  0.00  0.00    +0.000 OA
ATOM     17  H   UNL     1       8.398   5.576  14.728  0.00  0.00    +0.000 HD
ATOM     18  H   UNL     1       7.105   5.031  13.698  0.00  0.00    +0.000 HD
ENDBRANCH  13  14
ENDBRANCH   2  13
TORSDOF 4
ENDMDL
MODEL 6
REMARK VINA RESULT:      -6.1      1.551      1.551
REMARK  Name = 
REMARK  6 active torsions:
REMARK  status: ('A' for Active; 'I' for Inactive)
REMARK    1  A    between atoms: C_1  and  C_2
REMARK    2  A    between atoms: C_2  and  C_3
REMARK    3  A    between atoms: C_2  and  C_4
REMARK    4  A    between atoms: C_2  and  N_8
REMARK    5  A    between atoms: C_4  and  C_5
REMARK    6  A    between atoms: C_9  and  C_11
REMARK                            x       y       z     vdW  Elec       q    Type
REMARK                         _______ _______ _______ _____ _____    ______ ____
ROOT
ATOM      1  C   UNL     1       1.654   5.591  20.796  0.00  0.00    +0.000 C 
ATOM      2  C   UNL     1       2.098   4.172  20.386  0.00  0.00    +0.000 C 
ATOM      3  C   UNL     1       2.101   3.270  21.633  0.00  0.00    +0.000 C 
ENDROOT
BRANCH   2   4
ATOM      4  N   UNL     1       3.489   4.289  19.875  0.00  0.00    +0.000 N 
ATOM      5  C   UNL     1       3.986   5.358  19.162  0.00  0.00    +0.000 C 
ATOM      6  O   UNL     1       3.350   6.373  18.905  0.00  0.00    +0.000 OA
ATOM      7  H   UNL     1       4.120   3.495  19.953  0.00  0.00    +0.000 HD
BRANCH   5   8
ATOM      8  C   UNL     1       5.377   5.179  18.734  0.00  0.00    +0.000 A 
ATOM      9  C   UNL     1       5.730   4.743  17.468  0.00  0.00    +0.000 A 
ATOM     10  S   UNL     1       7.434   4.669  17.316  0.00  0.00    +0.000 S 
ATOM     11  C   UNL     1       7.582   5.215  18.935  0.00  0.00    +0.000 A 
ATOM     12  N   UNL     1       6.459   5.448  19.580  0.00  0.00    +0.000 NA
ENDBRANCH   5   8
ENDBRANCH   2   4
BRANCH   2  13
ATOM     13  C   UNL     1       1.182   3.620  19.264  0.00  0.00    +0.000 C 
BRANCH  13  14
ATOM     14  C   UNL     1       1.844   2.796  18.178  0.00  0.00    +0.000 C 
ATOM     15  N   UNL     1       2.026   1.482  18.510  0.00  0.00    +0.000 N 
ATOM     16  O   UNL     1       2.206   3.206  17.082  0.00  0.00    +0.000 OA
ATOM     17  H   UNL     1       1.652   1.072  19.354  0.00  0.00    +0.000 HD
ATOM     18  H   UNL     1       2.416   0.871  17.803  0.00  0.00    +0.000 HD
ENDBRANCH  13  14
ENDBRANCH   2  13
TORSDOF 4
ENDMDL
MODEL 7
REMARK VINA RESULT:      -6.1      1.644      2.078
REMARK  Name = 
REMARK  6 active torsions:
REMARK  status: ('A' for Active; 'I' for Inactive)
REMARK    1  A    between atoms: C_1  and  C_2
REMARK    2  A    between atoms: C_2  and  C_3
REMARK    3  A    between atoms: C_2  and  C_4
REMARK    4  A    between atoms: C_2  and  N_8
REMARK    5  A    between atoms: C_4  and  C_5
REMARK    6  A    between atoms: C_9  and  C_11
REMARK                            x       y       z     vdW  Elec       q    Type
REMARK                         _______ _______ _______ _____ _____    ______ ____
ROOT
ATOM      1  C   UNL     1       1.434   4.248  17.856  0.00  0.00    +0.000 C 
ATOM      2  C   UNL     1       2.219   3.843  19.121  0.00  0.00    +0.000 C 
ATOM      3  C   UNL     1       1.468   4.358  20.361  0.00  0.00    +0.000 C 
ENDROOT
BRANCH   2   4
ATOM      4  N   UNL     1       3.538   4.521  19.042  0.00  0.00    +0.000 N 
ATOM      5  C   UNL     1       4.310   4.631  17.905  0.00  0.00    +0.000 C 
ATOM      6  O   UNL     1       3.974   4.222  16.800  0.00  0.00    +0.000 OA
ATOM      7  H   UNL     1       3.982   4.854  19.894  0.00  0.00    +0.000 HD
BRANCH   5   8
ATOM      8  C   UNL     1       5.594   5.301  18.131  0.00  0.00    +0.000 A 
ATOM      9  C   UNL     1       6.068   6.323  17.327  0.00  0.00    +0.000 A 
ATOM     10  S   UNL     1       7.584   6.878  17.897  0.00  0.00    +0.000 S 
ATOM     11  C   UNL     1       7.506   5.725  19.165  0.00  0.00    +0.000 A 
ATOM     12  N   UNL     1       6.437   4.959  19.195  0.00  0.00    +0.000 NA
ENDBRANCH   5   8
ENDBRANCH   2   4
BRANCH   2  13
ATOM     13  C   UNL     1       2.431   2.307  19.158  0.00  0.00    +0.000 C 
BRANCH  13  14
ATOM     14  C   UNL     1       3.847   1.813  19.374  0.00  0.00    +0.000 C 
ATOM     15  N   UNL     1       4.246   0.861  18.478  0.00  0.00    +0.000 N 
ATOM     16  O   UNL     1       4.615   2.190  20.250  0.00  0.00    +0.000 OA
ATOM     17  H   UNL     1       3.692   0.593  17.677  0.00  0.00    +0.000 HD
ATOM     18  H   UNL     1       5.201   0.531  18.541  0.00  0.00    +0.000 HD
ENDBRANCH  13  14
ENDBRANCH   2  13
TORSDOF 4
ENDMDL
MODEL 8
REMARK VINA RESULT:      -6.1      3.114      5.486
REMARK  Name = 
REMARK  6 active torsions:
REMARK  status: ('A' for Active; 'I' for Inactive)
REMARK    1  A    between atoms: C_1  and  C_2
REMARK    2  A    between atoms: C_2  and  C_3
REMARK    3  A    between atoms: C_2  and  C_4
REMARK    4  A    between atoms: C_2  and  N_8
REMARK    5  A    between atoms: C_4  and  C_5
REMARK    6  A    between atoms: C_9  and  C_11
REMARK                            x       y       z     vdW  Elec       q    Type
REMARK                         _______ _______ _______ _____ _____    ______ ____
ROOT
ATOM      1  C   UNL     1       7.806   6.000  19.079  0.00  0.00    +0.000 C 
ATOM      2  C   UNL     1       6.755   5.560  18.039  0.00  0.00    +0.000 C 
ATOM      3  C   UNL     1       6.243   6.803  17.290  0.00  0.00    +0.000 C 
ENDROOT
BRANCH   2   4
ATOM      4  N   UNL     1       5.628   4.958  18.797  0.00  0.00    +0.000 N 
ATOM      5  C   UNL     1       4.375   4.696  18.285  0.00  0.00    +0.000 C 
ATOM      6  O   UNL     1       4.053   4.883  17.118  0.00  0.00    +0.000 OA
ATOM      7  H   UNL     1       5.721   4.809  19.799  0.00  0.00    +0.000 HD
BRANCH   5   8
ATOM      8  C   UNL     1       3.440   4.155  19.277  0.00  0.00    +0.000 A 
ATOM      9  C   UNL     1       2.199   4.712  19.531  0.00  0.00    +0.000 A 
ATOM     10  S   UNL     1       1.374   3.811  20.731  0.00  0.00    +0.000 S 
ATOM     11  C   UNL     1       2.719   2.752  20.830  0.00  0.00    +0.000 A 
ATOM     12  N   UNL     1       3.735   3.018  20.038  0.00  0.00    +0.000 NA
ENDBRANCH   5   8
ENDBRANCH   2   4
BRANCH   2  13
ATOM     13  C   UNL     1       7.354   4.500  17.079  0.00  0.00    +0.000 C 
BRANCH  13  14
ATOM     14  C   UNL     1       7.085   4.683  15.599  0.00  0.00    +0.000 C 
ATOM     15  N   UNL     1       6.000   3.988  15.141  0.00  0.00    +0.000 N 
ATOM     16  O   UNL     1       7.738   5.375  14.828  0.00  0.00    +0.000 OA
ATOM     17  H   UNL     1       5.369   3.489  15.753  0.00  0.00    +0.000 HD
ATOM     18  H   UNL     1       5.740   4.113  14.171  0.00  0.00    +0.000 HD
ENDBRANCH  13  14
ENDBRANCH   2  13
TORSDOF 4
ENDMDL
MODEL 9
REMARK VINA RESULT:      -6.0      3.360      5.637
REMARK  Name = 
REMARK  6 active torsions:
REMARK  status: ('A' for Active; 'I' for Inactive)
REMARK    1  A    between atoms: C_1  and  C_2
REMARK    2  A    between atoms: C_2  and  C_3
REMARK    3  A    between atoms: C_2  and  C_4
REMARK    4  A    between atoms: C_2  and  N_8
REMARK    5  A    between atoms: C_4  and  C_5
REMARK    6  A    between atoms: C_9  and  C_11
REMARK                            x       y       z     vdW  Elec       q    Type
REMARK                         _______ _______ _______ _____ _____    ______ ____
ROOT
ATOM      1  C   UNL     1       6.838   6.192  18.023  0.00  0.00    +0.000 C 
ATOM      2  C   UNL     1       5.753   5.420  17.244  0.00  0.00    +0.000 C 
ATOM      3  C   UNL     1       5.019   6.398  16.309  0.00  0.00    +0.000 C 
ENDROOT
BRANCH   2   4
ATOM      4  N   UNL     1       4.790   4.902  18.249  0.00  0.00    +0.000 N 
ATOM      5  C   UNL     1       3.708   4.094  17.971  0.00  0.00    +0.000 C 
ATOM      6  O   UNL     1       3.438   3.660  16.858  0.00  0.00    +0.000 OA
ATOM      7  H   UNL     1       4.844   5.230  19.210  0.00  0.00    +0.000 HD
BRANCH   5   8
ATOM      8  C   UNL     1       2.893   3.783  19.150  0.00  0.00    +0.000 A 
ATOM      9  C   UNL     1       3.340   2.990  20.193  0.00  0.00    +0.000 A 
ATOM     10  S   UNL     1       2.134   2.858  21.402  0.00  0.00    +0.000 S 
ATOM     11  C   UNL     1       1.107   3.854  20.457  0.00  0.00    +0.000 A 
ATOM     12  N   UNL     1       1.594   4.278  19.310  0.00  0.00    +0.000 NA
ENDBRANCH   5   8
ENDBRANCH   2   4
BRANCH   2  13
ATOM     13  C   UNL     1       6.383   4.231  16.472  0.00  0.00    +0.000 C 
BRANCH  13  14
ATOM     14  C   UNL     1       6.882   4.509  15.069  0.00  0.00    +0.000 C 
ATOM     15  N   UNL     1       6.308   3.722  14.109  0.00  0.00    +0.000 N 
ATOM     16  O   UNL     1       7.718   5.347  14.754  0.00  0.00    +0.000 OA
ATOM     17  H   UNL     1       5.541   3.092  14.301  0.00  0.00    +0.000 HD
ATOM     18  H   UNL     1       6.564   3.898  13.146  0.00  0.00    +0.000 HD
ENDBRANCH  13  14
ENDBRANCH   2  13
TORSDOF 4
ENDMDL
