MODEL 1
REMARK VINA RESULT:      -8.3      0.000      0.000
REMARK  Name = 
REMARK  9 active torsions:
REMARK  status: ('A' for Active; 'I' for Inactive)
REMARK    1  A    between atoms: C_1  and  O_2
REMARK    2  A    between atoms: O_2  and  C_3
REMARK    3  A    between atoms: C_7  and  C_8
REMARK    4  A    between atoms: C_8  and  N_9
REMARK    5  A    between atoms: C_13  and  C_14
REMARK    6  A    between atoms: C_15  and  C_16
REMARK    7  A    between atoms: C_24  and  C_25
REMARK    8  A    between atoms: C_27  and  O_28
REMARK    9  A    between atoms: O_28  and  C_29
REMARK                            x       y       z     vdW  Elec       q    Type
REMARK                         _______ _______ _______ _____ _____    ______ ____
ROOT
ATOM      1  N   UNL     1       1.553   9.130  19.473  0.00  0.00    +0.000 N 
ATOM      2  C   UNL     1       1.876   7.836  19.660  0.00  0.00    +0.000 A 
ATOM      3  N   UNL     1       1.709   7.154  20.798  0.00  0.00    +0.000 NA
ATOM      4  O   UNL     1       2.074   5.853  20.456  0.00  0.00    +0.000 OA
ATOM      5  C   UNL     1       2.509   5.896  19.159  0.00  0.00    +0.000 A 
ATOM      6  N   UNL     1       2.402   7.101  18.642  0.00  0.00    +0.000 NA
ATOM      7  H   UNL     1       0.974   9.518  20.212  0.00  0.00    +0.000 HD
ENDROOT
BRANCH   5   8
ATOM      8  C   UNL     1       3.054   4.733  18.430  0.00  0.00    +0.000 A 
ATOM      9  C   UNL     1       4.342   4.568  17.846  0.00  0.00    +0.000 A 
ATOM     10  N   UNL     1       4.407   3.385  17.218  0.00  0.00    +0.000 NA
ATOM     11  O   UNL     1       3.198   2.749  17.441  0.00  0.00    +0.000 OA
ATOM     12  C   UNL     1       2.396   3.552  18.193  0.00  0.00    +0.000 A 
ATOM     13  C   UNL     1       1.059   3.021  18.516  0.00  0.00    +0.000 C 
BRANCH   9  14
ATOM     14  C   UNL     1       5.514   5.441  17.955  0.00  0.00    +0.000 A 
ATOM     15  C   UNL     1       6.535   5.150  18.877  0.00  0.00    +0.000 A 
ATOM     16  C   UNL     1       7.656   5.972  18.997  0.00  0.00    +0.000 A 
ATOM     17  C   UNL     1       7.787   7.081  18.163  0.00  0.00    +0.000 A 
ATOM     18  C   UNL     1       6.800   7.369  17.221  0.00  0.00    +0.000 A 
ATOM     19  C   UNL     1       5.666   6.552  17.119  0.00  0.00    +0.000 A 
ENDBRANCH   9  14
ENDBRANCH   5   8
BRANCH   1  20
ATOM     20  C   UNL     1       1.120   9.568  18.149  0.00  0.00    +0.000 C 
BRANCH  20  25
ATOM     21  C   UNL     1      -1.655  12.070  19.097  0.00  0.00    +0.000 A 
ATOM     22  C   UNL     1      -2.694  11.591  18.285  0.00  0.00    +0.000 A 
ATOM     23  C   UNL     1      -2.538  10.428  17.542  0.00  0.00    +0.000 A 
ATOM     24  C   UNL     1      -1.304   9.789  17.520  0.00  0.00    +0.000 A 
ATOM     25  C   UNL     1      -0.209  10.304  18.237  0.00  0.00    +0.000 A 
ATOM     26  C   UNL     1      -0.391  11.444  19.056  0.00  0.00    +0.000 A 
BRANCH  21  28
ATOM     27  C   UNL     1      -2.360  12.824  21.231  0.00  0.00    +0.000 C 
ATOM     28  O   UNL     1      -1.866  13.142  19.928  0.00  0.00    +0.000 OA
ENDBRANCH  21  28
BRANCH  26  29
ATOM     29  O   UNL     1       0.716  11.775  19.797  0.00  0.00    +0.000 OA
ATOM     30  C   UNL     1       1.499  12.901  19.432  0.00  0.00    +0.000 C 
ENDBRANCH  26  29
ENDBRANCH  20  25
ENDBRANCH   1  20
TORSDOF 6
ENDMDL
MODEL 2
REMARK VINA RESULT:      -8.1      2.135      3.995
REMARK  Name = 
REMARK  9 active torsions:
REMARK  status: ('A' for Active; 'I' for Inactive)
REMARK    1  A    between atoms: C_1  and  O_2
REMARK    2  A    between atoms: O_2  and  C_3
REMARK    3  A    between atoms: C_7  and  C_8
REMARK    4  A    between atoms: C_8  and  N_9
REMARK    5  A    between atoms: C_13  and  C_14
REMARK    6  A    between atoms: C_15  and  C_16
REMARK    7  A    between atoms: C_24  and  C_25
REMARK    8  A    between atoms: C_27  and  O_28
REMARK    9  A    between atoms: O_28  and  C_29
REMARK                            x       y       z     vdW  Elec       q    Type
REMARK                         _______ _______ _______ _____ _____    ______ ____
ROOT
ATOM      1  N   UNL     1       1.342   8.912  18.409  0.00  0.00    +0.000 N 
ATOM      2  C   UNL     1       2.383   8.167  17.992  0.00  0.00    +0.000 A 
ATOM      3  N   UNL     1       3.018   8.308  16.824  0.00  0.00    +0.000 NA
ATOM      4  O   UNL     1       4.075   7.405  16.913  0.00  0.00    +0.000 OA
ATOM      5  C   UNL     1       3.925   6.742  18.101  0.00  0.00    +0.000 A 
ATOM      6  N   UNL     1       2.893   7.186  18.787  0.00  0.00    +0.000 NA
ATOM      7  H   UNL     1       1.185   9.744  17.849  0.00  0.00    +0.000 HD
ENDROOT
BRANCH   5   8
ATOM      8  C   UNL     1       4.803   5.644  18.553  0.00  0.00    +0.000 A 
ATOM      9  C   UNL     1       4.447   4.412  19.172  0.00  0.00    +0.000 A 
ATOM     10  N   UNL     1       5.554   3.725  19.485  0.00  0.00    +0.000 NA
ATOM     11  O   UNL     1       6.628   4.466  19.019  0.00  0.00    +0.000 OA
ATOM     12  C   UNL     1       6.170   5.607  18.436  0.00  0.00    +0.000 A 
ATOM     13  C   UNL     1       7.194   6.517  17.890  0.00  0.00    +0.000 C 
BRANCH   9  14
ATOM     14  C   UNL     1       3.112   3.843  19.374  0.00  0.00    +0.000 A 
ATOM     15  C   UNL     1       2.445   4.010  20.601  0.00  0.00    +0.000 A 
ATOM     16  C   UNL     1       1.176   3.470  20.812  0.00  0.00    +0.000 A 
ATOM     17  C   UNL     1       0.539   2.786  19.779  0.00  0.00    +0.000 A 
ATOM     18  C   UNL     1       1.172   2.635  18.545  0.00  0.00    +0.000 A 
ATOM     19  C   UNL     1       2.455   3.161  18.345  0.00  0.00    +0.000 A 
ENDBRANCH   9  14
ENDBRANCH   5   8
BRANCH   1  20
ATOM     20  C   UNL     1       1.183   9.172  19.837  0.00  0.00    +0.000 C 
BRANCH  20  25
ATOM     21  C   UNL     1      -1.097  11.807  21.486  0.00  0.00    +0.000 A 
ATOM     22  C   UNL     1      -1.830  12.222  20.364  0.00  0.00    +0.000 A 
ATOM     23  C   UNL     1      -1.673  11.589  19.138  0.00  0.00    +0.000 A 
ATOM     24  C   UNL     1      -0.704  10.604  18.994  0.00  0.00    +0.000 A 
ATOM     25  C   UNL     1       0.124  10.239  20.071  0.00  0.00    +0.000 A 
ATOM     26  C   UNL     1      -0.089  10.829  21.340  0.00  0.00    +0.000 A 
BRANCH  21  28
ATOM     27  C   UNL     1      -2.639  12.038  23.272  0.00  0.00    +0.000 C 
ATOM     28  O   UNL     1      -1.357  12.349  22.720  0.00  0.00    +0.000 OA
ENDBRANCH  21  28
BRANCH  26  29
ATOM     29  O   UNL     1       0.698  10.304  22.334  0.00  0.00    +0.000 OA
ATOM     30  C   UNL     1       0.131   9.433  23.300  0.00  0.00    +0.000 C 
ENDBRANCH  26  29
ENDBRANCH  20  25
ENDBRANCH   1  20
TORSDOF 6
ENDMDL
MODEL 3
REMARK VINA RESULT:      -8.0      2.120      8.767
REMARK  Name = 
REMARK  9 active torsions:
REMARK  status: ('A' for Active; 'I' for Inactive)
REMARK    1  A    between atoms: C_1  and  O_2
REMARK    2  A    between atoms: O_2  and  C_3
REMARK    3  A    between atoms: C_7  and  C_8
REMARK    4  A    between atoms: C_8  and  N_9
REMARK    5  A    between atoms: C_13  and  C_14
REMARK    6  A    between atoms: C_15  and  C_16
REMARK    7  A    between atoms: C_24  and  C_25
REMARK    8  A    between atoms: C_27  and  O_28
REMARK    9  A    between atoms: O_28  and  C_29
REMARK                            x       y       z     vdW  Elec       q    Type
REMARK                         _______ _______ _______ _____ _____    ______ ____
ROOT
ATOM      1  N   UNL     1       1.374   7.633  21.098  0.00  0.00    +0.000 N 
ATOM      2  C   UNL     1       1.107   8.947  21.225  0.00  0.00    +0.000 A 
ATOM      3  N   UNL     1       0.934   9.593  22.382  0.00  0.00    +0.000 NA
ATOM      4  O   UNL     1       0.806  10.926  21.998  0.00  0.00    +0.000 OA
ATOM      5  C   UNL     1       0.831  10.943  20.629  0.00  0.00    +0.000 A 
ATOM      6  N   UNL     1       1.013   9.742  20.124  0.00  0.00    +0.000 NA
ATOM      7  H   UNL     1       1.639   7.184  21.969  0.00  0.00    +0.000 HD
ENDROOT
BRANCH   5   8
ATOM      8  C   UNL     1       0.654  12.162  19.813  0.00  0.00    +0.000 A 
ATOM      9  C   UNL     1      -0.321  12.432  18.812  0.00  0.00    +0.000 A 
ATOM     10  N   UNL     1      -0.088  13.634  18.265  0.00  0.00    +0.000 NA
ATOM     11  O   UNL     1       0.990  14.178  18.943  0.00  0.00    +0.000 OA
ATOM     12  C   UNL     1       1.417  13.300  19.891  0.00  0.00    +0.000 A 
ATOM     13  C   UNL     1       2.572  13.726  20.704  0.00  0.00    +0.000 C 
BRANCH   9  14
ATOM     14  C   UNL     1      -1.499  11.641  18.444  0.00  0.00    +0.000 A 
ATOM     15  C   UNL     1      -2.784  12.048  18.845  0.00  0.00    +0.000 A 
ATOM     16  C   UNL     1      -3.915  11.305  18.508  0.00  0.00    +0.000 A 
ATOM     17  C   UNL     1      -3.777  10.159  17.727  0.00  0.00    +0.000 A 
ATOM     18  C   UNL     1      -2.513   9.755  17.294  0.00  0.00    +0.000 A 
ATOM     19  C   UNL     1      -1.378  10.494  17.654  0.00  0.00    +0.000 A 
ENDBRANCH   9  14
ENDBRANCH   5   8
BRANCH   1  20
ATOM     20  C   UNL     1       2.192   7.181  19.976  0.00  0.00    +0.000 C 
BRANCH  20  25
ATOM     21  C   UNL     1       2.783   3.551  18.819  0.00  0.00    +0.000 A 
ATOM     22  C   UNL     1       1.989   2.872  19.756  0.00  0.00    +0.000 A 
ATOM     23  C   UNL     1       1.198   3.571  20.658  0.00  0.00    +0.000 A 
ATOM     24  C   UNL     1       1.272   4.957  20.705  0.00  0.00    +0.000 A 
ATOM     25  C   UNL     1       2.141   5.665  19.854  0.00  0.00    +0.000 A 
ATOM     26  C   UNL     1       2.887   4.958  18.881  0.00  0.00    +0.000 A 
BRANCH  21  28
ATOM     27  C   UNL     1       3.650   1.461  18.112  0.00  0.00    +0.000 C 
ATOM     28  O   UNL     1       3.455   2.853  17.847  0.00  0.00    +0.000 OA
ENDBRANCH  21  28
BRANCH  26  29
ATOM     29  O   UNL     1       3.601   5.768  18.035  0.00  0.00    +0.000 OA
ATOM     30  C   UNL     1       5.015   5.828  18.139  0.00  0.00    +0.000 C 
ENDBRANCH  26  29
ENDBRANCH  20  25
ENDBRANCH   1  20
TORSDOF 6
ENDMDL
MODEL 4
REMARK VINA RESULT:      -7.9      2.156      4.124
REMARK  Name = 
REMARK  9 active torsions:
REMARK  status: ('A' for Active; 'I' for Inactive)
REMARK    1  A    between atoms: C_1  and  O_2
REMARK    2  A    between atoms: O_2  and  C_3
REMARK    3  A    between atoms: C_7  and  C_8
REMARK    4  A    between atoms: C_8  and  N_9
REMARK    5  A    between atoms: C_13  and  C_14
REMARK    6  A    between atoms: C_15  and  C_16
REMARK    7  A    between atoms: C_24  and  C_25
REMARK    8  A    between atoms: C_27  and  O_28
REMARK    9  A    between atoms: O_28  and  C_29
REMARK                            x       y       z     vdW  Elec       q    Type
REMARK                         _______ _______ _______ _____ _____    ______ ____
ROOT
ATOM      1  N   UNL     1       1.027   9.034  19.536  0.00  0.00    +0.000 N 
ATOM      2  C   UNL     1       1.929   8.395  18.768  0.00  0.00    +0.000 A 
ATOM      3  N   UNL     1       2.236   8.715  17.507  0.00  0.00    +0.000 NA
ATOM      4  O   UNL     1       3.286   7.854  17.196  0.00  0.00    +0.000 OA
ATOM      5  C   UNL     1       3.455   7.034  18.279  0.00  0.00    +0.000 A 
ATOM      6  N   UNL     1       2.634   7.340  19.262  0.00  0.00    +0.000 NA
ATOM      7  H   UNL     1       0.724   9.925  19.156  0.00  0.00    +0.000 HD
ENDROOT
BRANCH   5   8
ATOM      8  C   UNL     1       4.428   5.925  18.334  0.00  0.00    +0.000 A 
ATOM      9  C   UNL     1       4.240   4.595  18.808  0.00  0.00    +0.000 A 
ATOM     10  N   UNL     1       5.399   3.924  18.745  0.00  0.00    +0.000 NA
ATOM     11  O   UNL     1       6.326   4.781  18.176  0.00  0.00    +0.000 OA
ATOM     12  C   UNL     1       5.731   5.975  17.906  0.00  0.00    +0.000 A 
ATOM     13  C   UNL     1       6.589   7.010  17.300  0.00  0.00    +0.000 C 
BRANCH   9  14
ATOM     14  C   UNL     1       2.996   3.935  19.211  0.00  0.00    +0.000 A 
ATOM     15  C   UNL     1       2.548   4.011  20.542  0.00  0.00    +0.000 A 
ATOM     16  C   UNL     1       1.368   3.384  20.943  0.00  0.00    +0.000 A 
ATOM     17  C   UNL     1       0.598   2.702  20.004  0.00  0.00    +0.000 A 
ATOM     18  C   UNL     1       1.010   2.640  18.672  0.00  0.00    +0.000 A 
ATOM     19  C   UNL     1       2.206   3.254  18.279  0.00  0.00    +0.000 A 
ENDBRANCH   9  14
ENDBRANCH   5   8
BRANCH   1  20
ATOM     20  C   UNL     1       1.243   9.097  20.980  0.00  0.00    +0.000 C 
BRANCH  20  25
ATOM     21  C   UNL     1      -0.334  12.510  21.831  0.00  0.00    +0.000 A 
ATOM     22  C   UNL     1      -1.270  12.105  22.795  0.00  0.00    +0.000 A 
ATOM     23  C   UNL     1      -1.310  10.789  23.239  0.00  0.00    +0.000 A 
ATOM     24  C   UNL     1      -0.486   9.840  22.647  0.00  0.00    +0.000 A 
ATOM     25  C   UNL     1       0.387  10.191  21.601  0.00  0.00    +0.000 A 
ATOM     26  C   UNL     1       0.485  11.546  21.204  0.00  0.00    +0.000 A 
BRANCH  21  28
ATOM     27  C   UNL     1      -0.456  14.762  22.562  0.00  0.00    +0.000 C 
ATOM     28  O   UNL     1      -0.214  13.836  21.499  0.00  0.00    +0.000 OA
ENDBRANCH  21  28
BRANCH  26  29
ATOM     29  O   UNL     1       1.456  11.778  20.262  0.00  0.00    +0.000 OA
ATOM     30  C   UNL     1       1.101  12.327  19.002  0.00  0.00    +0.000 C 
ENDBRANCH  26  29
ENDBRANCH  20  25
ENDBRANCH   1  20
TORSDOF 6
ENDMDL
MODEL 5
REMARK VINA RESULT:      -7.9      2.374      8.750
REMARK  Name = 
REMARK  9 active torsions:
REMARK  status: ('A' for Active; 'I' for Inactive)
REMARK    1  A    between atoms: C_1  and  O_2
REMARK    2  A    between atoms: O_2  and  C_3
REMARK    3  A    between atoms: C_7  and  C_8
REMARK    4  A    between atoms: C_8  and  N_9
REMARK    5  A    between atoms: C_13  and  C_14
REMARK    6  A    between atoms: C_15  and  C_16
REMARK    7  A    between atoms: C_24  and  C_25
REMARK    8  A    between atoms: C_27  and  O_28
REMARK    9  A    between atoms: O_28  and  C_29
REMARK                            x       y       z     vdW  Elec       q    Type
REMARK                         _______ _______ _______ _____ _____    ______ ____
ROOT
ATOM      1  N   UNL     1       1.292   7.639  21.186  0.00  0.00    +0.000 N 
ATOM      2  C   UNL     1       1.041   8.958  21.289  0.00  0.00    +0.000 A 
ATOM      3  N   UNL     1       0.836   9.620  22.432  0.00  0.00    +0.000 NA
ATOM      4  O   UNL     1       0.743  10.951  22.029  0.00  0.00    +0.000 OA
ATOM      5  C   UNL     1       0.815  10.951  20.662  0.00  0.00    +0.000 A 
ATOM      6  N   UNL     1       0.996   9.742  20.177  0.00  0.00    +0.000 NA
ATOM      7  H   UNL     1       1.519   7.196  22.071  0.00  0.00    +0.000 HD
ENDROOT
BRANCH   5   8
ATOM      8  C   UNL     1       0.686  12.163  19.827  0.00  0.00    +0.000 A 
ATOM      9  C   UNL     1      -0.253  12.437  18.792  0.00  0.00    +0.000 A 
ATOM     10  N   UNL     1       0.018  13.628  18.239  0.00  0.00    +0.000 NA
ATOM     11  O   UNL     1       1.084  14.162  18.944  0.00  0.00    +0.000 OA
ATOM     12  C   UNL     1       1.465  13.288  19.916  0.00  0.00    +0.000 A 
ATOM     13  C   UNL     1       2.601  13.705  20.760  0.00  0.00    +0.000 C 
BRANCH   9  14
ATOM     14  C   UNL     1      -1.431  11.662  18.396  0.00  0.00    +0.000 A 
ATOM     15  C   UNL     1      -1.290  10.497  17.621  0.00  0.00    +0.000 A 
ATOM     16  C   UNL     1      -2.401   9.749  17.231  0.00  0.00    +0.000 A 
ATOM     17  C   UNL     1      -3.672  10.140  17.647  0.00  0.00    +0.000 A 
ATOM     18  C   UNL     1      -3.831  11.276  18.441  0.00  0.00    +0.000 A 
ATOM     19  C   UNL     1      -2.713  12.035  18.812  0.00  0.00    +0.000 A 
ENDBRANCH   9  14
ENDBRANCH   5   8
BRANCH   1  20
ATOM     20  C   UNL     1       2.142   7.162  20.098  0.00  0.00    +0.000 C 
BRANCH  20  25
ATOM     21  C   UNL     1       3.254   3.515  19.524  0.00  0.00    +0.000 A 
ATOM     22  C   UNL     1       2.216   2.844  20.189  0.00  0.00    +0.000 A 
ATOM     23  C   UNL     1       1.132   3.542  20.706  0.00  0.00    +0.000 A 
ATOM     24  C   UNL     1       1.125   4.931  20.657  0.00  0.00    +0.000 A 
ATOM     25  C   UNL     1       2.202   5.641  20.095  0.00  0.00    +0.000 A 
ATOM     26  C   UNL     1       3.269   4.927  19.499  0.00  0.00    +0.000 A 
BRANCH  21  28
ATOM     27  C   UNL     1       3.881   2.175  17.673  0.00  0.00    +0.000 C 
ATOM     28  O   UNL     1       4.249   2.805  18.902  0.00  0.00    +0.000 OA
ENDBRANCH  21  28
BRANCH  26  29
ATOM     29  O   UNL     1       4.194   5.729  18.880  0.00  0.00    +0.000 OA
ATOM     30  C   UNL     1       4.121   5.941  17.479  0.00  0.00    +0.000 C 
ENDBRANCH  26  29
ENDBRANCH  20  25
ENDBRANCH   1  20
TORSDOF 6
ENDMDL
MODEL 6
REMARK VINA RESULT:      -7.8      2.091      2.557
REMARK  Name = 
REMARK  9 active torsions:
REMARK  status: ('A' for Active; 'I' for Inactive)
REMARK    1  A    between atoms: C_1  and  O_2
REMARK    2  A    between atoms: O_2  and  C_3
REMARK    3  A    between atoms: C_7  and  C_8
REMARK    4  A    between atoms: C_8  and  N_9
REMARK    5  A    between atoms: C_13  and  C_14
REMARK    6  A    between atoms: C_15  and  C_16
REMARK    7  A    between atoms: C_24  and  C_25
REMARK    8  A    between atoms: C_27  and  O_28
REMARK    9  A    between atoms: O_28  and  C_29
REMARK                            x       y       z     vdW  Elec       q    Type
REMARK                         _______ _______ _______ _____ _____    ______ ____
ROOT
ATOM      1  N   UNL     1       1.359   9.298  18.650  0.00  0.00    +0.000 N 
ATOM      2  C   UNL     1       2.177   8.278  18.331  0.00  0.00    +0.000 A 
ATOM      3  N   UNL     1       3.103   8.300  17.367  0.00  0.00    +0.000 NA
ATOM      4  O   UNL     1       3.754   7.077  17.508  0.00  0.00    +0.000 OA
ATOM      5  C   UNL     1       3.097   6.395  18.496  0.00  0.00    +0.000 A 
ATOM      6  N   UNL     1       2.121   7.105  19.021  0.00  0.00    +0.000 NA
ATOM      7  H   UNL     1       1.628  10.183  18.232  0.00  0.00    +0.000 HD
ENDROOT
BRANCH   5   8
ATOM      8  C   UNL     1       3.428   5.017  18.912  0.00  0.00    +0.000 A 
ATOM      9  C   UNL     1       4.303   4.082  18.290  0.00  0.00    +0.000 A 
ATOM     10  N   UNL     1       4.269   2.918  18.953  0.00  0.00    +0.000 NA
ATOM     11  O   UNL     1       3.430   3.102  20.039  0.00  0.00    +0.000 OA
ATOM     12  C   UNL     1       2.947   4.375  20.026  0.00  0.00    +0.000 A 
ATOM     13  C   UNL     1       2.026   4.735  21.119  0.00  0.00    +0.000 C 
BRANCH   9  14
ATOM     14  C   UNL     1       5.225   4.296  17.170  0.00  0.00    +0.000 A 
ATOM     15  C   UNL     1       6.567   4.642  17.409  0.00  0.00    +0.000 A 
ATOM     16  C   UNL     1       7.456   4.854  16.355  0.00  0.00    +0.000 A 
ATOM     17  C   UNL     1       7.020   4.684  15.042  0.00  0.00    +0.000 A 
ATOM     18  C   UNL     1       5.700   4.311  14.786  0.00  0.00    +0.000 A 
ATOM     19  C   UNL     1       4.805   4.120  15.848  0.00  0.00    +0.000 A 
ENDBRANCH   9  14
ENDBRANCH   5   8
BRANCH   1  20
ATOM     20  C   UNL     1       0.926   9.453  20.037  0.00  0.00    +0.000 C 
BRANCH  20  25
ATOM     21  C   UNL     1      -1.517  12.115  21.380  0.00  0.00    +0.000 A 
ATOM     22  C   UNL     1      -2.188  12.442  20.192  0.00  0.00    +0.000 A 
ATOM     23  C   UNL     1      -1.938  11.743  19.018  0.00  0.00    +0.000 A 
ATOM     24  C   UNL     1      -0.937  10.779  18.993  0.00  0.00    +0.000 A 
ATOM     25  C   UNL     1      -0.170  10.502  20.140  0.00  0.00    +0.000 A 
ATOM     26  C   UNL     1      -0.479  11.159  21.356  0.00  0.00    +0.000 A 
BRANCH  21  28
ATOM     27  C   UNL     1      -3.134  12.332  23.100  0.00  0.00    +0.000 C 
ATOM     28  O   UNL     1      -1.868  12.720  22.561  0.00  0.00    +0.000 OA
ENDBRANCH  21  28
BRANCH  26  29
ATOM     29  O   UNL     1       0.257  10.716  22.426  0.00  0.00    +0.000 OA
ATOM     30  C   UNL     1      -0.269   9.711  23.279  0.00  0.00    +0.000 C 
ENDBRANCH  26  29
ENDBRANCH  20  25
ENDBRANCH   1  20
TORSDOF 6
ENDMDL
MODEL 7
REMARK VINA RESULT:      -7.8      0.905      2.094
REMARK  Name = 
REMARK  9 active torsions:
REMARK  status: ('A' for Active; 'I' for Inactive)
REMARK    1  A    between atoms: C_1  and  O_2
REMARK    2  A    between atoms: O_2  and  C_3
REMARK    3  A    between atoms: C_7  and  C_8
REMARK    4  A    between atoms: C_8  and  N_9
REMARK    5  A    between atoms: C_13  and  C_14
REMARK    6  A    between atoms: C_15  and  C_16
REMARK    7  A    between atoms: C_24  and  C_25
REMARK    8  A    between atoms: C_27  and  O_28
REMARK    9  A    between atoms: O_28  and  C_29
REMARK                            x       y       z     vdW  Elec       q    Type
REMARK                         _______ _______ _______ _____ _____    ______ ____
ROOT
ATOM      1  N   UNL     1       1.727   8.859  19.744  0.00  0.00    +0.000 N 
ATOM      2  C   UNL     1       1.909   7.531  19.869  0.00  0.00    +0.000 A 
ATOM      3  N   UNL     1       1.540   6.794  20.921  0.00  0.00    +0.000 NA
ATOM      4  O   UNL     1       1.830   5.489  20.528  0.00  0.00    +0.000 OA
ATOM      5  C   UNL     1       2.429   5.575  19.299  0.00  0.00    +0.000 A 
ATOM      6  N   UNL     1       2.494   6.817  18.868  0.00  0.00    +0.000 NA
ATOM      7  H   UNL     1       1.095   9.251  20.435  0.00  0.00    +0.000 HD
ENDROOT
BRANCH   5   8
ATOM      8  C   UNL     1       2.958   4.415  18.554  0.00  0.00    +0.000 A 
ATOM      9  C   UNL     1       4.230   4.258  17.932  0.00  0.00    +0.000 A 
ATOM     10  N   UNL     1       4.283   3.076  17.302  0.00  0.00    +0.000 NA
ATOM     11  O   UNL     1       3.084   2.432  17.560  0.00  0.00    +0.000 OA
ATOM     12  C   UNL     1       2.300   3.231  18.335  0.00  0.00    +0.000 A 
ATOM     13  C   UNL     1       0.976   2.693  18.697  0.00  0.00    +0.000 C 
BRANCH   9  14
ATOM     14  C   UNL     1       5.400   5.137  18.007  0.00  0.00    +0.000 A 
ATOM     15  C   UNL     1       5.556   6.194  17.093  0.00  0.00    +0.000 A 
ATOM     16  C   UNL     1       6.666   7.037  17.147  0.00  0.00    +0.000 A 
ATOM     17  C   UNL     1       7.620   6.855  18.147  0.00  0.00    +0.000 A 
ATOM     18  C   UNL     1       7.468   5.830  19.081  0.00  0.00    +0.000 A 
ATOM     19  C   UNL     1       6.361   4.973  19.009  0.00  0.00    +0.000 A 
ENDBRANCH   9  14
ENDBRANCH   5   8
BRANCH   1  20
ATOM     20  C   UNL     1       1.506   9.423  18.415  0.00  0.00    +0.000 C 
BRANCH  20  25
ATOM     21  C   UNL     1      -0.013  12.921  18.977  0.00  0.00    +0.000 A 
ATOM     22  C   UNL     1       1.095  13.716  18.645  0.00  0.00    +0.000 A 
ATOM     23  C   UNL     1       2.257  13.144  18.145  0.00  0.00    +0.000 A 
ATOM     24  C   UNL     1       2.364  11.761  18.071  0.00  0.00    +0.000 A 
ATOM     25  C   UNL     1       1.313  10.929  18.499  0.00  0.00    +0.000 A 
ATOM     26  C   UNL     1       0.099  11.514  18.934  0.00  0.00    +0.000 A 
BRANCH  21  28
ATOM     27  C   UNL     1      -1.264  13.978  20.691  0.00  0.00    +0.000 C 
ATOM     28  O   UNL     1      -1.199  13.506  19.343  0.00  0.00    +0.000 OA
ENDBRANCH  21  28
BRANCH  26  29
ATOM     29  O   UNL     1      -0.888  10.601  19.208  0.00  0.00    +0.000 OA
ATOM     30  C   UNL     1      -1.910  10.359  18.255  0.00  0.00    +0.000 C 
ENDBRANCH  26  29
ENDBRANCH  20  25
ENDBRANCH   1  20
TORSDOF 6
ENDMDL
MODEL 8
REMARK VINA RESULT:      -7.7      2.104      2.665
REMARK  Name = 
REMARK  9 active torsions:
REMARK  status: ('A' for Active; 'I' for Inactive)
REMARK    1  A    between atoms: C_1  and  O_2
REMARK    2  A    between atoms: O_2  and  C_3
REMARK    3  A    between atoms: C_7  and  C_8
REMARK    4  A    between atoms: C_8  and  N_9
REMARK    5  A    between atoms: C_13  and  C_14
REMARK    6  A    between atoms: C_15  and  C_16
REMARK    7  A    between atoms: C_24  and  C_25
REMARK    8  A    between atoms: C_27  and  O_28
REMARK    9  A    between atoms: O_28  and  C_29
REMARK                            x       y       z     vdW  Elec       q    Type
REMARK                         _______ _______ _______ _____ _____    ______ ____
ROOT
ATOM      1  N   UNL     1       1.415   9.328  18.644  0.00  0.00    +0.000 N 
ATOM      2  C   UNL     1       2.202   8.288  18.312  0.00  0.00    +0.000 A 
ATOM      3  N   UNL     1       3.103   8.283  17.324  0.00  0.00    +0.000 NA
ATOM      4  O   UNL     1       3.731   7.047  17.458  0.00  0.00    +0.000 OA
ATOM      5  C   UNL     1       3.085   6.387  18.469  0.00  0.00    +0.000 A 
ATOM      6  N   UNL     1       2.139   7.122  19.013  0.00  0.00    +0.000 NA
ATOM      7  H   UNL     1       1.692  10.204  18.212  0.00  0.00    +0.000 HD
ENDROOT
BRANCH   5   8
ATOM      8  C   UNL     1       3.397   5.005  18.888  0.00  0.00    +0.000 A 
ATOM      9  C   UNL     1       4.277   4.065  18.279  0.00  0.00    +0.000 A 
ATOM     10  N   UNL     1       4.221   2.900  18.939  0.00  0.00    +0.000 NA
ATOM     11  O   UNL     1       3.362   3.088  20.009  0.00  0.00    +0.000 OA
ATOM     12  C   UNL     1       2.889   4.364  19.989  0.00  0.00    +0.000 A 
ATOM     13  C   UNL     1       1.949   4.729  21.065  0.00  0.00    +0.000 C 
BRANCH   9  14
ATOM     14  C   UNL     1       5.222   4.275  17.179  0.00  0.00    +0.000 A 
ATOM     15  C   UNL     1       4.816   4.085  15.846  0.00  0.00    +0.000 A 
ATOM     16  C   UNL     1       5.703   4.277  14.787  0.00  0.00    +0.000 A 
ATOM     17  C   UNL     1       7.005   4.699  15.048  0.00  0.00    +0.000 A 
ATOM     18  C   UNL     1       7.418   4.922  16.362  0.00  0.00    +0.000 A 
ATOM     19  C   UNL     1       6.529   4.708  17.423  0.00  0.00    +0.000 A 
ENDBRANCH   9  14
ENDBRANCH   5   8
BRANCH   1  20
ATOM     20  C   UNL     1       1.022   9.503  20.040  0.00  0.00    +0.000 C 
BRANCH  20  25
ATOM     21  C   UNL     1      -1.539  12.033  21.419  0.00  0.00    +0.000 A 
ATOM     22  C   UNL     1      -2.187  12.389  20.226  0.00  0.00    +0.000 A 
ATOM     23  C   UNL     1      -1.883  11.747  19.032  0.00  0.00    +0.000 A 
ATOM     24  C   UNL     1      -0.853  10.815  18.998  0.00  0.00    +0.000 A 
ATOM     25  C   UNL     1      -0.109  10.514  20.154  0.00  0.00    +0.000 A 
ATOM     26  C   UNL     1      -0.471  11.110  21.386  0.00  0.00    +0.000 A 
BRANCH  21  28
ATOM     27  C   UNL     1      -1.189  13.711  23.056  0.00  0.00    +0.000 C 
ATOM     28  O   UNL     1      -1.941  12.579  22.612  0.00  0.00    +0.000 OA
ENDBRANCH  21  28
BRANCH  26  29
ATOM     29  O   UNL     1       0.249  10.646  22.458  0.00  0.00    +0.000 OA
ATOM     30  C   UNL     1      -0.317   9.671  23.320  0.00  0.00    +0.000 C 
ENDBRANCH  26  29
ENDBRANCH  20  25
ENDBRANCH   1  20
TORSDOF 6
ENDMDL
MODEL 9
REMARK VINA RESULT:      -7.6      2.179      2.898
REMARK  Name = 
REMARK  9 active torsions:
REMARK  status: ('A' for Active; 'I' for Inactive)
REMARK    1  A    between atoms: C_1  and  O_2
REMARK    2  A    between atoms: O_2  and  C_3
REMARK    3  A    between atoms: C_7  and  C_8
REMARK    4  A    between atoms: C_8  and  N_9
REMARK    5  A    between atoms: C_13  and  C_14
REMARK    6  A    between atoms: C_15  and  C_16
REMARK    7  A    between atoms: C_24  and  C_25
REMARK    8  A    between atoms: C_27  and  O_28
REMARK    9  A    between atoms: O_28  and  C_29
REMARK                            x       y       z     vdW  Elec       q    Type
REMARK                         _______ _______ _______ _____ _____    ______ ____
ROOT
ATOM      1  N   UNL     1       1.392   8.847  19.807  0.00  0.00    +0.000 N 
ATOM      2  C   UNL     1       2.014   7.807  19.221  0.00  0.00    +0.000 A 
ATOM      3  N   UNL     1       2.536   7.811  17.990  0.00  0.00    +0.000 NA
ATOM      4  O   UNL     1       3.161   6.570  17.894  0.00  0.00    +0.000 OA
ATOM      5  C   UNL     1       2.880   5.899  19.054  0.00  0.00    +0.000 A 
ATOM      6  N   UNL     1       2.175   6.632  19.889  0.00  0.00    +0.000 NA
ATOM      7  H   UNL     1       1.518   9.728  19.318  0.00  0.00    +0.000 HD
ENDROOT
BRANCH   5   8
ATOM      8  C   UNL     1       3.299   4.510  19.329  0.00  0.00    +0.000 A 
ATOM      9  C   UNL     1       4.268   3.719  18.649  0.00  0.00    +0.000 A 
ATOM     10  N   UNL     1       4.297   2.486  19.176  0.00  0.00    +0.000 NA
ATOM     11  O   UNL     1       3.402   2.483  20.233  0.00  0.00    +0.000 OA
ATOM     12  C   UNL     1       2.824   3.711  20.338  0.00  0.00    +0.000 A 
ATOM     13  C   UNL     1       1.833   3.876  21.419  0.00  0.00    +0.000 C 
BRANCH   9  14
ATOM     14  C   UNL     1       5.215   4.126  17.608  0.00  0.00    +0.000 A 
ATOM     15  C   UNL     1       4.867   4.023  16.249  0.00  0.00    +0.000 A 
ATOM     16  C   UNL     1       5.757   4.402  15.245  0.00  0.00    +0.000 A 
ATOM     17  C   UNL     1       7.000   4.928  15.591  0.00  0.00    +0.000 A 
ATOM     18  C   UNL     1       7.353   5.066  16.934  0.00  0.00    +0.000 A 
ATOM     19  C   UNL     1       6.463   4.664  17.938  0.00  0.00    +0.000 A 
ENDBRANCH   9  14
ENDBRANCH   5   8
BRANCH   1  20
ATOM     20  C   UNL     1       1.486   9.004  21.256  0.00  0.00    +0.000 C 
BRANCH  20  25
ATOM     21  C   UNL     1      -0.398  12.336  21.723  0.00  0.00    +0.000 A 
ATOM     22  C   UNL     1      -1.335  11.944  22.692  0.00  0.00    +0.000 A 
ATOM     23  C   UNL     1      -1.285  10.677  23.259  0.00  0.00    +0.000 A 
ATOM     24  C   UNL     1      -0.363   9.750  22.788  0.00  0.00    +0.000 A 
ATOM     25  C   UNL     1       0.520  10.075  21.741  0.00  0.00    +0.000 A 
ATOM     26  C   UNL     1       0.522  11.390  21.218  0.00  0.00    +0.000 A 
BRANCH  21  28
ATOM     27  C   UNL     1       0.474  14.523  21.996  0.00  0.00    +0.000 C 
ATOM     28  O   UNL     1      -0.373  13.630  21.269  0.00  0.00    +0.000 OA
ENDBRANCH  21  28
BRANCH  26  29
ATOM     29  O   UNL     1       1.507  11.615  20.290  0.00  0.00    +0.000 OA
ATOM     30  C   UNL     1       1.162  12.064  18.989  0.00  0.00    +0.000 C 
ENDBRANCH  26  29
ENDBRANCH  20  25
ENDBRANCH   1  20
TORSDOF 6
ENDMDL
