MODEL 1
REMARK VINA RESULT:      -6.1      0.000      0.000
REMARK  Name = 
REMARK  2 active torsions:
REMARK  status: ('A' for Active; 'I' for Inactive)
REMARK    1  A    between atoms: N_2  and  C_4
REMARK    2  A    between atoms: C_5  and  C_6
REMARK                            x       y       z     vdW  Elec       q    Type
REMARK                         _______ _______ _______ _____ _____    ______ ____
ROOT
ATOM      1  C   UNL     1       4.043   4.189  18.272  0.00  0.00    +0.000 A 
ATOM      2  C   UNL     1       2.994   4.448  17.377  0.00  0.00    +0.000 A 
ATOM      3  C   UNL     1       1.664   4.246  17.753  0.00  0.00    +0.000 A 
ATOM      4  C   UNL     1       1.367   3.765  19.026  0.00  0.00    +0.000 A 
ATOM      5  C   UNL     1       2.402   3.478  19.911  0.00  0.00    +0.000 A 
ATOM      6 BR   UNL     1       1.998   2.811  21.634  0.00  0.00    +0.000 Br
ATOM      7  C   UNL     1       3.735   3.680  19.542  0.00  0.00    +0.000 A 
ENDROOT
BRANCH   1   9
ATOM      8  C   UNL     1       5.857   4.509  16.633  0.00  0.00    +0.000 C 
ATOM      9  C   UNL     1       5.454   4.396  17.907  0.00  0.00    +0.000 C 
BRANCH   8  11
ATOM     10  O   UNL     1       8.052   4.221  17.130  0.00  0.00    +0.000 OA
ATOM     11  N   UNL     1       7.251   4.714  16.326  0.00  0.00    +0.000 N 
ATOM     12  O   UNL     1       7.556   5.352  15.311  0.00  0.00    +0.000 OA
ENDBRANCH   8  11
ENDBRANCH   1   9
TORSDOF 2
ENDMDL
MODEL 2
REMARK VINA RESULT:      -5.8      1.824      2.201
REMARK  Name = 
REMARK  2 active torsions:
REMARK  status: ('A' for Active; 'I' for Inactive)
REMARK    1  A    between atoms: N_2  and  C_4
REMARK    2  A    between atoms: C_5  and  C_6
REMARK                            x       y       z     vdW  Elec       q    Type
REMARK                         _______ _______ _______ _____ _____    ______ ____
ROOT
ATOM      1  C   UNL     1       4.141   4.566  16.949  0.00  0.00    +0.000 A 
ATOM      2  C   UNL     1       3.996   5.858  17.475  0.00  0.00    +0.000 A 
ATOM      3  C   UNL     1       2.997   6.143  18.409  0.00  0.00    +0.000 A 
ATOM      4  C   UNL     1       2.118   5.142  18.815  0.00  0.00    +0.000 A 
ATOM      5  C   UNL     1       2.236   3.863  18.276  0.00  0.00    +0.000 A 
ATOM      6 BR   UNL     1       1.033   2.508  18.817  0.00  0.00    +0.000 Br
ATOM      7  C   UNL     1       3.236   3.571  17.344  0.00  0.00    +0.000 A 
ENDROOT
BRANCH   1   9
ATOM      8  C   UNL     1       5.720   5.149  15.147  0.00  0.00    +0.000 C 
ATOM      9  C   UNL     1       5.187   4.232  15.968  0.00  0.00    +0.000 C 
BRANCH   8  11
ATOM     10  O   UNL     1       7.784   5.445  14.251  0.00  0.00    +0.000 OA
ATOM     11  N   UNL     1       6.745   4.774  14.204  0.00  0.00    +0.000 N 
ATOM     12  O   UNL     1       6.533   3.835  13.427  0.00  0.00    +0.000 OA
ENDBRANCH   8  11
ENDBRANCH   1   9
TORSDOF 2
ENDMDL
MODEL 3
REMARK VINA RESULT:      -5.7      1.308      1.658
REMARK  Name = 
REMARK  2 active torsions:
REMARK  status: ('A' for Active; 'I' for Inactive)
REMARK    1  A    between atoms: N_2  and  C_4
REMARK    2  A    between atoms: C_5  and  C_6
REMARK                            x       y       z     vdW  Elec       q    Type
REMARK                         _______ _______ _______ _____ _____    ______ ____
ROOT
ATOM      1  C   UNL     1       4.176   4.637  18.961  0.00  0.00    +0.000 A 
ATOM      2  C   UNL     1       3.651   5.935  18.879  0.00  0.00    +0.000 A 
ATOM      3  C   UNL     1       2.508   6.292  19.599  0.00  0.00    +0.000 A 
ATOM      4  C   UNL     1       1.865   5.349  20.395  0.00  0.00    +0.000 A 
ATOM      5  C   UNL     1       2.362   4.050  20.460  0.00  0.00    +0.000 A 
ATOM      6 BR   UNL     1       1.479   2.765  21.531  0.00  0.00    +0.000 Br
ATOM      7  C   UNL     1       3.506   3.687  19.745  0.00  0.00    +0.000 A 
ENDROOT
BRANCH   1   9
ATOM      8  C   UNL     1       6.330   5.107  17.857  0.00  0.00    +0.000 C 
ATOM      9  C   UNL     1       5.381   4.231  18.219  0.00  0.00    +0.000 C 
BRANCH   8  11
ATOM     10  O   UNL     1       7.493   4.900  15.920  0.00  0.00    +0.000 OA
ATOM     11  N   UNL     1       7.495   4.660  17.133  0.00  0.00    +0.000 N 
ATOM     12  O   UNL     1       8.398   4.079  17.748  0.00  0.00    +0.000 OA
ENDBRANCH   8  11
ENDBRANCH   1   9
TORSDOF 2
ENDMDL
MODEL 4
REMARK VINA RESULT:      -5.6      2.008      2.511
REMARK  Name = 
REMARK  2 active torsions:
REMARK  status: ('A' for Active; 'I' for Inactive)
REMARK    1  A    between atoms: N_2  and  C_4
REMARK    2  A    between atoms: C_5  and  C_6
REMARK                            x       y       z     vdW  Elec       q    Type
REMARK                         _______ _______ _______ _____ _____    ______ ____
ROOT
ATOM      1  C   UNL     1       4.431   5.521  16.855  0.00  0.00    +0.000 A 
ATOM      2  C   UNL     1       3.979   6.668  17.525  0.00  0.00    +0.000 A 
ATOM      3  C   UNL     1       2.958   6.586  18.475  0.00  0.00    +0.000 A 
ATOM      4  C   UNL     1       2.363   5.358  18.753  0.00  0.00    +0.000 A 
ATOM      5  C   UNL     1       2.785   4.220  18.072  0.00  0.00    +0.000 A 
ATOM      6 BR   UNL     1       1.967   2.555  18.440  0.00  0.00    +0.000 Br
ATOM      7  C   UNL     1       3.808   4.294  17.123  0.00  0.00    +0.000 A 
ENDROOT
BRANCH   1   9
ATOM      8  C   UNL     1       5.731   4.574  14.986  0.00  0.00    +0.000 C 
ATOM      9  C   UNL     1       5.508   5.573  15.853  0.00  0.00    +0.000 C 
BRANCH   8  11
ATOM     10  O   UNL     1       6.672   3.964  13.014  0.00  0.00    +0.000 OA
ATOM     11  N   UNL     1       6.798   4.673  14.020  0.00  0.00    +0.000 N 
ATOM     12  O   UNL     1       7.746   5.434  14.247  0.00  0.00    +0.000 OA
ENDBRANCH   8  11
ENDBRANCH   1   9
TORSDOF 2
ENDMDL
MODEL 5
REMARK VINA RESULT:      -5.6      4.644      5.465
REMARK  Name = 
REMARK  2 active torsions:
REMARK  status: ('A' for Active; 'I' for Inactive)
REMARK    1  A    between atoms: N_2  and  C_4
REMARK    2  A    between atoms: C_5  and  C_6
REMARK                            x       y       z     vdW  Elec       q    Type
REMARK                         _______ _______ _______ _____ _____    ______ ____
ROOT
ATOM      1  C   UNL     1       3.647   4.689  17.820  0.00  0.00    +0.000 A 
ATOM      2  C   UNL     1       3.717   6.080  17.984  0.00  0.00    +0.000 A 
ATOM      3  C   UNL     1       4.483   6.865  17.119  0.00  0.00    +0.000 A 
ATOM      4  C   UNL     1       5.203   6.266  16.089  0.00  0.00    +0.000 A 
ATOM      5  C   UNL     1       5.162   4.883  15.936  0.00  0.00    +0.000 A 
ATOM      6 BR   UNL     1       6.152   4.069  14.545  0.00  0.00    +0.000 Br
ATOM      7  C   UNL     1       4.396   4.092  16.796  0.00  0.00    +0.000 A 
ENDROOT
BRANCH   1   9
ATOM      8  C   UNL     1       3.038   3.800  20.038  0.00  0.00    +0.000 C 
ATOM      9  C   UNL     1       2.845   3.834  18.711  0.00  0.00    +0.000 C 
BRANCH   8  11
ATOM     10  O   UNL     1       2.701   2.675  21.979  0.00  0.00    +0.000 OA
ATOM     11  N   UNL     1       2.224   2.948  20.870  0.00  0.00    +0.000 N 
ATOM     12  O   UNL     1       1.134   2.552  20.441  0.00  0.00    +0.000 OA
ENDBRANCH   8  11
ENDBRANCH   1   9
TORSDOF 2
ENDMDL
MODEL 6
REMARK VINA RESULT:      -5.6      2.075      2.279
REMARK  Name = 
REMARK  2 active torsions:
REMARK  status: ('A' for Active; 'I' for Inactive)
REMARK    1  A    between atoms: N_2  and  C_4
REMARK    2  A    between atoms: C_5  and  C_6
REMARK                            x       y       z     vdW  Elec       q    Type
REMARK                         _______ _______ _______ _____ _____    ______ ____
ROOT
ATOM      1  C   UNL     1       3.864   4.154  17.075  0.00  0.00    +0.000 A 
ATOM      2  C   UNL     1       2.927   3.128  17.266  0.00  0.00    +0.000 A 
ATOM      3  C   UNL     1       1.817   3.316  18.092  0.00  0.00    +0.000 A 
ATOM      4  C   UNL     1       1.639   4.528  18.753  0.00  0.00    +0.000 A 
ATOM      5  C   UNL     1       2.578   5.543  18.592  0.00  0.00    +0.000 A 
ATOM      6 BR   UNL     1       2.343   7.185  19.501  0.00  0.00    +0.000 Br
ATOM      7  C   UNL     1       3.690   5.363  17.764  0.00  0.00    +0.000 A 
ENDROOT
BRANCH   1   9
ATOM      8  C   UNL     1       5.456   4.951  15.369  0.00  0.00    +0.000 C 
ATOM      9  C   UNL     1       5.041   3.989  16.207  0.00  0.00    +0.000 C 
BRANCH   8  11
ATOM     10  O   UNL     1       7.614   5.412  14.842  0.00  0.00    +0.000 OA
ATOM     11  N   UNL     1       6.618   4.743  14.541  0.00  0.00    +0.000 N 
ATOM     12  O   UNL     1       6.554   3.936  13.606  0.00  0.00    +0.000 OA
ENDBRANCH   8  11
ENDBRANCH   1   9
TORSDOF 2
ENDMDL
MODEL 7
REMARK VINA RESULT:      -5.6      4.830      5.673
REMARK  Name = 
REMARK  2 active torsions:
REMARK  status: ('A' for Active; 'I' for Inactive)
REMARK    1  A    between atoms: N_2  and  C_4
REMARK    2  A    between atoms: C_5  and  C_6
REMARK                            x       y       z     vdW  Elec       q    Type
REMARK                         _______ _______ _______ _____ _____    ______ ____
ROOT
ATOM      1  C   UNL     1       3.448   4.651  17.420  0.00  0.00    +0.000 A 
ATOM      2  C   UNL     1       3.494   5.995  17.817  0.00  0.00    +0.000 A 
ATOM      3  C   UNL     1       4.423   6.876  17.259  0.00  0.00    +0.000 A 
ATOM      4  C   UNL     1       5.333   6.418  16.309  0.00  0.00    +0.000 A 
ATOM      5  C   UNL     1       5.314   5.079  15.929  0.00  0.00    +0.000 A 
ATOM      6 BR   UNL     1       6.559   4.454  14.649  0.00  0.00    +0.000 Br
ATOM      7  C   UNL     1       4.385   4.193  16.482  0.00  0.00    +0.000 A 
ENDROOT
BRANCH   1   9
ATOM      8  C   UNL     1       1.940   3.860  19.203  0.00  0.00    +0.000 C 
ATOM      9  C   UNL     1       2.478   3.699  17.984  0.00  0.00    +0.000 C 
BRANCH   8  11
ATOM     10  O   UNL     1       0.961   2.783  20.943  0.00  0.00    +0.000 OA
ATOM     11  N   UNL     1       0.991   2.901  19.712  0.00  0.00    +0.000 N 
ATOM     12  O   UNL     1       0.285   2.272  18.914  0.00  0.00    +0.000 OA
ENDBRANCH   8  11
ENDBRANCH   1   9
TORSDOF 2
ENDMDL
MODEL 8
REMARK VINA RESULT:      -5.6      4.808      5.676
REMARK  Name = 
REMARK  2 active torsions:
REMARK  status: ('A' for Active; 'I' for Inactive)
REMARK    1  A    between atoms: N_2  and  C_4
REMARK    2  A    between atoms: C_5  and  C_6
REMARK                            x       y       z     vdW  Elec       q    Type
REMARK                         _______ _______ _______ _____ _____    ______ ____
ROOT
ATOM      1  C   UNL     1       3.752   4.781  17.679  0.00  0.00    +0.000 A 
ATOM      2  C   UNL     1       3.865   6.173  17.813  0.00  0.00    +0.000 A 
ATOM      3  C   UNL     1       4.646   6.917  16.926  0.00  0.00    +0.000 A 
ATOM      4  C   UNL     1       5.340   6.276  15.903  0.00  0.00    +0.000 A 
ATOM      5  C   UNL     1       5.256   4.891  15.779  0.00  0.00    +0.000 A 
ATOM      6 BR   UNL     1       6.210   4.019  14.398  0.00  0.00    +0.000 Br
ATOM      7  C   UNL     1       4.474   4.141  16.662  0.00  0.00    +0.000 A 
ENDROOT
BRANCH   1   9
ATOM      8  C   UNL     1       1.644   3.690  18.347  0.00  0.00    +0.000 C 
ATOM      9  C   UNL     1       2.933   3.970  18.594  0.00  0.00    +0.000 C 
BRANCH   8  11
ATOM     10  O   UNL     1       0.199   1.991  18.764  0.00  0.00    +0.000 OA
ATOM     11  N   UNL     1       0.884   2.887  19.273  0.00  0.00    +0.000 N 
ATOM     12  O   UNL     1       0.956   3.134  20.483  0.00  0.00    +0.000 OA
ENDBRANCH   8  11
ENDBRANCH   1   9
TORSDOF 2
ENDMDL
MODEL 9
REMARK VINA RESULT:      -5.6      1.459      1.480
REMARK  Name = 
REMARK  2 active torsions:
REMARK  status: ('A' for Active; 'I' for Inactive)
REMARK    1  A    between atoms: N_2  and  C_4
REMARK    2  A    between atoms: C_5  and  C_6
REMARK                            x       y       z     vdW  Elec       q    Type
REMARK                         _______ _______ _______ _____ _____    ______ ____
ROOT
ATOM      1  C   UNL     1       4.442   4.195  18.312  0.00  0.00    +0.000 A 
ATOM      2  C   UNL     1       3.722   3.833  17.164  0.00  0.00    +0.000 A 
ATOM      3  C   UNL     1       2.445   3.275  17.264  0.00  0.00    +0.000 A 
ATOM      4  C   UNL     1       1.879   3.056  18.517  0.00  0.00    +0.000 A 
ATOM      5  C   UNL     1       2.596   3.386  19.663  0.00  0.00    +0.000 A 
ATOM      6 BR   UNL     1       1.832   3.074  21.365  0.00  0.00    +0.000 Br
ATOM      7  C   UNL     1       3.873   3.946  19.570  0.00  0.00    +0.000 A 
ENDROOT
BRANCH   1   9
ATOM      8  C   UNL     1       6.001   6.026  17.768  0.00  0.00    +0.000 C 
ATOM      9  C   UNL     1       5.786   4.788  18.240  0.00  0.00    +0.000 C 
BRANCH   8  11
ATOM     10  O   UNL     1       7.981   6.488  18.774  0.00  0.00    +0.000 OA
ATOM     11  N   UNL     1       7.338   6.565  17.720  0.00  0.00    +0.000 N 
ATOM     12  O   UNL     1       7.749   7.059  16.663  0.00  0.00    +0.000 OA
ENDBRANCH   8  11
ENDBRANCH   1   9
TORSDOF 2
ENDMDL
