MODEL 1
REMARK VINA RESULT:      -8.4      0.000      0.000
REMARK  Name = 
REMARK  5 active torsions:
REMARK  status: ('A' for Active; 'I' for Inactive)
REMARK    1  A    between atoms: C_1  and  C_2
REMARK    2  A    between atoms: C_2  and  C_3
REMARK    3  A    between atoms: C_2  and  C_4
REMARK    4  A    between atoms: C_4  and  C_5
REMARK    5  A    between atoms: C_10  and  C_11
REMARK                            x       y       z     vdW  Elec       q    Type
REMARK                         _______ _______ _______ _____ _____    ______ ____
ROOT
ATOM      1  C   UNL     1       3.974   4.445  17.850  0.00  0.00    +0.000 A 
ATOM      2  C   UNL     1       3.580   5.739  17.595  0.00  0.00    +0.000 A 
ATOM      3  N   UNL     1       2.825   6.238  18.646  0.00  0.00    +0.000 N 
ATOM      4  C   UNL     1       2.328   7.558  18.759  0.00  0.00    +0.000 A 
ATOM      5  N   UNL     1       1.714   8.049  19.819  0.00  0.00    +0.000 NA
ATOM      6  C   UNL     1       1.347   9.360  19.543  0.00  0.00    +0.000 A 
ATOM      7  C   UNL     1       1.683   9.829  18.292  0.00  0.00    +0.000 A 
ATOM      8  S   UNL     1       2.526   8.626  17.433  0.00  0.00    +0.000 S 
ATOM      9  C   UNL     1       2.659   5.190  19.560  0.00  0.00    +0.000 A 
ATOM     10  C   UNL     1       1.954   5.118  20.770  0.00  0.00    +0.000 A 
ATOM     11  C   UNL     1       1.984   3.893  21.421  0.00  0.00    +0.000 A 
ATOM     12  N   UNL     1       2.636   2.800  20.980  0.00  0.00    +0.000 NA
ATOM     13  C   UNL     1       3.322   2.880  19.816  0.00  0.00    +0.000 A 
ATOM     14  C   UNL     1       3.348   4.069  19.073  0.00  0.00    +0.000 A 
ENDROOT
BRANCH   6  15
ATOM     15  C   UNL     1       0.650  10.239  20.521  0.00  0.00    +0.000 A 
ATOM     16  N   UNL     1      -0.174   9.798  21.451  0.00  0.00    +0.000 NA
ATOM     17  C   UNL     1      -0.629  10.920  22.093  0.00  0.00    +0.000 A 
ATOM     18  C   UNL     1      -1.526  11.029  23.165  0.00  0.00    +0.000 A 
ATOM     19  C   UNL     1      -1.868  12.305  23.624  0.00  0.00    +0.000 A 
ATOM     20  C   UNL     1      -1.328  13.448  23.025  0.00  0.00    +0.000 A 
ATOM     21  C   UNL     1      -0.417  13.356  21.964  0.00  0.00    +0.000 A 
ATOM     22  C   UNL     1      -0.086  12.072  21.532  0.00  0.00    +0.000 A 
ATOM     23  N   UNL     1       0.754  11.604  20.550  0.00  0.00    +0.000 N 
ATOM     24  H   UNL     1       1.322  12.152  19.923  0.00  0.00    +0.000 HD
ENDBRANCH   6  15
BRANCH   1  25
ATOM     25  C   UNL     1       4.904   3.637  16.995  0.00  0.00    +0.000 C 
BRANCH  25  27
ATOM     26  C   UNL     1       7.260   4.612  16.939  0.00  0.00    +0.000 C 
ATOM     27  C   UNL     1       5.910   4.518  16.220  0.00  0.00    +0.000 C 
ATOM     28  C   UNL     1       6.112   3.981  14.804  0.00  0.00    +0.000 C 
ENDBRANCH  25  27
ENDBRANCH   1  25
TORSDOF 3
ENDMDL
MODEL 2
REMARK VINA RESULT:      -8.1      0.746      1.213
REMARK  Name = 
REMARK  5 active torsions:
REMARK  status: ('A' for Active; 'I' for Inactive)
REMARK    1  A    between atoms: C_1  and  C_2
REMARK    2  A    between atoms: C_2  and  C_3
REMARK    3  A    between atoms: C_2  and  C_4
REMARK    4  A    between atoms: C_4  and  C_5
REMARK    5  A    between atoms: C_10  and  C_11
REMARK                            x       y       z     vdW  Elec       q    Type
REMARK                         _______ _______ _______ _____ _____    ______ ____
ROOT
ATOM      1  C   UNL     1       4.263   4.584  18.063  0.00  0.00    +0.000 A 
ATOM      2  C   UNL     1       3.859   5.867  17.771  0.00  0.00    +0.000 A 
ATOM      3  N   UNL     1       2.893   6.294  18.669  0.00  0.00    +0.000 N 
ATOM      4  C   UNL     1       2.317   7.585  18.719  0.00  0.00    +0.000 A 
ATOM      5  N   UNL     1       1.487   8.010  19.654  0.00  0.00    +0.000 NA
ATOM      6  C   UNL     1       1.113   9.312  19.346  0.00  0.00    +0.000 A 
ATOM      7  C   UNL     1       1.657   9.840  18.195  0.00  0.00    +0.000 A 
ATOM      8  S   UNL     1       2.708   8.706  17.483  0.00  0.00    +0.000 S 
ATOM      9  C   UNL     1       2.610   5.208  19.508  0.00  0.00    +0.000 A 
ATOM     10  C   UNL     1       1.692   5.062  20.557  0.00  0.00    +0.000 A 
ATOM     11  C   UNL     1       1.660   3.818  21.171  0.00  0.00    +0.000 A 
ATOM     12  N   UNL     1       2.440   2.772  20.835  0.00  0.00    +0.000 NA
ATOM     13  C   UNL     1       3.330   2.923  19.827  0.00  0.00    +0.000 A 
ATOM     14  C   UNL     1       3.436   4.138  19.133  0.00  0.00    +0.000 A 
ENDROOT
BRANCH   6  15
ATOM     15  C   UNL     1       0.198  10.124  20.194  0.00  0.00    +0.000 A 
ATOM     16  N   UNL     1      -0.456  11.185  19.766  0.00  0.00    +0.000 NA
ATOM     17  C   UNL     1      -1.134  11.657  20.859  0.00  0.00    +0.000 A 
ATOM     18  C   UNL     1      -1.987  12.765  20.966  0.00  0.00    +0.000 A 
ATOM     19  C   UNL     1      -2.535  13.069  22.217  0.00  0.00    +0.000 A 
ATOM     20  C   UNL     1      -2.238  12.285  23.336  0.00  0.00    +0.000 A 
ATOM     21  C   UNL     1      -1.402  11.165  23.243  0.00  0.00    +0.000 A 
ATOM     22  C   UNL     1      -0.875  10.879  21.983  0.00  0.00    +0.000 A 
ATOM     23  N   UNL     1      -0.046   9.885  21.520  0.00  0.00    +0.000 N 
ATOM     24  H   UNL     1       0.356   9.131  22.054  0.00  0.00    +0.000 HD
ENDBRANCH   6  15
BRANCH   1  25
ATOM     25  C   UNL     1       5.379   3.849  17.382  0.00  0.00    +0.000 C 
BRANCH  25  27
ATOM     26  C   UNL     1       7.746   4.684  17.837  0.00  0.00    +0.000 C 
ATOM     27  C   UNL     1       6.517   4.792  16.929  0.00  0.00    +0.000 C 
ATOM     28  C   UNL     1       6.912   4.496  15.482  0.00  0.00    +0.000 C 
ENDBRANCH  25  27
ENDBRANCH   1  25
TORSDOF 3
ENDMDL
MODEL 3
REMARK VINA RESULT:      -7.5      1.427      1.880
REMARK  Name = 
REMARK  5 active torsions:
REMARK  status: ('A' for Active; 'I' for Inactive)
REMARK    1  A    between atoms: C_1  and  C_2
REMARK    2  A    between atoms: C_2  and  C_3
REMARK    3  A    between atoms: C_2  and  C_4
REMARK    4  A    between atoms: C_4  and  C_5
REMARK    5  A    between atoms: C_10  and  C_11
REMARK                            x       y       z     vdW  Elec       q    Type
REMARK                         _______ _______ _______ _____ _____    ______ ____
ROOT
ATOM      1  C   UNL     1       4.267   5.955  17.975  0.00  0.00    +0.000 A 
ATOM      2  C   UNL     1       3.714   7.196  17.761  0.00  0.00    +0.000 A 
ATOM      3  N   UNL     1       2.694   7.443  18.668  0.00  0.00    +0.000 N 
ATOM      4  C   UNL     1       1.965   8.648  18.792  0.00  0.00    +0.000 A 
ATOM      5  N   UNL     1       1.081   8.907  19.737  0.00  0.00    +0.000 NA
ATOM      6  C   UNL     1       0.555  10.172  19.509  0.00  0.00    +0.000 A 
ATOM      7  C   UNL     1       1.042  10.838  18.405  0.00  0.00    +0.000 A 
ATOM      8  S   UNL     1       2.230   9.890  17.640  0.00  0.00    +0.000 S 
ATOM      9  C   UNL     1       2.537   6.276  19.427  0.00  0.00    +0.000 A 
ATOM     10  C   UNL     1       1.633   5.950  20.449  0.00  0.00    +0.000 A 
ATOM     11  C   UNL     1       1.746   4.673  20.978  0.00  0.00    +0.000 A 
ATOM     12  N   UNL     1       2.650   3.753  20.589  0.00  0.00    +0.000 NA
ATOM     13  C   UNL     1       3.525   4.078  19.609  0.00  0.00    +0.000 A 
ATOM     14  C   UNL     1       3.490   5.341  18.998  0.00  0.00    +0.000 A 
ENDROOT
BRANCH   6  15
ATOM     15  C   UNL     1      -0.460  10.808  20.392  0.00  0.00    +0.000 A 
ATOM     16  N   UNL     1      -1.410  11.614  19.962  0.00  0.00    +0.000 NA
ATOM     17  C   UNL     1      -2.085  12.012  21.085  0.00  0.00    +0.000 A 
ATOM     18  C   UNL     1      -3.188  12.869  21.204  0.00  0.00    +0.000 A 
ATOM     19  C   UNL     1      -3.679  13.155  22.482  0.00  0.00    +0.000 A 
ATOM     20  C   UNL     1      -3.081  12.598  23.617  0.00  0.00    +0.000 A 
ATOM     21  C   UNL     1      -1.989  11.727  23.516  0.00  0.00    +0.000 A 
ATOM     22  C   UNL     1      -1.525  11.451  22.230  0.00  0.00    +0.000 A 
ATOM     23  N   UNL     1      -0.508  10.659  21.753  0.00  0.00    +0.000 N 
ATOM     24  H   UNL     1       0.129  10.095  22.293  0.00  0.00    +0.000 HD
ENDBRANCH   6  15
BRANCH   1  25
ATOM     25  C   UNL     1       5.471   5.407  17.268  0.00  0.00    +0.000 C 
BRANCH  25  27
ATOM     26  C   UNL     1       7.815   4.590  17.857  0.00  0.00    +0.000 C 
ATOM     27  C   UNL     1       6.788   5.716  18.016  0.00  0.00    +0.000 C 
ATOM     28  C   UNL     1       7.384   7.036  17.527  0.00  0.00    +0.000 C 
ENDBRANCH  25  27
ENDBRANCH   1  25
TORSDOF 3
ENDMDL
MODEL 4
REMARK VINA RESULT:      -7.3      2.090      8.731
REMARK  Name = 
REMARK  5 active torsions:
REMARK  status: ('A' for Active; 'I' for Inactive)
REMARK    1  A    between atoms: C_1  and  C_2
REMARK    2  A    between atoms: C_2  and  C_3
REMARK    3  A    between atoms: C_2  and  C_4
REMARK    4  A    between atoms: C_4  and  C_5
REMARK    5  A    between atoms: C_10  and  C_11
REMARK                            x       y       z     vdW  Elec       q    Type
REMARK                         _______ _______ _______ _____ _____    ______ ____
ROOT
ATOM      1  C   UNL     1      -0.154  12.459  20.263  0.00  0.00    +0.000 A 
ATOM      2  C   UNL     1       0.626  11.748  19.380  0.00  0.00    +0.000 A 
ATOM      3  N   UNL     1       0.831  10.455  19.837  0.00  0.00    +0.000 N 
ATOM      4  C   UNL     1       1.513   9.427  19.146  0.00  0.00    +0.000 A 
ATOM      5  N   UNL     1       1.596   8.170  19.542  0.00  0.00    +0.000 NA
ATOM      6  C   UNL     1       2.370   7.473  18.624  0.00  0.00    +0.000 A 
ATOM      7  C   UNL     1       2.857   8.207  17.564  0.00  0.00    +0.000 A 
ATOM      8  S   UNL     1       2.304   9.813  17.675  0.00  0.00    +0.000 S 
ATOM      9  C   UNL     1       0.231  10.371  21.100  0.00  0.00    +0.000 A 
ATOM     10  C   UNL     1       0.168   9.323  22.029  0.00  0.00    +0.000 A 
ATOM     11  C   UNL     1      -0.502   9.596  23.213  0.00  0.00    +0.000 A 
ATOM     12  N   UNL     1      -1.086  10.772  23.515  0.00  0.00    +0.000 NA
ATOM     13  C   UNL     1      -1.029  11.776  22.610  0.00  0.00    +0.000 A 
ATOM     14  C   UNL     1      -0.366  11.608  21.385  0.00  0.00    +0.000 A 
ENDROOT
BRANCH   6  15
ATOM     15  C   UNL     1       2.661   6.017  18.736  0.00  0.00    +0.000 A 
ATOM     16  N   UNL     1       3.566   5.507  19.546  0.00  0.00    +0.000 NA
ATOM     17  C   UNL     1       3.549   4.158  19.305  0.00  0.00    +0.000 A 
ATOM     18  C   UNL     1       4.312   3.140  19.893  0.00  0.00    +0.000 A 
ATOM     19  C   UNL     1       4.136   1.827  19.442  0.00  0.00    +0.000 A 
ATOM     20  C   UNL     1       3.221   1.538  18.426  0.00  0.00    +0.000 A 
ATOM     21  C   UNL     1       2.438   2.541  17.839  0.00  0.00    +0.000 A 
ATOM     22  C   UNL     1       2.626   3.840  18.313  0.00  0.00    +0.000 A 
ATOM     23  N   UNL     1       2.049   5.045  17.991  0.00  0.00    +0.000 N 
ATOM     24  H   UNL     1       1.332   5.211  17.302  0.00  0.00    +0.000 HD
ENDBRANCH   6  15
BRANCH   1  25
ATOM     25  C   UNL     1      -0.681  13.844  20.034  0.00  0.00    +0.000 C 
BRANCH  25  27
ATOM     26  C   UNL     1      -0.370  15.984  18.680  0.00  0.00    +0.000 C 
ATOM     27  C   UNL     1       0.307  14.729  19.241  0.00  0.00    +0.000 C 
ATOM     28  C   UNL     1       1.493  15.127  20.119  0.00  0.00    +0.000 C 
ENDBRANCH  25  27
ENDBRANCH   1  25
TORSDOF 3
ENDMDL
MODEL 5
REMARK VINA RESULT:      -7.3      1.964      8.717
REMARK  Name = 
REMARK  5 active torsions:
REMARK  status: ('A' for Active; 'I' for Inactive)
REMARK    1  A    between atoms: C_1  and  C_2
REMARK    2  A    between atoms: C_2  and  C_3
REMARK    3  A    between atoms: C_2  and  C_4
REMARK    4  A    between atoms: C_4  and  C_5
REMARK    5  A    between atoms: C_10  and  C_11
REMARK                            x       y       z     vdW  Elec       q    Type
REMARK                         _______ _______ _______ _____ _____    ______ ____
ROOT
ATOM      1  C   UNL     1      -0.458  12.841  19.855  0.00  0.00    +0.000 A 
ATOM      2  C   UNL     1       0.343  11.998  19.120  0.00  0.00    +0.000 A 
ATOM      3  N   UNL     1       0.573  10.815  19.807  0.00  0.00    +0.000 N 
ATOM      4  C   UNL     1       1.282   9.694  19.318  0.00  0.00    +0.000 A 
ATOM      5  N   UNL     1       1.388   8.533  19.937  0.00  0.00    +0.000 NA
ATOM      6  C   UNL     1       2.184   7.697  19.165  0.00  0.00    +0.000 A 
ATOM      7  C   UNL     1       2.663   8.235  17.990  0.00  0.00    +0.000 A 
ATOM      8  S   UNL     1       2.075   9.821  17.803  0.00  0.00    +0.000 S 
ATOM      9  C   UNL     1      -0.034  10.951  21.062  0.00  0.00    +0.000 A 
ATOM     10  C   UNL     1      -0.082  10.089  22.167  0.00  0.00    +0.000 A 
ATOM     11  C   UNL     1      -0.766  10.560  23.279  0.00  0.00    +0.000 A 
ATOM     12  N   UNL     1      -1.377  11.758  23.358  0.00  0.00    +0.000 NA
ATOM     13  C   UNL     1      -1.335  12.580  22.285  0.00  0.00    +0.000 A 
ATOM     14  C   UNL     1      -0.660  12.206  21.114  0.00  0.00    +0.000 A 
ENDROOT
BRANCH   6  15
ATOM     15  C   UNL     1       2.505   6.293  19.543  0.00  0.00    +0.000 A 
ATOM     16  N   UNL     1       1.898   5.632  20.508  0.00  0.00    +0.000 NA
ATOM     17  C   UNL     1       2.519   4.412  20.559  0.00  0.00    +0.000 A 
ATOM     18  C   UNL     1       2.267   3.321  21.402  0.00  0.00    +0.000 A 
ATOM     19  C   UNL     1       3.075   2.185  21.284  0.00  0.00    +0.000 A 
ATOM     20  C   UNL     1       4.111   2.140  20.346  0.00  0.00    +0.000 A 
ATOM     21  C   UNL     1       4.365   3.215  19.484  0.00  0.00    +0.000 A 
ATOM     22  C   UNL     1       3.540   4.332  19.616  0.00  0.00    +0.000 A 
ATOM     23  N   UNL     1       3.486   5.537  18.958  0.00  0.00    +0.000 N 
ATOM     24  H   UNL     1       4.081   5.847  18.206  0.00  0.00    +0.000 HD
ENDBRANCH   6  15
BRANCH   1  25
ATOM     25  C   UNL     1      -1.013  14.149  19.375  0.00  0.00    +0.000 C 
BRANCH  25  27
ATOM     26  C   UNL     1      -0.483  16.476  18.475  0.00  0.00    +0.000 C 
ATOM     27  C   UNL     1       0.095  15.167  19.022  0.00  0.00    +0.000 C 
ATOM     28  C   UNL     1       0.966  15.454  20.245  0.00  0.00    +0.000 C 
ENDBRANCH  25  27
ENDBRANCH   1  25
TORSDOF 3
ENDMDL
MODEL 6
REMARK VINA RESULT:      -7.3      2.020      8.822
REMARK  Name = 
REMARK  5 active torsions:
REMARK  status: ('A' for Active; 'I' for Inactive)
REMARK    1  A    between atoms: C_1  and  C_2
REMARK    2  A    between atoms: C_2  and  C_3
REMARK    3  A    between atoms: C_2  and  C_4
REMARK    4  A    between atoms: C_4  and  C_5
REMARK    5  A    between atoms: C_10  and  C_11
REMARK                            x       y       z     vdW  Elec       q    Type
REMARK                         _______ _______ _______ _____ _____    ______ ____
ROOT
ATOM      1  C   UNL     1      -0.582  13.051  19.807  0.00  0.00    +0.000 A 
ATOM      2  C   UNL     1       0.238  12.200  19.102  0.00  0.00    +0.000 A 
ATOM      3  N   UNL     1       0.461  11.031  19.815  0.00  0.00    +0.000 N 
ATOM      4  C   UNL     1       1.186   9.905  19.359  0.00  0.00    +0.000 A 
ATOM      5  N   UNL     1       1.287   8.757  20.002  0.00  0.00    +0.000 NA
ATOM      6  C   UNL     1       2.102   7.911  19.260  0.00  0.00    +0.000 A 
ATOM      7  C   UNL     1       2.599   8.431  18.085  0.00  0.00    +0.000 A 
ATOM      8  S   UNL     1       2.005  10.010  17.858  0.00  0.00    +0.000 S 
ATOM      9  C   UNL     1      -0.170  11.187  21.056  0.00  0.00    +0.000 A 
ATOM     10  C   UNL     1      -0.232  10.345  22.176  0.00  0.00    +0.000 A 
ATOM     11  C   UNL     1      -0.939  10.831  23.266  0.00  0.00    +0.000 A 
ATOM     12  N   UNL     1      -1.559  12.027  23.312  0.00  0.00    +0.000 NA
ATOM     13  C   UNL     1      -1.502  12.830  22.225  0.00  0.00    +0.000 A 
ATOM     14  C   UNL     1      -0.803  12.438  21.073  0.00  0.00    +0.000 A 
ENDROOT
BRANCH   6  15
ATOM     15  C   UNL     1       2.424   6.517  19.670  0.00  0.00    +0.000 A 
ATOM     16  N   UNL     1       3.229   5.719  18.998  0.00  0.00    +0.000 NA
ATOM     17  C   UNL     1       3.212   4.530  19.678  0.00  0.00    +0.000 A 
ATOM     18  C   UNL     1       3.892   3.336  19.400  0.00  0.00    +0.000 A 
ATOM     19  C   UNL     1       3.676   2.233  20.233  0.00  0.00    +0.000 A 
ATOM     20  C   UNL     1       2.799   2.320  21.318  0.00  0.00    +0.000 A 
ATOM     21  C   UNL     1       2.124   3.510  21.620  0.00  0.00    +0.000 A 
ATOM     22  C   UNL     1       2.364   4.597  20.780  0.00  0.00    +0.000 A 
ATOM     23  N   UNL     1       1.899   5.890  20.769  0.00  0.00    +0.000 N 
ATOM     24  H   UNL     1       1.254   6.310  21.419  0.00  0.00    +0.000 HD
ENDBRANCH   6  15
BRANCH   1  25
ATOM     25  C   UNL     1      -1.136  14.347  19.292  0.00  0.00    +0.000 C 
BRANCH  25  27
ATOM     26  C   UNL     1      -0.595  16.691  18.444  0.00  0.00    +0.000 C 
ATOM     27  C   UNL     1      -0.043  15.424  19.106  0.00  0.00    +0.000 C 
ATOM     28  C   UNL     1       0.596  15.775  20.449  0.00  0.00    +0.000 C 
ENDBRANCH  25  27
ENDBRANCH   1  25
TORSDOF 3
ENDMDL
MODEL 7
REMARK VINA RESULT:      -7.2      3.834     10.014
REMARK  Name = 
REMARK  5 active torsions:
REMARK  status: ('A' for Active; 'I' for Inactive)
REMARK    1  A    between atoms: C_1  and  C_2
REMARK    2  A    between atoms: C_2  and  C_3
REMARK    3  A    between atoms: C_2  and  C_4
REMARK    4  A    between atoms: C_4  and  C_5
REMARK    5  A    between atoms: C_10  and  C_11
REMARK                            x       y       z     vdW  Elec       q    Type
REMARK                         _______ _______ _______ _____ _____    ______ ____
ROOT
ATOM      1  C   UNL     1       0.317  15.963  19.046  0.00  0.00    +0.000 A 
ATOM      2  C   UNL     1      -0.228  14.700  19.041  0.00  0.00    +0.000 A 
ATOM      3  N   UNL     1       0.750  13.743  18.815  0.00  0.00    +0.000 N 
ATOM      4  C   UNL     1       0.562  12.342  18.828  0.00  0.00    +0.000 A 
ATOM      5  N   UNL     1       1.526  11.445  18.730  0.00  0.00    +0.000 NA
ATOM      6  C   UNL     1       0.950  10.181  18.748  0.00  0.00    +0.000 A 
ATOM      7  C   UNL     1      -0.424  10.146  18.855  0.00  0.00    +0.000 A 
ATOM      8  S   UNL     1      -1.032  11.730  18.984  0.00  0.00    +0.000 S 
ATOM      9  C   UNL     1       1.946  14.434  18.579  0.00  0.00    +0.000 A 
ATOM     10  C   UNL     1       3.232  13.978  18.257  0.00  0.00    +0.000 A 
ATOM     11  C   UNL     1       4.197  14.958  18.067  0.00  0.00    +0.000 A 
ATOM     12  N   UNL     1       3.982  16.283  18.177  0.00  0.00    +0.000 NA
ATOM     13  C   UNL     1       2.741  16.715  18.497  0.00  0.00    +0.000 A 
ATOM     14  C   UNL     1       1.690  15.808  18.700  0.00  0.00    +0.000 A 
ENDROOT
BRANCH   6  15
ATOM     15  C   UNL     1       1.739   8.921  18.678  0.00  0.00    +0.000 A 
ATOM     16  N   UNL     1       1.731   7.993  19.614  0.00  0.00    +0.000 NA
ATOM     17  C   UNL     1       2.617   7.040  19.187  0.00  0.00    +0.000 A 
ATOM     18  C   UNL     1       2.991   5.835  19.800  0.00  0.00    +0.000 A 
ATOM     19  C   UNL     1       3.958   5.040  19.176  0.00  0.00    +0.000 A 
ATOM     20  C   UNL     1       4.539   5.438  17.969  0.00  0.00    +0.000 A 
ATOM     21  C   UNL     1       4.165   6.630  17.334  0.00  0.00    +0.000 A 
ATOM     22  C   UNL     1       3.192   7.400  17.972  0.00  0.00    +0.000 A 
ATOM     23  N   UNL     1       2.587   8.592  17.654  0.00  0.00    +0.000 N 
ATOM     24  H   UNL     1       2.754   9.161  16.839  0.00  0.00    +0.000 HD
ENDBRANCH   6  15
BRANCH   1  25
ATOM     25  C   UNL     1      -0.420  17.225  19.383  0.00  0.00    +0.000 C 
BRANCH  25  27
ATOM     26  C   UNL     1      -2.458  18.608  18.720  0.00  0.00    +0.000 C 
ATOM     27  C   UNL     1      -1.317  17.714  18.224  0.00  0.00    +0.000 C 
ATOM     28  C   UNL     1      -0.485  18.464  17.183  0.00  0.00    +0.000 C 
ENDBRANCH  25  27
ENDBRANCH   1  25
TORSDOF 3
ENDMDL
MODEL 8
REMARK VINA RESULT:      -7.2      1.354      1.849
REMARK  Name = 
REMARK  5 active torsions:
REMARK  status: ('A' for Active; 'I' for Inactive)
REMARK    1  A    between atoms: C_1  and  C_2
REMARK    2  A    between atoms: C_2  and  C_3
REMARK    3  A    between atoms: C_2  and  C_4
REMARK    4  A    between atoms: C_4  and  C_5
REMARK    5  A    between atoms: C_10  and  C_11
REMARK                            x       y       z     vdW  Elec       q    Type
REMARK                         _______ _______ _______ _____ _____    ______ ____
ROOT
ATOM      1  C   UNL     1       3.814   6.507  17.673  0.00  0.00    +0.000 A 
ATOM      2  C   UNL     1       3.322   7.790  17.597  0.00  0.00    +0.000 A 
ATOM      3  N   UNL     1       2.489   8.062  18.672  0.00  0.00    +0.000 N 
ATOM      4  C   UNL     1       1.878   9.305  18.958  0.00  0.00    +0.000 A 
ATOM      5  N   UNL     1       1.186   9.578  20.048  0.00  0.00    +0.000 NA
ATOM      6  C   UNL     1       0.719  10.883  19.954  0.00  0.00    +0.000 A 
ATOM      7  C   UNL     1       1.060  11.564  18.806  0.00  0.00    +0.000 A 
ATOM      8  S   UNL     1       2.032  10.576  17.819  0.00  0.00    +0.000 S 
ATOM      9  C   UNL     1       2.379   6.875  19.410  0.00  0.00    +0.000 A 
ATOM     10  C   UNL     1       1.639   6.563  20.559  0.00  0.00    +0.000 A 
ATOM     11  C   UNL     1       1.749   5.259  21.020  0.00  0.00    +0.000 A 
ATOM     12  N   UNL     1       2.508   4.302  20.452  0.00  0.00    +0.000 NA
ATOM     13  C   UNL     1       3.226   4.613  19.349  0.00  0.00    +0.000 A 
ATOM     14  C   UNL     1       3.178   5.900  18.794  0.00  0.00    +0.000 A 
ENDROOT
BRANCH   6  15
ATOM     15  C   UNL     1      -0.086  11.543  21.018  0.00  0.00    +0.000 A 
ATOM     16  N   UNL     1      -1.191  11.038  21.527  0.00  0.00    +0.000 NA
ATOM     17  C   UNL     1      -1.636  11.971  22.426  0.00  0.00    +0.000 A 
ATOM     18  C   UNL     1      -2.770  11.942  23.250  0.00  0.00    +0.000 A 
ATOM     19  C   UNL     1      -3.034  13.049  24.063  0.00  0.00    +0.000 A 
ATOM     20  C   UNL     1      -2.187  14.161  24.053  0.00  0.00    +0.000 A 
ATOM     21  C   UNL     1      -1.041  14.200  23.248  0.00  0.00    +0.000 A 
ATOM     22  C   UNL     1      -0.795  13.079  22.453  0.00  0.00    +0.000 A 
ATOM     23  N   UNL     1       0.207  12.764  21.567  0.00  0.00    +0.000 N 
ATOM     24  H   UNL     1       1.001  13.332  21.318  0.00  0.00    +0.000 HD
ENDBRANCH   6  15
BRANCH   1  25
ATOM     25  C   UNL     1       4.840   5.916  16.754  0.00  0.00    +0.000 C 
BRANCH  25  27
ATOM     26  C   UNL     1       7.032   4.612  16.808  0.00  0.00    +0.000 C 
ATOM     27  C   UNL     1       6.218   5.750  17.433  0.00  0.00    +0.000 C 
ATOM     28  C   UNL     1       7.010   7.055  17.363  0.00  0.00    +0.000 C 
ENDBRANCH  25  27
ENDBRANCH   1  25
TORSDOF 3
ENDMDL
MODEL 9
REMARK VINA RESULT:      -7.1      3.121      9.603
REMARK  Name = 
REMARK  5 active torsions:
REMARK  status: ('A' for Active; 'I' for Inactive)
REMARK    1  A    between atoms: C_1  and  C_2
REMARK    2  A    between atoms: C_2  and  C_3
REMARK    3  A    between atoms: C_2  and  C_4
REMARK    4  A    between atoms: C_4  and  C_5
REMARK    5  A    between atoms: C_10  and  C_11
REMARK                            x       y       z     vdW  Elec       q    Type
REMARK                         _______ _______ _______ _____ _____    ______ ____
ROOT
ATOM      1  C   UNL     1      -2.826  12.156  19.804  0.00  0.00    +0.000 A 
ATOM      2  C   UNL     1      -1.758  11.491  20.362  0.00  0.00    +0.000 A 
ATOM      3  N   UNL     1      -1.206  10.600  19.454  0.00  0.00    +0.000 N 
ATOM      4  C   UNL     1      -0.048   9.814  19.660  0.00  0.00    +0.000 A 
ATOM      5  N   UNL     1       0.532   9.062  18.743  0.00  0.00    +0.000 NA
ATOM      6  C   UNL     1       1.616   8.420  19.327  0.00  0.00    +0.000 A 
ATOM      7  C   UNL     1       1.832   8.692  20.661  0.00  0.00    +0.000 A 
ATOM      8  S   UNL     1       0.682   9.819  21.211  0.00  0.00    +0.000 S 
ATOM      9  C   UNL     1      -2.010  10.638  18.308  0.00  0.00    +0.000 A 
ATOM     10  C   UNL     1      -1.946   9.919  17.106  0.00  0.00    +0.000 A 
ATOM     11  C   UNL     1      -2.935  10.198  16.174  0.00  0.00    +0.000 A 
ATOM     12  N   UNL     1      -3.923  11.098  16.344  0.00  0.00    +0.000 NA
ATOM     13  C   UNL     1      -3.973  11.795  17.503  0.00  0.00    +0.000 A 
ATOM     14  C   UNL     1      -3.027  11.582  18.516  0.00  0.00    +0.000 A 
ENDROOT
BRANCH   6  15
ATOM     15  C   UNL     1       2.522   7.502  18.583  0.00  0.00    +0.000 A 
ATOM     16  N   UNL     1       3.421   7.904  17.707  0.00  0.00    +0.000 NA
ATOM     17  C   UNL     1       3.996   6.758  17.226  0.00  0.00    +0.000 A 
ATOM     18  C   UNL     1       5.013   6.606  16.272  0.00  0.00    +0.000 A 
ATOM     19  C   UNL     1       5.405   5.312  15.914  0.00  0.00    +0.000 A 
ATOM     20  C   UNL     1       4.797   4.195  16.495  0.00  0.00    +0.000 A 
ATOM     21  C   UNL     1       3.792   4.329  17.462  0.00  0.00    +0.000 A 
ATOM     22  C   UNL     1       3.425   5.630  17.807  0.00  0.00    +0.000 A 
ATOM     23  N   UNL     1       2.508   6.138  18.696  0.00  0.00    +0.000 N 
ATOM     24  H   UNL     1       1.894   5.615  19.301  0.00  0.00    +0.000 HD
ENDBRANCH   6  15
BRANCH   1  25
ATOM     25  C   UNL     1      -3.583  13.278  20.449  0.00  0.00    +0.000 C 
BRANCH  25  27
ATOM     26  C   UNL     1      -4.865  13.785  22.595  0.00  0.00    +0.000 C 
ATOM     27  C   UNL     1      -4.633  12.776  21.466  0.00  0.00    +0.000 C 
ATOM     28  C   UNL     1      -5.955  12.470  20.762  0.00  0.00    +0.000 C 
ENDBRANCH  25  27
ENDBRANCH   1  25
TORSDOF 3
ENDMDL
