MODEL 1
REMARK VINA RESULT:      -6.3      0.000      0.000
REMARK  Name = 
REMARK  6 active torsions:
REMARK  status: ('A' for Active; 'I' for Inactive)
REMARK    1  A    between atoms: C_1  and  C_2
REMARK    2  A    between atoms: C_4  and  C_5
REMARK    3  A    between atoms: C_5  and  O_6
REMARK    4  A    between atoms: O_6  and  C_7
REMARK    5  A    between atoms: C_7  and  C_8
REMARK    6  A    between atoms: C_8  and  C_9
REMARK                            x       y       z     vdW  Elec       q    Type
REMARK                         _______ _______ _______ _____ _____    ______ ____
ROOT
ATOM      1  O   UNL     1       5.492   5.660  17.883  0.00  0.00    +0.000 OA
ENDROOT
BRANCH   1   2
ATOM      2  C   UNL     1       6.642   4.854  17.610  0.00  0.00    +0.000 C 
BRANCH   2   6
ATOM      3  C   UNL     1       6.321   3.681  12.670  0.00  0.00    +0.000 C 
ATOM      4  C   UNL     1       6.630   4.252  13.997  0.00  0.00    +0.000 A 
ATOM      5  C   UNL     1       6.103   3.868  15.245  0.00  0.00    +0.000 A 
ATOM      6  C   UNL     1       6.719   4.696  16.146  0.00  0.00    +0.000 A 
ATOM      7  O   UNL     1       7.556   5.537  15.481  0.00  0.00    +0.000 OA
ATOM      8  N   UNL     1       7.503   5.260  14.124  0.00  0.00    +0.000 NA
ENDBRANCH   2   6
ENDBRANCH   1   2
BRANCH   1   9
ATOM      9  C   UNL     1       4.489   4.906  18.562  0.00  0.00    +0.000 C 
BRANCH   9  10
ATOM     10  C   UNL     1       3.287   4.710  17.642  0.00  0.00    +0.000 C 
BRANCH  10  11
ATOM     11  C   UNL     1       2.493   3.521  18.029  0.00  0.00    +0.000 A 
ATOM     12  C   UNL     1       2.814   2.184  17.971  0.00  0.00    +0.000 A 
ATOM     13  N   UNL     1       1.712   1.560  18.474  0.00  0.00    +0.000 N 
ATOM     14  N   UNL     1       0.771   2.443  18.833  0.00  0.00    +0.000 NA
ATOM     15  N   UNL     1       1.235   3.655  18.558  0.00  0.00    +0.000 NA
ATOM     16  H   UNL     1       1.529   0.572  18.606  0.00  0.00    +0.000 HD
ENDBRANCH  10  11
ENDBRANCH   9  10
ENDBRANCH   1   9
TORSDOF 5
ENDMDL
MODEL 2
REMARK VINA RESULT:      -6.3      1.656      1.796
REMARK  Name = 
REMARK  6 active torsions:
REMARK  status: ('A' for Active; 'I' for Inactive)
REMARK    1  A    between atoms: C_1  and  C_2
REMARK    2  A    between atoms: C_4  and  C_5
REMARK    3  A    between atoms: C_5  and  O_6
REMARK    4  A    between atoms: O_6  and  C_7
REMARK    5  A    between atoms: C_7  and  C_8
REMARK    6  A    between atoms: C_8  and  C_9
REMARK                            x       y       z     vdW  Elec       q    Type
REMARK                         _______ _______ _______ _____ _____    ______ ____
ROOT
ATOM      1  O   UNL     1       4.975   5.713  18.191  0.00  0.00    +0.000 OA
ENDROOT
BRANCH   1   2
ATOM      2  C   UNL     1       6.254   5.091  18.022  0.00  0.00    +0.000 C 
BRANCH   2   6
ATOM      3  C   UNL     1       6.240   3.724  13.121  0.00  0.00    +0.000 C 
ATOM      4  C   UNL     1       6.483   4.332  14.446  0.00  0.00    +0.000 A 
ATOM      5  C   UNL     1       5.834   4.038  15.662  0.00  0.00    +0.000 A 
ATOM      6  C   UNL     1       6.433   4.864  16.576  0.00  0.00    +0.000 A 
ATOM      7  O   UNL     1       7.375   5.619  15.949  0.00  0.00    +0.000 OA
ATOM      8  N   UNL     1       7.408   5.286  14.604  0.00  0.00    +0.000 NA
ENDBRANCH   2   6
ENDBRANCH   1   2
BRANCH   1   9
ATOM      9  C   UNL     1       4.280   5.155  19.305  0.00  0.00    +0.000 C 
BRANCH   9  10
ATOM     10  C   UNL     1       3.246   4.148  18.807  0.00  0.00    +0.000 C 
BRANCH  10  11
ATOM     11  C   UNL     1       2.451   3.587  19.925  0.00  0.00    +0.000 A 
ATOM     12  C   UNL     1       1.087   3.545  20.109  0.00  0.00    +0.000 A 
ATOM     13  N   UNL     1       0.937   2.897  21.297  0.00  0.00    +0.000 N 
ATOM     14  N   UNL     1       2.121   2.547  21.817  0.00  0.00    +0.000 NA
ATOM     15  N   UNL     1       3.063   2.972  20.986  0.00  0.00    +0.000 NA
ATOM     16  H   UNL     1       0.092   2.657  21.804  0.00  0.00    +0.000 HD
ENDBRANCH  10  11
ENDBRANCH   9  10
ENDBRANCH   1   9
TORSDOF 5
ENDMDL
MODEL 3
REMARK VINA RESULT:      -6.1      1.057      1.255
REMARK  Name = 
REMARK  6 active torsions:
REMARK  status: ('A' for Active; 'I' for Inactive)
REMARK    1  A    between atoms: C_1  and  C_2
REMARK    2  A    between atoms: C_4  and  C_5
REMARK    3  A    between atoms: C_5  and  O_6
REMARK    4  A    between atoms: O_6  and  C_7
REMARK    5  A    between atoms: C_7  and  C_8
REMARK    6  A    between atoms: C_8  and  C_9
REMARK                            x       y       z     vdW  Elec       q    Type
REMARK                         _______ _______ _______ _____ _____    ______ ____
ROOT
ATOM      1  O   UNL     1       4.604   6.274  17.790  0.00  0.00    +0.000 OA
ENDROOT
BRANCH   1   2
ATOM      2  C   UNL     1       5.794   5.481  17.857  0.00  0.00    +0.000 C 
BRANCH   2   6
ATOM      3  C   UNL     1       6.329   3.821  13.078  0.00  0.00    +0.000 C 
ATOM      4  C   UNL     1       6.456   4.467  14.400  0.00  0.00    +0.000 A 
ATOM      5  C   UNL     1       5.585   4.357  15.502  0.00  0.00    +0.000 A 
ATOM      6  C   UNL     1       6.159   5.136  16.471  0.00  0.00    +0.000 A 
ATOM      7  O   UNL     1       7.300   5.693  15.981  0.00  0.00    +0.000 OA
ATOM      8  N   UNL     1       7.490   5.273  14.674  0.00  0.00    +0.000 NA
ENDBRANCH   2   6
ENDBRANCH   1   2
BRANCH   1   9
ATOM      9  C   UNL     1       3.619   5.794  18.704  0.00  0.00    +0.000 C 
BRANCH   9  10
ATOM     10  C   UNL     1       2.511   5.083  17.931  0.00  0.00    +0.000 C 
BRANCH  10  11
ATOM     11  C   UNL     1       2.479   3.633  18.236  0.00  0.00    +0.000 A 
ATOM     12  C   UNL     1       1.557   2.896  18.944  0.00  0.00    +0.000 A 
ATOM     13  N   UNL     1       2.036   1.623  18.878  0.00  0.00    +0.000 N 
ATOM     14  N   UNL     1       3.171   1.562  18.170  0.00  0.00    +0.000 NA
ATOM     15  N   UNL     1       3.460   2.794  17.774  0.00  0.00    +0.000 NA
ATOM     16  H   UNL     1       1.660   0.766  19.271  0.00  0.00    +0.000 HD
ENDBRANCH  10  11
ENDBRANCH   9  10
ENDBRANCH   1   9
TORSDOF 5
ENDMDL
MODEL 4
REMARK VINA RESULT:      -6.0      2.355      6.003
REMARK  Name = 
REMARK  6 active torsions:
REMARK  status: ('A' for Active; 'I' for Inactive)
REMARK    1  A    between atoms: C_1  and  C_2
REMARK    2  A    between atoms: C_4  and  C_5
REMARK    3  A    between atoms: C_5  and  O_6
REMARK    4  A    between atoms: O_6  and  C_7
REMARK    5  A    between atoms: C_7  and  C_8
REMARK    6  A    between atoms: C_8  and  C_9
REMARK                            x       y       z     vdW  Elec       q    Type
REMARK                         _______ _______ _______ _____ _____    ______ ____
ROOT
ATOM      1  O   UNL     1       6.284   5.514  19.292  0.00  0.00    +0.000 OA
ENDROOT
BRANCH   1   2
ATOM      2  C   UNL     1       4.944   5.549  18.791  0.00  0.00    +0.000 C 
BRANCH   2   6
ATOM      3  C   UNL     1       1.708   2.449  21.200  0.00  0.00    +0.000 C 
ATOM      4  C   UNL     1       2.857   3.090  20.528  0.00  0.00    +0.000 A 
ATOM      5  C   UNL     1       2.920   4.386  19.977  0.00  0.00    +0.000 A 
ATOM      6  C   UNL     1       4.197   4.488  19.490  0.00  0.00    +0.000 A 
ATOM      7  O   UNL     1       4.859   3.322  19.721  0.00  0.00    +0.000 OA
ATOM      8  N   UNL     1       4.016   2.438  20.375  0.00  0.00    +0.000 NA
ENDBRANCH   2   6
ENDBRANCH   1   2
BRANCH   1   9
ATOM      9  C   UNL     1       7.225   5.765  18.248  0.00  0.00    +0.000 C 
BRANCH   9  10
ATOM     10  C   UNL     1       7.521   4.464  17.506  0.00  0.00    +0.000 C 
BRANCH  10  11
ATOM     11  C   UNL     1       7.043   4.516  16.105  0.00  0.00    +0.000 A 
ATOM     12  C   UNL     1       6.019   3.830  15.492  0.00  0.00    +0.000 A 
ATOM     13  N   UNL     1       6.033   4.296  14.212  0.00  0.00    +0.000 N 
ATOM     14  N   UNL     1       6.990   5.217  14.036  0.00  0.00    +0.000 NA
ATOM     15  N   UNL     1       7.625   5.357  15.192  0.00  0.00    +0.000 NA
ATOM     16  H   UNL     1       5.443   4.051  13.425  0.00  0.00    +0.000 HD
ENDBRANCH  10  11
ENDBRANCH   9  10
ENDBRANCH   1   9
TORSDOF 5
ENDMDL
MODEL 5
REMARK VINA RESULT:      -6.0      1.176      1.396
REMARK  Name = 
REMARK  6 active torsions:
REMARK  status: ('A' for Active; 'I' for Inactive)
REMARK    1  A    between atoms: C_1  and  C_2
REMARK    2  A    between atoms: C_4  and  C_5
REMARK    3  A    between atoms: C_5  and  O_6
REMARK    4  A    between atoms: O_6  and  C_7
REMARK    5  A    between atoms: C_7  and  C_8
REMARK    6  A    between atoms: C_8  and  C_9
REMARK                            x       y       z     vdW  Elec       q    Type
REMARK                         _______ _______ _______ _____ _____    ______ ____
ROOT
ATOM      1  O   UNL     1       6.235   5.550  18.643  0.00  0.00    +0.000 OA
ENDROOT
BRANCH   1   2
ATOM      2  C   UNL     1       5.994   6.482  17.584  0.00  0.00    +0.000 C 
BRANCH   2   6
ATOM      3  C   UNL     1       6.155   3.760  13.288  0.00  0.00    +0.000 C 
ATOM      4  C   UNL     1       6.421   4.632  14.451  0.00  0.00    +0.000 A 
ATOM      5  C   UNL     1       5.545   4.952  15.507  0.00  0.00    +0.000 A 
ATOM      6  C   UNL     1       6.276   5.777  16.320  0.00  0.00    +0.000 A 
ATOM      7  O   UNL     1       7.513   5.955  15.782  0.00  0.00    +0.000 OA
ATOM      8  N   UNL     1       7.608   5.233  14.602  0.00  0.00    +0.000 NA
ENDBRANCH   2   6
ENDBRANCH   1   2
BRANCH   1   9
ATOM      9  C   UNL     1       5.017   5.190  19.292  0.00  0.00    +0.000 C 
BRANCH   9  10
ATOM     10  C   UNL     1       4.654   3.752  18.934  0.00  0.00    +0.000 C 
BRANCH  10  11
ATOM     11  C   UNL     1       3.186   3.558  18.879  0.00  0.00    +0.000 A 
ATOM     12  C   UNL     1       2.260   3.504  19.896  0.00  0.00    +0.000 A 
ATOM     13  N   UNL     1       1.074   3.328  19.251  0.00  0.00    +0.000 N 
ATOM     14  N   UNL     1       1.241   3.286  17.922  0.00  0.00    +0.000 NA
ATOM     15  N   UNL     1       2.538   3.419  17.679  0.00  0.00    +0.000 NA
ATOM     16  H   UNL     1       0.137   3.236  19.627  0.00  0.00    +0.000 HD
ENDBRANCH  10  11
ENDBRANCH   9  10
ENDBRANCH   1   9
TORSDOF 5
ENDMDL
MODEL 6
REMARK VINA RESULT:      -5.9      2.870      3.738
REMARK  Name = 
REMARK  6 active torsions:
REMARK  status: ('A' for Active; 'I' for Inactive)
REMARK    1  A    between atoms: C_1  and  C_2
REMARK    2  A    between atoms: C_4  and  C_5
REMARK    3  A    between atoms: C_5  and  O_6
REMARK    4  A    between atoms: O_6  and  C_7
REMARK    5  A    between atoms: C_7  and  C_8
REMARK    6  A    between atoms: C_8  and  C_9
REMARK                            x       y       z     vdW  Elec       q    Type
REMARK                         _______ _______ _______ _____ _____    ______ ____
ROOT
ATOM      1  O   UNL     1       3.143   3.653  17.039  0.00  0.00    +0.000 OA
ENDROOT
BRANCH   1   2
ATOM      2  C   UNL     1       4.186   2.988  17.758  0.00  0.00    +0.000 C 
BRANCH   2   6
ATOM      3  C   UNL     1       7.668   6.678  18.136  0.00  0.00    +0.000 C 
ATOM      4  C   UNL     1       6.683   5.600  18.359  0.00  0.00    +0.000 A 
ATOM      5  C   UNL     1       5.928   4.908  17.391  0.00  0.00    +0.000 A 
ATOM      6  C   UNL     1       5.184   4.013  18.114  0.00  0.00    +0.000 A 
ATOM      7  O   UNL     1       5.462   4.164  19.437  0.00  0.00    +0.000 OA
ATOM      8  N   UNL     1       6.408   5.166  19.595  0.00  0.00    +0.000 NA
ENDBRANCH   2   6
ENDBRANCH   1   2
BRANCH   1   9
ATOM      9  C   UNL     1       2.436   4.557  17.888  0.00  0.00    +0.000 C 
BRANCH   9  10
ATOM     10  C   UNL     1       1.312   3.812  18.602  0.00  0.00    +0.000 C 
BRANCH  10  11
ATOM     11  C   UNL     1       1.643   3.561  20.024  0.00  0.00    +0.000 A 
ATOM     12  C   UNL     1       2.276   4.368  20.943  0.00  0.00    +0.000 A 
ATOM     13  N   UNL     1       2.283   3.622  22.083  0.00  0.00    +0.000 N 
ATOM     14  N   UNL     1       1.688   2.437  21.897  0.00  0.00    +0.000 NA
ATOM     15  N   UNL     1       1.295   2.382  20.631  0.00  0.00    +0.000 NA
ATOM     16  H   UNL     1       2.657   3.841  23.000  0.00  0.00    +0.000 HD
ENDBRANCH  10  11
ENDBRANCH   9  10
ENDBRANCH   1   9
TORSDOF 5
ENDMDL
MODEL 7
REMARK VINA RESULT:      -5.8      1.672      1.783
REMARK  Name = 
REMARK  6 active torsions:
REMARK  status: ('A' for Active; 'I' for Inactive)
REMARK    1  A    between atoms: C_1  and  C_2
REMARK    2  A    between atoms: C_4  and  C_5
REMARK    3  A    between atoms: C_5  and  O_6
REMARK    4  A    between atoms: O_6  and  C_7
REMARK    5  A    between atoms: C_7  and  C_8
REMARK    6  A    between atoms: C_8  and  C_9
REMARK                            x       y       z     vdW  Elec       q    Type
REMARK                         _______ _______ _______ _____ _____    ______ ____
ROOT
ATOM      1  O   UNL     1       4.909   5.994  18.323  0.00  0.00    +0.000 OA
ENDROOT
BRANCH   1   2
ATOM      2  C   UNL     1       4.990   6.810  17.150  0.00  0.00    +0.000 C 
BRANCH   2   6
ATOM      3  C   UNL     1       6.398   3.737  13.348  0.00  0.00    +0.000 C 
ATOM      4  C   UNL     1       6.316   4.693  14.471  0.00  0.00    +0.000 A 
ATOM      5  C   UNL     1       5.161   5.128  15.151  0.00  0.00    +0.000 A 
ATOM      6  C   UNL     1       5.631   5.994  16.103  0.00  0.00    +0.000 A 
ATOM      7  O   UNL     1       6.984   6.087  15.995  0.00  0.00    +0.000 OA
ATOM      8  N   UNL     1       7.420   5.267  14.966  0.00  0.00    +0.000 NA
ENDBRANCH   2   6
ENDBRANCH   1   2
BRANCH   1   9
ATOM      9  C   UNL     1       3.579   5.975  18.840  0.00  0.00    +0.000 C 
BRANCH   9  10
ATOM     10  C   UNL     1       2.799   4.830  18.199  0.00  0.00    +0.000 C 
BRANCH  10  11
ATOM     11  C   UNL     1       3.367   3.512  18.565  0.00  0.00    +0.000 A 
ATOM     12  C   UNL     1       3.565   2.387  17.796  0.00  0.00    +0.000 A 
ATOM     13  N   UNL     1       4.133   1.498  18.657  0.00  0.00    +0.000 N 
ATOM     14  N   UNL     1       4.291   2.029  19.876  0.00  0.00    +0.000 NA
ATOM     15  N   UNL     1       3.817   3.266  19.836  0.00  0.00    +0.000 NA
ATOM     16  H   UNL     1       4.437   0.543  18.498  0.00  0.00    +0.000 HD
ENDBRANCH  10  11
ENDBRANCH   9  10
ENDBRANCH   1   9
TORSDOF 5
ENDMDL
MODEL 8
REMARK VINA RESULT:      -5.8      1.674      1.883
REMARK  Name = 
REMARK  6 active torsions:
REMARK  status: ('A' for Active; 'I' for Inactive)
REMARK    1  A    between atoms: C_1  and  C_2
REMARK    2  A    between atoms: C_4  and  C_5
REMARK    3  A    between atoms: C_5  and  O_6
REMARK    4  A    between atoms: O_6  and  C_7
REMARK    5  A    between atoms: C_7  and  C_8
REMARK    6  A    between atoms: C_8  and  C_9
REMARK                            x       y       z     vdW  Elec       q    Type
REMARK                         _______ _______ _______ _____ _____    ______ ____
ROOT
ATOM      1  O   UNL     1       4.062   6.930  17.167  0.00  0.00    +0.000 OA
ENDROOT
BRANCH   1   2
ATOM      2  C   UNL     1       5.456   6.691  17.385  0.00  0.00    +0.000 C 
BRANCH   2   6
ATOM      3  C   UNL     1       6.328   3.809  13.284  0.00  0.00    +0.000 C 
ATOM      4  C   UNL     1       6.402   4.710  14.453  0.00  0.00    +0.000 A 
ATOM      5  C   UNL     1       5.351   5.108  15.303  0.00  0.00    +0.000 A 
ATOM      6  C   UNL     1       5.948   5.929  16.223  0.00  0.00    +0.000 A 
ATOM      7  O   UNL     1       7.274   6.031  15.938  0.00  0.00    +0.000 OA
ATOM      8  N   UNL     1       7.564   5.263  14.821  0.00  0.00    +0.000 NA
ENDBRANCH   2   6
ENDBRANCH   1   2
BRANCH   1   9
ATOM      9  C   UNL     1       3.293   6.532  18.302  0.00  0.00    +0.000 C 
BRANCH   9  10
ATOM     10  C   UNL     1       2.681   5.158  18.046  0.00  0.00    +0.000 C 
BRANCH  10  11
ATOM     11  C   UNL     1       2.213   4.527  19.302  0.00  0.00    +0.000 A 
ATOM     12  C   UNL     1       2.716   4.618  20.580  0.00  0.00    +0.000 A 
ATOM     13  N   UNL     1       1.872   3.847  21.320  0.00  0.00    +0.000 N 
ATOM     14  N   UNL     1       0.902   3.318  20.563  0.00  0.00    +0.000 NA
ATOM     15  N   UNL     1       1.103   3.723  19.316  0.00  0.00    +0.000 NA
ATOM     16  H   UNL     1       1.884   3.639  22.313  0.00  0.00    +0.000 HD
ENDBRANCH  10  11
ENDBRANCH   9  10
ENDBRANCH   1   9
TORSDOF 5
ENDMDL
MODEL 9
REMARK VINA RESULT:      -5.8      2.900      6.248
REMARK  Name = 
REMARK  6 active torsions:
REMARK  status: ('A' for Active; 'I' for Inactive)
REMARK    1  A    between atoms: C_1  and  C_2
REMARK    2  A    between atoms: C_4  and  C_5
REMARK    3  A    between atoms: C_5  and  O_6
REMARK    4  A    between atoms: O_6  and  C_7
REMARK    5  A    between atoms: C_7  and  C_8
REMARK    6  A    between atoms: C_8  and  C_9
REMARK                            x       y       z     vdW  Elec       q    Type
REMARK                         _______ _______ _______ _____ _____    ______ ____
ROOT
ATOM      1  O   UNL     1       4.399   4.622  16.964  0.00  0.00    +0.000 OA
ENDROOT
BRANCH   1   2
ATOM      2  C   UNL     1       3.348   3.650  16.956  0.00  0.00    +0.000 C 
BRANCH   2   6
ATOM      3  C   UNL     1       1.566   2.727  21.631  0.00  0.00    +0.000 C 
ATOM      4  C   UNL     1       2.370   2.882  20.401  0.00  0.00    +0.000 A 
ATOM      5  C   UNL     1       1.942   3.354  19.145  0.00  0.00    +0.000 A 
ATOM      6  C   UNL     1       3.066   3.311  18.362  0.00  0.00    +0.000 A 
ATOM      7  O   UNL     1       4.105   2.830  19.097  0.00  0.00    +0.000 OA
ATOM      8  N   UNL     1       3.669   2.558  20.385  0.00  0.00    +0.000 NA
ENDBRANCH   2   6
ENDBRANCH   1   2
BRANCH   1   9
ATOM      9  C   UNL     1       5.526   4.159  16.221  0.00  0.00    +0.000 C 
BRANCH   9  10
ATOM     10  C   UNL     1       6.542   5.289  16.079  0.00  0.00    +0.000 C 
BRANCH  10  11
ATOM     11  C   UNL     1       7.205   5.592  17.369  0.00  0.00    +0.000 A 
ATOM     12  C   UNL     1       7.585   6.800  17.909  0.00  0.00    +0.000 A 
ATOM     13  N   UNL     1       8.124   6.465  19.113  0.00  0.00    +0.000 N 
ATOM     14  N   UNL     1       8.076   5.142  19.321  0.00  0.00    +0.000 NA
ATOM     15  N   UNL     1       7.519   4.591  18.251  0.00  0.00    +0.000 NA
ATOM     16  H   UNL     1       8.528   7.056  19.831  0.00  0.00    +0.000 HD
ENDBRANCH  10  11
ENDBRANCH   9  10
ENDBRANCH   1   9
TORSDOF 5
ENDMDL
