MODEL 1
REMARK VINA RESULT:      -8.0      0.000      0.000
REMARK  Name = 
REMARK  9 active torsions:
REMARK  status: ('A' for Active; 'I' for Inactive)
REMARK    1  A    between atoms: C_1  and  O_2
REMARK    2  A    between atoms: O_2  and  C_3
REMARK    3  A    between atoms: C_3  and  C_5
REMARK    4  A    between atoms: C_6  and  N_7
REMARK    5  A    between atoms: N_7  and  C_8
REMARK    6  A    between atoms: C_15  and  C_16
REMARK    7  A    between atoms: C_16  and  C_18
REMARK    8  A    between atoms: C_21  and  C_22
REMARK    9  A    between atoms: C_25  and  C_26
REMARK                            x       y       z     vdW  Elec       q    Type
REMARK                         _______ _______ _______ _____ _____    ______ ____
ROOT
ATOM      1  C   UNL     1       2.988   4.490  20.202  0.00  0.00    +0.000 A 
ATOM      2  C   UNL     1       2.945   5.870  20.008  0.00  0.00    +0.000 A 
ATOM      3  S   UNL     1       4.274   6.391  19.043  0.00  0.00    +0.000 S 
ATOM      4  C   UNL     1       4.992   4.850  18.991  0.00  0.00    +0.000 A 
ATOM      5  C   UNL     1       4.213   3.904  19.644  0.00  0.00    +0.000 A 
ATOM      6  C   UNL     1       4.574   2.444  19.757  0.00  0.00    +0.000 C 
ENDROOT
BRANCH   1   7
ATOM      7  C   UNL     1       1.936   3.735  20.902  0.00  0.00    +0.000 C 
ATOM      8  O   UNL     1       2.063   3.275  22.030  0.00  0.00    +0.000 OA
BRANCH   7  10
ATOM      9  C   UNL     1       0.739   2.603  19.132  0.00  0.00    +0.000 C 
ATOM     10  O   UNL     1       0.813   3.612  20.140  0.00  0.00    +0.000 OA
ENDBRANCH   7  10
ENDBRANCH   1   7
BRANCH   2  11
ATOM     11  N   UNL     1       1.951   6.738  20.384  0.00  0.00    +0.000 N 
ATOM     12  H   UNL     1       1.772   6.817  21.390  0.00  0.00    +0.000 HD
BRANCH  11  13
ATOM     13  C   UNL     1       1.647   7.981  19.764  0.00  0.00    +0.000 A 
ATOM     14  C   UNL     1       1.083   9.006  20.538  0.00  0.00    +0.000 A 
ATOM     15  C   UNL     1       0.846  10.274  19.993  0.00  0.00    +0.000 A 
ATOM     16  C   UNL     1       1.180  10.538  18.667  0.00  0.00    +0.000 A 
ATOM     17  C   UNL     1       1.736   9.531  17.884  0.00  0.00    +0.000 A 
ATOM     18  C   UNL     1       1.968   8.263  18.429  0.00  0.00    +0.000 A 
ENDBRANCH  11  13
ENDBRANCH   2  11
BRANCH   4  19
ATOM     19  C   UNL     1       6.199   4.600  18.207  0.00  0.00    +0.000 C 
ATOM     20  O   UNL     1       7.305   4.475  18.745  0.00  0.00    +0.000 OA
BRANCH  19  21
ATOM     21  C   UNL     1       6.196   4.472  16.720  0.00  0.00    +0.000 A 
ATOM     22  C   UNL     1       5.162   3.712  16.150  0.00  0.00    +0.000 A 
ATOM     23  C   UNL     1       5.118   3.485  14.775  0.00  0.00    +0.000 A 
ATOM     24  C   UNL     1       6.110   4.009  13.943  0.00  0.00    +0.000 A 
ATOM     25  C   UNL     1       6.066   3.762  12.464  0.00  0.00    +0.000 C 
ATOM     26  C   UNL     1       7.150   4.758  14.510  0.00  0.00    +0.000 A 
ATOM     27  C   UNL     1       7.202   4.983  15.893  0.00  0.00    +0.000 A 
ENDBRANCH  19  21
ENDBRANCH   4  19
TORSDOF 6
ENDMDL
MODEL 2
REMARK VINA RESULT:      -7.7      0.925      1.825
REMARK  Name = 
REMARK  9 active torsions:
REMARK  status: ('A' for Active; 'I' for Inactive)
REMARK    1  A    between atoms: C_1  and  O_2
REMARK    2  A    between atoms: O_2  and  C_3
REMARK    3  A    between atoms: C_3  and  C_5
REMARK    4  A    between atoms: C_6  and  N_7
REMARK    5  A    between atoms: N_7  and  C_8
REMARK    6  A    between atoms: C_15  and  C_16
REMARK    7  A    between atoms: C_16  and  C_18
REMARK    8  A    between atoms: C_21  and  C_22
REMARK    9  A    between atoms: C_25  and  C_26
REMARK                            x       y       z     vdW  Elec       q    Type
REMARK                         _______ _______ _______ _____ _____    ______ ____
ROOT
ATOM      1  C   UNL     1       2.817   4.478  19.009  0.00  0.00    +0.000 A 
ATOM      2  C   UNL     1       3.154   5.717  19.552  0.00  0.00    +0.000 A 
ATOM      3  S   UNL     1       4.770   6.144  19.135  0.00  0.00    +0.000 S 
ATOM      4  C   UNL     1       5.089   4.661  18.367  0.00  0.00    +0.000 A 
ATOM      5  C   UNL     1       3.967   3.843  18.356  0.00  0.00    +0.000 A 
ATOM      6  C   UNL     1       3.929   2.470  17.734  0.00  0.00    +0.000 C 
ENDROOT
BRANCH   1   7
ATOM      7  C   UNL     1       1.472   3.887  19.108  0.00  0.00    +0.000 C 
ATOM      8  O   UNL     1       0.858   3.426  18.154  0.00  0.00    +0.000 OA
BRANCH   7  10
ATOM      9  C   UNL     1       1.325   2.869  21.296  0.00  0.00    +0.000 C 
ATOM     10  O   UNL     1       1.000   3.920  20.385  0.00  0.00    +0.000 OA
ENDBRANCH   7  10
ENDBRANCH   1   7
BRANCH   2  11
ATOM     11  N   UNL     1       2.333   6.591  20.220  0.00  0.00    +0.000 N 
ATOM     12  H   UNL     1       2.474   6.664  21.232  0.00  0.00    +0.000 HD
BRANCH  11  13
ATOM     13  C   UNL     1       1.866   7.840  19.729  0.00  0.00    +0.000 A 
ATOM     14  C   UNL     1       2.096   8.171  18.385  0.00  0.00    +0.000 A 
ATOM     15  C   UNL     1       1.581   9.352  17.834  0.00  0.00    +0.000 A 
ATOM     16  C   UNL     1       0.820  10.214  18.618  0.00  0.00    +0.000 A 
ATOM     17  C   UNL     1       0.587   9.904  19.955  0.00  0.00    +0.000 A 
ATOM     18  C   UNL     1       1.105   8.726  20.505  0.00  0.00    +0.000 A 
ENDBRANCH  11  13
ENDBRANCH   2  11
BRANCH   4  19
ATOM     19  C   UNL     1       6.361   4.412  17.694  0.00  0.00    +0.000 C 
ATOM     20  O   UNL     1       7.409   4.248  18.330  0.00  0.00    +0.000 OA
BRANCH  19  21
ATOM     21  C   UNL     1       6.498   4.332  16.209  0.00  0.00    +0.000 A 
ATOM     22  C   UNL     1       7.499   5.120  15.620  0.00  0.00    +0.000 A 
ATOM     23  C   UNL     1       7.654   5.158  14.235  0.00  0.00    +0.000 A 
ATOM     24  C   UNL     1       6.809   4.412  13.411  0.00  0.00    +0.000 A 
ATOM     25  C   UNL     1       6.973   4.454  11.921  0.00  0.00    +0.000 C 
ATOM     26  C   UNL     1       5.801   3.631  13.996  0.00  0.00    +0.000 A 
ATOM     27  C   UNL     1       5.636   3.597  15.387  0.00  0.00    +0.000 A 
ENDBRANCH  19  21
ENDBRANCH   4  19
TORSDOF 6
ENDMDL
MODEL 3
REMARK VINA RESULT:      -7.6      3.023      7.873
REMARK  Name = 
REMARK  9 active torsions:
REMARK  status: ('A' for Active; 'I' for Inactive)
REMARK    1  A    between atoms: C_1  and  O_2
REMARK    2  A    between atoms: O_2  and  C_3
REMARK    3  A    between atoms: C_3  and  C_5
REMARK    4  A    between atoms: C_6  and  N_7
REMARK    5  A    between atoms: N_7  and  C_8
REMARK    6  A    between atoms: C_15  and  C_16
REMARK    7  A    between atoms: C_16  and  C_18
REMARK    8  A    between atoms: C_21  and  C_22
REMARK    9  A    between atoms: C_25  and  C_26
REMARK                            x       y       z     vdW  Elec       q    Type
REMARK                         _______ _______ _______ _____ _____    ______ ____
ROOT
ATOM      1  C   UNL     1       2.360   7.242  19.153  0.00  0.00    +0.000 A 
ATOM      2  C   UNL     1       2.006   6.915  20.461  0.00  0.00    +0.000 A 
ATOM      3  S   UNL     1       1.049   8.165  21.162  0.00  0.00    +0.000 S 
ATOM      4  C   UNL     1       1.209   9.200  19.822  0.00  0.00    +0.000 A 
ATOM      5  C   UNL     1       1.931   8.600  18.799  0.00  0.00    +0.000 A 
ATOM      6  C   UNL     1       2.229   9.258  17.476  0.00  0.00    +0.000 C 
ENDROOT
BRANCH   1   7
ATOM      7  C   UNL     1       3.094   6.331  18.259  0.00  0.00    +0.000 C 
ATOM      8  O   UNL     1       2.554   5.510  17.529  0.00  0.00    +0.000 OA
BRANCH   7  10
ATOM      9  C   UNL     1       5.212   6.756  17.172  0.00  0.00    +0.000 C 
ATOM     10  O   UNL     1       4.441   6.514  18.350  0.00  0.00    +0.000 OA
ENDBRANCH   7  10
ENDBRANCH   1   7
BRANCH   2  11
ATOM     11  N   UNL     1       2.232   5.733  21.120  0.00  0.00    +0.000 N 
ATOM     12  H   UNL     1       1.961   5.703  22.108  0.00  0.00    +0.000 HD
BRANCH  11  13
ATOM     13  C   UNL     1       2.101   4.430  20.568  0.00  0.00    +0.000 A 
ATOM     14  C   UNL     1       0.839   4.000  20.133  0.00  0.00    +0.000 A 
ATOM     15  C   UNL     1       0.676   2.759  19.505  0.00  0.00    +0.000 A 
ATOM     16  C   UNL     1       1.777   1.933  19.294  0.00  0.00    +0.000 A 
ATOM     17  C   UNL     1       3.036   2.342  19.725  0.00  0.00    +0.000 A 
ATOM     18  C   UNL     1       3.196   3.580  20.356  0.00  0.00    +0.000 A 
ENDBRANCH  11  13
ENDBRANCH   2  11
BRANCH   4  19
ATOM     19  C   UNL     1       0.515  10.484  19.767  0.00  0.00    +0.000 C 
ATOM     20  O   UNL     1       0.962  11.486  20.339  0.00  0.00    +0.000 OA
BRANCH  19  21
ATOM     21  C   UNL     1      -0.764  10.692  19.025  0.00  0.00    +0.000 A 
ATOM     22  C   UNL     1      -1.653  11.645  19.546  0.00  0.00    +0.000 A 
ATOM     23  C   UNL     1      -2.898  11.857  18.957  0.00  0.00    +0.000 A 
ATOM     24  C   UNL     1      -3.281  11.116  17.836  0.00  0.00    +0.000 A 
ATOM     25  C   UNL     1      -4.622  11.340  17.202  0.00  0.00    +0.000 C 
ATOM     26  C   UNL     1      -2.400  10.155  17.319  0.00  0.00    +0.000 A 
ATOM     27  C   UNL     1      -1.150   9.934  17.914  0.00  0.00    +0.000 A 
ENDBRANCH  19  21
ENDBRANCH   4  19
TORSDOF 6
ENDMDL
MODEL 4
REMARK VINA RESULT:      -7.6      3.351      5.222
REMARK  Name = 
REMARK  9 active torsions:
REMARK  status: ('A' for Active; 'I' for Inactive)
REMARK    1  A    between atoms: C_1  and  O_2
REMARK    2  A    between atoms: O_2  and  C_3
REMARK    3  A    between atoms: C_3  and  C_5
REMARK    4  A    between atoms: C_6  and  N_7
REMARK    5  A    between atoms: N_7  and  C_8
REMARK    6  A    between atoms: C_15  and  C_16
REMARK    7  A    between atoms: C_16  and  C_18
REMARK    8  A    between atoms: C_21  and  C_22
REMARK    9  A    between atoms: C_25  and  C_26
REMARK                            x       y       z     vdW  Elec       q    Type
REMARK                         _______ _______ _______ _____ _____    ______ ____
ROOT
ATOM      1  C   UNL     1       0.728   8.947  20.078  0.00  0.00    +0.000 A 
ATOM      2  C   UNL     1       0.679   9.858  19.024  0.00  0.00    +0.000 A 
ATOM      3  S   UNL     1       1.736   9.375  17.752  0.00  0.00    +0.000 S 
ATOM      4  C   UNL     1       2.369   8.057  18.621  0.00  0.00    +0.000 A 
ATOM      5  C   UNL     1       1.753   7.920  19.857  0.00  0.00    +0.000 A 
ATOM      6  C   UNL     1       2.086   6.837  20.852  0.00  0.00    +0.000 C 
ENDROOT
BRANCH   1   7
ATOM      7  C   UNL     1      -0.135   9.034  21.267  0.00  0.00    +0.000 C 
ATOM      8  O   UNL     1      -0.820   8.107  21.682  0.00  0.00    +0.000 OA
BRANCH   7  10
ATOM      9  C   UNL     1      -0.809  10.534  23.040  0.00  0.00    +0.000 C 
ATOM     10  O   UNL     1      -0.078  10.268  21.842  0.00  0.00    +0.000 OA
ENDBRANCH   7  10
ENDBRANCH   1   7
BRANCH   2  11
ATOM     11  N   UNL     1      -0.161  10.935  18.886  0.00  0.00    +0.000 N 
ATOM     12  H   UNL     1       0.259  11.796  18.522  0.00  0.00    +0.000 HD
BRANCH  11  13
ATOM     13  C   UNL     1      -1.525  10.885  18.489  0.00  0.00    +0.000 A 
ATOM     14  C   UNL     1      -2.438  11.772  19.080  0.00  0.00    +0.000 A 
ATOM     15  C   UNL     1      -3.773  11.819  18.661  0.00  0.00    +0.000 A 
ATOM     16  C   UNL     1      -4.213  10.986  17.636  0.00  0.00    +0.000 A 
ATOM     17  C   UNL     1      -3.322  10.096  17.043  0.00  0.00    +0.000 A 
ATOM     18  C   UNL     1      -1.989  10.047  17.465  0.00  0.00    +0.000 A 
ENDBRANCH  11  13
ENDBRANCH   2  11
BRANCH   4  19
ATOM     19  C   UNL     1       3.330   7.139  18.015  0.00  0.00    +0.000 C 
ATOM     20  O   UNL     1       4.280   7.550  17.337  0.00  0.00    +0.000 OA
BRANCH  19  21
ATOM     21  C   UNL     1       3.251   5.656  18.165  0.00  0.00    +0.000 A 
ATOM     22  C   UNL     1       4.413   4.997  18.597  0.00  0.00    +0.000 A 
ATOM     23  C   UNL     1       4.449   3.608  18.701  0.00  0.00    +0.000 A 
ATOM     24  C   UNL     1       3.324   2.848  18.372  0.00  0.00    +0.000 A 
ATOM     25  C   UNL     1       3.363   1.352  18.481  0.00  0.00    +0.000 C 
ATOM     26  C   UNL     1       2.165   3.501  17.930  0.00  0.00    +0.000 A 
ATOM     27  C   UNL     1       2.127   4.898  17.816  0.00  0.00    +0.000 A 
ENDBRANCH  19  21
ENDBRANCH   4  19
TORSDOF 6
ENDMDL
MODEL 5
REMARK VINA RESULT:      -7.5      0.451      1.409
REMARK  Name = 
REMARK  9 active torsions:
REMARK  status: ('A' for Active; 'I' for Inactive)
REMARK    1  A    between atoms: C_1  and  O_2
REMARK    2  A    between atoms: O_2  and  C_3
REMARK    3  A    between atoms: C_3  and  C_5
REMARK    4  A    between atoms: C_6  and  N_7
REMARK    5  A    between atoms: N_7  and  C_8
REMARK    6  A    between atoms: C_15  and  C_16
REMARK    7  A    between atoms: C_16  and  C_18
REMARK    8  A    between atoms: C_21  and  C_22
REMARK    9  A    between atoms: C_25  and  C_26
REMARK                            x       y       z     vdW  Elec       q    Type
REMARK                         _______ _______ _______ _____ _____    ______ ____
ROOT
ATOM      1  C   UNL     1       3.159   4.135  20.157  0.00  0.00    +0.000 A 
ATOM      2  C   UNL     1       3.064   5.521  20.045  0.00  0.00    +0.000 A 
ATOM      3  S   UNL     1       4.355   6.145  19.090  0.00  0.00    +0.000 S 
ATOM      4  C   UNL     1       5.125   4.636  18.935  0.00  0.00    +0.000 A 
ATOM      5  C   UNL     1       4.393   3.627  19.545  0.00  0.00    +0.000 A 
ATOM      6  C   UNL     1       4.807   2.177  19.567  0.00  0.00    +0.000 C 
ENDROOT
BRANCH   1   7
ATOM      7  C   UNL     1       2.148   3.303  20.830  0.00  0.00    +0.000 C 
ATOM      8  O   UNL     1       1.848   3.418  22.011  0.00  0.00    +0.000 OA
BRANCH   7  10
ATOM      9  C   UNL     1       0.771   2.836  18.898  0.00  0.00    +0.000 C 
ATOM     10  O   UNL     1       1.595   2.395  19.978  0.00  0.00    +0.000 OA
ENDBRANCH   7  10
ENDBRANCH   1   7
BRANCH   2  11
ATOM     11  N   UNL     1       2.047   6.330  20.488  0.00  0.00    +0.000 N 
ATOM     12  H   UNL     1       1.844   6.297  21.491  0.00  0.00    +0.000 HD
BRANCH  11  13
ATOM     13  C   UNL     1       1.738   7.628  19.999  0.00  0.00    +0.000 A 
ATOM     14  C   UNL     1       1.922   7.903  18.635  0.00  0.00    +0.000 A 
ATOM     15  C   UNL     1       1.551   9.139  18.091  0.00  0.00    +0.000 A 
ATOM     16  C   UNL     1       0.981  10.116  18.902  0.00  0.00    +0.000 A 
ATOM     17  C   UNL     1       0.796   9.862  20.258  0.00  0.00    +0.000 A 
ATOM     18  C   UNL     1       1.171   8.628  20.801  0.00  0.00    +0.000 A 
ENDBRANCH  11  13
ENDBRANCH   2  11
BRANCH   4  19
ATOM     19  C   UNL     1       6.325   4.475  18.118  0.00  0.00    +0.000 C 
ATOM     20  O   UNL     1       7.456   4.496  18.618  0.00  0.00    +0.000 OA
BRANCH  19  21
ATOM     21  C   UNL     1       6.286   4.273  16.639  0.00  0.00    +0.000 A 
ATOM     22  C   UNL     1       7.343   4.819  15.895  0.00  0.00    +0.000 A 
ATOM     23  C   UNL     1       7.354   4.736  14.503  0.00  0.00    +0.000 A 
ATOM     24  C   UNL     1       6.305   4.108  13.828  0.00  0.00    +0.000 A 
ATOM     25  C   UNL     1       6.314   4.020  12.330  0.00  0.00    +0.000 C 
ATOM     26  C   UNL     1       5.242   3.570  14.567  0.00  0.00    +0.000 A 
ATOM     27  C   UNL     1       5.223   3.659  15.966  0.00  0.00    +0.000 A 
ENDBRANCH  19  21
ENDBRANCH   4  19
TORSDOF 6
ENDMDL
MODEL 6
REMARK VINA RESULT:      -7.4      0.332      1.003
REMARK  Name = 
REMARK  9 active torsions:
REMARK  status: ('A' for Active; 'I' for Inactive)
REMARK    1  A    between atoms: C_1  and  O_2
REMARK    2  A    between atoms: O_2  and  C_3
REMARK    3  A    between atoms: C_3  and  C_5
REMARK    4  A    between atoms: C_6  and  N_7
REMARK    5  A    between atoms: N_7  and  C_8
REMARK    6  A    between atoms: C_15  and  C_16
REMARK    7  A    between atoms: C_16  and  C_18
REMARK    8  A    between atoms: C_21  and  C_22
REMARK    9  A    between atoms: C_25  and  C_26
REMARK                            x       y       z     vdW  Elec       q    Type
REMARK                         _______ _______ _______ _____ _____    ______ ____
ROOT
ATOM      1  C   UNL     1       3.055   4.469  20.025  0.00  0.00    +0.000 A 
ATOM      2  C   UNL     1       3.088   5.860  19.940  0.00  0.00    +0.000 A 
ATOM      3  S   UNL     1       4.448   6.381  19.019  0.00  0.00    +0.000 S 
ATOM      4  C   UNL     1       5.080   4.811  18.846  0.00  0.00    +0.000 A 
ATOM      5  C   UNL     1       4.248   3.862  19.423  0.00  0.00    +0.000 A 
ATOM      6  C   UNL     1       4.528   2.380  19.422  0.00  0.00    +0.000 C 
ENDROOT
BRANCH   1   7
ATOM      7  C   UNL     1       1.960   3.720  20.664  0.00  0.00    +0.000 C 
ATOM      8  O   UNL     1       1.939   3.426  21.853  0.00  0.00    +0.000 OA
BRANCH   7  10
ATOM      9  C   UNL     1       1.242   3.468  18.369  0.00  0.00    +0.000 C 
ATOM     10  O   UNL     1       0.983   3.396  19.772  0.00  0.00    +0.000 OA
ENDBRANCH   7  10
ENDBRANCH   1   7
BRANCH   2  11
ATOM     11  N   UNL     1       2.141   6.749  20.383  0.00  0.00    +0.000 N 
ATOM     12  H   UNL     1       2.104   6.907  21.395  0.00  0.00    +0.000 HD
BRANCH  11  13
ATOM     13  C   UNL     1       1.732   7.936  19.717  0.00  0.00    +0.000 A 
ATOM     14  C   UNL     1       1.060   8.928  20.446  0.00  0.00    +0.000 A 
ATOM     15  C   UNL     1       0.714  10.149  19.854  0.00  0.00    +0.000 A 
ATOM     16  C   UNL     1       1.044  10.400  18.525  0.00  0.00    +0.000 A 
ATOM     17  C   UNL     1       1.707   9.425  17.786  0.00  0.00    +0.000 A 
ATOM     18  C   UNL     1       2.048   8.203  18.377  0.00  0.00    +0.000 A 
ENDBRANCH  11  13
ENDBRANCH   2  11
BRANCH   4  19
ATOM     19  C   UNL     1       6.275   4.558  18.045  0.00  0.00    +0.000 C 
ATOM     20  O   UNL     1       7.402   4.536  18.553  0.00  0.00    +0.000 OA
BRANCH  19  21
ATOM     21  C   UNL     1       6.234   4.304  16.574  0.00  0.00    +0.000 A 
ATOM     22  C   UNL     1       7.270   4.857  15.805  0.00  0.00    +0.000 A 
ATOM     23  C   UNL     1       7.277   4.727  14.418  0.00  0.00    +0.000 A 
ATOM     24  C   UNL     1       6.244   4.045  13.770  0.00  0.00    +0.000 A 
ATOM     25  C   UNL     1       6.248   3.907  12.276  0.00  0.00    +0.000 C 
ATOM     26  C   UNL     1       5.202   3.501  14.534  0.00  0.00    +0.000 A 
ATOM     27  C   UNL     1       5.187   3.636  15.929  0.00  0.00    +0.000 A 
ENDBRANCH  19  21
ENDBRANCH   4  19
TORSDOF 6
ENDMDL
MODEL 7
REMARK VINA RESULT:      -7.4      2.932      7.582
REMARK  Name = 
REMARK  9 active torsions:
REMARK  status: ('A' for Active; 'I' for Inactive)
REMARK    1  A    between atoms: C_1  and  O_2
REMARK    2  A    between atoms: O_2  and  C_3
REMARK    3  A    between atoms: C_3  and  C_5
REMARK    4  A    between atoms: C_6  and  N_7
REMARK    5  A    between atoms: N_7  and  C_8
REMARK    6  A    between atoms: C_15  and  C_16
REMARK    7  A    between atoms: C_16  and  C_18
REMARK    8  A    between atoms: C_21  and  C_22
REMARK    9  A    between atoms: C_25  and  C_26
REMARK                            x       y       z     vdW  Elec       q    Type
REMARK                         _______ _______ _______ _____ _____    ______ ____
ROOT
ATOM      1  C   UNL     1       2.045   6.749  19.566  0.00  0.00    +0.000 A 
ATOM      2  C   UNL     1       2.733   7.025  18.385  0.00  0.00    +0.000 A 
ATOM      3  S   UNL     1       2.463   8.653  17.891  0.00  0.00    +0.000 S 
ATOM      4  C   UNL     1       1.339   8.966  19.128  0.00  0.00    +0.000 A 
ATOM      5  C   UNL     1       1.194   7.873  19.971  0.00  0.00    +0.000 A 
ATOM      6  C   UNL     1       0.280   7.846  21.170  0.00  0.00    +0.000 C 
ENDROOT
BRANCH   1   7
ATOM      7  C   UNL     1       2.156   5.471  20.289  0.00  0.00    +0.000 C 
ATOM      8  O   UNL     1       2.516   5.378  21.456  0.00  0.00    +0.000 OA
BRANCH   7  10
ATOM      9  C   UNL     1       0.981   3.375  20.022  0.00  0.00    +0.000 C 
ATOM     10  O   UNL     1       1.811   4.415  19.502  0.00  0.00    +0.000 OA
ENDBRANCH   7  10
ENDBRANCH   1   7
BRANCH   2  11
ATOM     11  N   UNL     1       3.623   6.215  17.724  0.00  0.00    +0.000 N 
ATOM     12  H   UNL     1       3.447   6.065  16.726  0.00  0.00    +0.000 HD
BRANCH  11  13
ATOM     13  C   UNL     1       5.023   6.144  17.960  0.00  0.00    +0.000 A 
ATOM     14  C   UNL     1       5.887   6.911  17.163  0.00  0.00    +0.000 A 
ATOM     15  C   UNL     1       7.264   6.939  17.413  0.00  0.00    +0.000 A 
ATOM     16  C   UNL     1       7.798   6.208  18.471  0.00  0.00    +0.000 A 
ATOM     17  C   UNL     1       6.956   5.438  19.268  0.00  0.00    +0.000 A 
ATOM     18  C   UNL     1       5.580   5.407  19.015  0.00  0.00    +0.000 A 
ENDBRANCH  11  13
ENDBRANCH   2  11
BRANCH   4  19
ATOM     19  C   UNL     1       0.755  10.293  19.306  0.00  0.00    +0.000 C 
ATOM     20  O   UNL     1       1.371  11.200  19.879  0.00  0.00    +0.000 OA
BRANCH  19  21
ATOM     21  C   UNL     1      -0.607  10.659  18.817  0.00  0.00    +0.000 A 
ATOM     22  C   UNL     1      -1.306  11.630  19.551  0.00  0.00    +0.000 A 
ATOM     23  C   UNL     1      -2.609  11.985  19.206  0.00  0.00    +0.000 A 
ATOM     24  C   UNL     1      -3.241  11.372  18.121  0.00  0.00    +0.000 A 
ATOM     25  C   UNL     1      -4.645  11.751  17.750  0.00  0.00    +0.000 C 
ATOM     26  C   UNL     1      -2.550  10.394  17.392  0.00  0.00    +0.000 A 
ATOM     27  C   UNL     1      -1.242  10.029  17.741  0.00  0.00    +0.000 A 
ENDBRANCH  19  21
ENDBRANCH   4  19
TORSDOF 6
ENDMDL
MODEL 8
REMARK VINA RESULT:      -7.3      2.929      7.426
REMARK  Name = 
REMARK  9 active torsions:
REMARK  status: ('A' for Active; 'I' for Inactive)
REMARK    1  A    between atoms: C_1  and  O_2
REMARK    2  A    between atoms: O_2  and  C_3
REMARK    3  A    between atoms: C_3  and  C_5
REMARK    4  A    between atoms: C_6  and  N_7
REMARK    5  A    between atoms: N_7  and  C_8
REMARK    6  A    between atoms: C_15  and  C_16
REMARK    7  A    between atoms: C_16  and  C_18
REMARK    8  A    between atoms: C_21  and  C_22
REMARK    9  A    between atoms: C_25  and  C_26
REMARK                            x       y       z     vdW  Elec       q    Type
REMARK                         _______ _______ _______ _____ _____    ______ ____
ROOT
ATOM      1  C   UNL     1       2.213   6.675  19.512  0.00  0.00    +0.000 A 
ATOM      2  C   UNL     1       2.891   7.010  18.341  0.00  0.00    +0.000 A 
ATOM      3  S   UNL     1       2.553   8.637  17.887  0.00  0.00    +0.000 S 
ATOM      4  C   UNL     1       1.414   8.871  19.128  0.00  0.00    +0.000 A 
ATOM      5  C   UNL     1       1.314   7.751  19.943  0.00  0.00    +0.000 A 
ATOM      6  C   UNL     1       0.400   7.655  21.139  0.00  0.00    +0.000 C 
ENDROOT
BRANCH   1   7
ATOM      7  C   UNL     1       2.376   5.386  20.203  0.00  0.00    +0.000 C 
ATOM      8  O   UNL     1       2.414   5.265  21.422  0.00  0.00    +0.000 OA
BRANCH   7  10
ATOM      9  C   UNL     1       1.314   3.829  18.689  0.00  0.00    +0.000 C 
ATOM     10  O   UNL     1       2.482   4.351  19.323  0.00  0.00    +0.000 OA
ENDBRANCH   7  10
ENDBRANCH   1   7
BRANCH   2  11
ATOM     11  N   UNL     1       3.815   6.255  17.662  0.00  0.00    +0.000 N 
ATOM     12  H   UNL     1       3.657   6.138  16.657  0.00  0.00    +0.000 HD
BRANCH  11  13
ATOM     13  C   UNL     1       5.214   6.221  17.915  0.00  0.00    +0.000 A 
ATOM     14  C   UNL     1       6.061   7.052  17.165  0.00  0.00    +0.000 A 
ATOM     15  C   UNL     1       7.433   7.115  17.435  0.00  0.00    +0.000 A 
ATOM     16  C   UNL     1       7.978   6.356  18.467  0.00  0.00    +0.000 A 
ATOM     17  C   UNL     1       7.153   5.523  19.217  0.00  0.00    +0.000 A 
ATOM     18  C   UNL     1       5.782   5.457  18.944  0.00  0.00    +0.000 A 
ENDBRANCH  11  13
ENDBRANCH   2  11
BRANCH   4  19
ATOM     19  C   UNL     1       0.774  10.167  19.338  0.00  0.00    +0.000 C 
ATOM     20  O   UNL     1       1.334  11.070  19.971  0.00  0.00    +0.000 OA
BRANCH  19  21
ATOM     21  C   UNL     1      -0.582  10.504  18.812  0.00  0.00    +0.000 A 
ATOM     22  C   UNL     1      -0.983   9.859  17.632  0.00  0.00    +0.000 A 
ATOM     23  C   UNL     1      -2.205  10.162  17.033  0.00  0.00    +0.000 A 
ATOM     24  C   UNL     1      -3.048  11.120  17.601  0.00  0.00    +0.000 A 
ATOM     25  C   UNL     1      -4.362  11.450  16.956  0.00  0.00    +0.000 C 
ATOM     26  C   UNL     1      -2.645  11.774  18.774  0.00  0.00    +0.000 A 
ATOM     27  C   UNL     1      -1.414  11.478  19.374  0.00  0.00    +0.000 A 
ENDBRANCH  19  21
ENDBRANCH   4  19
TORSDOF 6
ENDMDL
MODEL 9
REMARK VINA RESULT:      -7.3      2.950      7.575
REMARK  Name = 
REMARK  9 active torsions:
REMARK  status: ('A' for Active; 'I' for Inactive)
REMARK    1  A    between atoms: C_1  and  O_2
REMARK    2  A    between atoms: O_2  and  C_3
REMARK    3  A    between atoms: C_3  and  C_5
REMARK    4  A    between atoms: C_6  and  N_7
REMARK    5  A    between atoms: N_7  and  C_8
REMARK    6  A    between atoms: C_15  and  C_16
REMARK    7  A    between atoms: C_16  and  C_18
REMARK    8  A    between atoms: C_21  and  C_22
REMARK    9  A    between atoms: C_25  and  C_26
REMARK                            x       y       z     vdW  Elec       q    Type
REMARK                         _______ _______ _______ _____ _____    ______ ____
ROOT
ATOM      1  C   UNL     1       1.969   6.838  19.588  0.00  0.00    +0.000 A 
ATOM      2  C   UNL     1       2.652   7.116  18.405  0.00  0.00    +0.000 A 
ATOM      3  S   UNL     1       2.384   8.746  17.916  0.00  0.00    +0.000 S 
ATOM      4  C   UNL     1       1.267   9.059  19.160  0.00  0.00    +0.000 A 
ATOM      5  C   UNL     1       1.123   7.963  20.001  0.00  0.00    +0.000 A 
ATOM      6  C   UNL     1       0.215   7.935  21.204  0.00  0.00    +0.000 C 
ENDROOT
BRANCH   1   7
ATOM      7  C   UNL     1       2.080   5.559  20.307  0.00  0.00    +0.000 C 
ATOM      8  O   UNL     1       2.472   5.458  21.463  0.00  0.00    +0.000 OA
BRANCH   7  10
ATOM      9  C   UNL     1       0.929   3.442  20.092  0.00  0.00    +0.000 C 
ATOM     10  O   UNL     1       1.696   4.508  19.529  0.00  0.00    +0.000 OA
ENDBRANCH   7  10
ENDBRANCH   1   7
BRANCH   2  11
ATOM     11  N   UNL     1       3.537   6.306  17.737  0.00  0.00    +0.000 N 
ATOM     12  H   UNL     1       3.345   6.144  16.744  0.00  0.00    +0.000 HD
BRANCH  11  13
ATOM     13  C   UNL     1       4.941   6.246  17.950  0.00  0.00    +0.000 A 
ATOM     14  C   UNL     1       5.439   5.433  18.979  0.00  0.00    +0.000 A 
ATOM     15  C   UNL     1       6.817   5.276  19.172  0.00  0.00    +0.000 A 
ATOM     16  C   UNL     1       7.718   5.923  18.331  0.00  0.00    +0.000 A 
ATOM     17  C   UNL     1       7.241   6.738  17.309  0.00  0.00    +0.000 A 
ATOM     18  C   UNL     1       5.864   6.898  17.119  0.00  0.00    +0.000 A 
ENDBRANCH  11  13
ENDBRANCH   2  11
BRANCH   4  19
ATOM     19  C   UNL     1       0.688  10.387  19.345  0.00  0.00    +0.000 C 
ATOM     20  O   UNL     1       1.339  11.313  19.841  0.00  0.00    +0.000 OA
BRANCH  19  21
ATOM     21  C   UNL     1      -0.711  10.730  18.953  0.00  0.00    +0.000 A 
ATOM     22  C   UNL     1      -1.230  10.085  17.819  0.00  0.00    +0.000 A 
ATOM     23  C   UNL     1      -2.502  10.394  17.341  0.00  0.00    +0.000 A 
ATOM     24  C   UNL     1      -3.281  11.357  17.987  0.00  0.00    +0.000 A 
ATOM     25  C   UNL     1      -4.650  11.693  17.472  0.00  0.00    +0.000 C 
ATOM     26  C   UNL     1      -2.763  12.011  19.113  0.00  0.00    +0.000 A 
ATOM     27  C   UNL     1      -1.480  11.710  19.591  0.00  0.00    +0.000 A 
ENDBRANCH  19  21
ENDBRANCH   4  19
TORSDOF 6
ENDMDL
