MODEL 1
REMARK VINA RESULT:      -8.2      0.000      0.000
REMARK  Name = 
REMARK  6 active torsions:
REMARK  status: ('A' for Active; 'I' for Inactive)
REMARK    1  A    between atoms: C_1  and  O_2
REMARK    2  A    between atoms: O_2  and  C_3
REMARK    3  A    between atoms: N_5  and  C_6
REMARK    4  A    between atoms: C_11  and  C_12
REMARK    5  A    between atoms: C_14  and  C_15
REMARK    6  A    between atoms: C_16  and  C_17
REMARK                            x       y       z     vdW  Elec       q    Type
REMARK                         _______ _______ _______ _____ _____    ______ ____
ROOT
ATOM      1  C   UNL     1       4.652   5.113  16.667  0.00  0.00    +0.000 A 
ATOM      2  N   UNL     1       4.075   6.262  16.962  0.00  0.00    +0.000 NA
ATOM      3  C   UNL     1       3.316   6.042  18.093  0.00  0.00    +0.000 A 
ATOM      4  C   UNL     1       2.558   7.168  18.690  0.00  0.00    +0.000 C 
ATOM      5  C   UNL     1       3.395   4.714  18.494  0.00  0.00    +0.000 A 
ATOM      6  N   UNL     1       4.257   4.158  17.576  0.00  0.00    +0.000 N 
ATOM      7  H   UNL     1       4.506   3.181  17.527  0.00  0.00    +0.000 HD
ENDROOT
BRANCH   1  13
ATOM      8  C   UNL     1       6.837   5.373  15.419  0.00  0.00    +0.000 A 
ATOM      9  C   UNL     1       7.605   5.095  14.281  0.00  0.00    +0.000 A 
ATOM     10  C   UNL     1       7.101   4.322  13.238  0.00  0.00    +0.000 A 
ATOM     11  C   UNL     1       5.826   3.789  13.323  0.00  0.00    +0.000 A 
ATOM     12  C   UNL     1       5.055   4.032  14.462  0.00  0.00    +0.000 A 
ATOM     13  C   UNL     1       5.535   4.831  15.522  0.00  0.00    +0.000 A 
BRANCH   8  16
ATOM     14  C   UNL     1       7.618   5.785  17.749  0.00  0.00    +0.000 C 
ATOM     15  O   UNL     1       7.515   4.657  18.213  0.00  0.00    +0.000 OA
ATOM     16  N   UNL     1       7.356   6.182  16.464  0.00  0.00    +0.000 N 
ATOM     17  H   UNL     1       7.627   7.132  16.219  0.00  0.00    +0.000 HD
BRANCH  14  19
ATOM     18  C   UNL     1       7.882   8.094  17.814  0.00  0.00    +0.000 C 
ATOM     19  O   UNL     1       8.063   6.843  18.485  0.00  0.00    +0.000 OA
ENDBRANCH  14  19
ENDBRANCH   8  16
ENDBRANCH   1  13
BRANCH   5  20
ATOM     20  C   UNL     1       2.741   3.940  19.554  0.00  0.00    +0.000 A 
ATOM     21  C   UNL     1       1.348   3.861  19.664  0.00  0.00    +0.000 A 
ATOM     22  C   UNL     1       0.765   3.147  20.714  0.00  0.00    +0.000 A 
ATOM     23  C   UNL     1       1.594   2.522  21.629  0.00  0.00    +0.000 A 
ATOM     24  N   UNL     1       2.939   2.566  21.561  0.00  0.00    +0.000 NA
ATOM     25  C   UNL     1       3.474   3.272  20.532  0.00  0.00    +0.000 A 
ENDBRANCH   5  20
TORSDOF 4
ENDMDL
MODEL 2
REMARK VINA RESULT:      -8.2      3.351      5.643
REMARK  Name = 
REMARK  6 active torsions:
REMARK  status: ('A' for Active; 'I' for Inactive)
REMARK    1  A    between atoms: C_1  and  O_2
REMARK    2  A    between atoms: O_2  and  C_3
REMARK    3  A    between atoms: N_5  and  C_6
REMARK    4  A    between atoms: C_11  and  C_12
REMARK    5  A    between atoms: C_14  and  C_15
REMARK    6  A    between atoms: C_16  and  C_17
REMARK                            x       y       z     vdW  Elec       q    Type
REMARK                         _______ _______ _______ _____ _____    ______ ____
ROOT
ATOM      1  C   UNL     1       2.484   6.227  19.885  0.00  0.00    +0.000 A 
ATOM      2  N   UNL     1       2.588   6.920  18.768  0.00  0.00    +0.000 NA
ATOM      3  C   UNL     1       2.005   8.147  19.011  0.00  0.00    +0.000 A 
ATOM      4  C   UNL     1       1.988   9.170  17.938  0.00  0.00    +0.000 C 
ATOM      5  C   UNL     1       1.495   8.208  20.302  0.00  0.00    +0.000 A 
ATOM      6  N   UNL     1       1.825   6.980  20.830  0.00  0.00    +0.000 N 
ATOM      7  H   UNL     1       1.561   6.648  21.746  0.00  0.00    +0.000 HD
ENDROOT
BRANCH   1  13
ATOM      8  C   UNL     1       4.055   4.291  19.459  0.00  0.00    +0.000 A 
ATOM      9  C   UNL     1       4.396   2.952  19.694  0.00  0.00    +0.000 A 
ATOM     10  C   UNL     1       3.633   2.147  20.535  0.00  0.00    +0.000 A 
ATOM     11  C   UNL     1       2.525   2.672  21.179  0.00  0.00    +0.000 A 
ATOM     12  C   UNL     1       2.184   4.012  20.980  0.00  0.00    +0.000 A 
ATOM     13  C   UNL     1       2.930   4.842  20.114  0.00  0.00    +0.000 A 
BRANCH   8  16
ATOM     14  C   UNL     1       6.085   5.590  18.823  0.00  0.00    +0.000 C 
ATOM     15  O   UNL     1       6.787   5.385  19.804  0.00  0.00    +0.000 OA
ATOM     16  N   UNL     1       4.831   5.093  18.581  0.00  0.00    +0.000 N 
ATOM     17  H   UNL     1       4.449   5.258  17.651  0.00  0.00    +0.000 HD
BRANCH  14  19
ATOM     18  C   UNL     1       7.720   7.047  18.042  0.00  0.00    +0.000 C 
ATOM     19  O   UNL     1       6.496   6.357  17.773  0.00  0.00    +0.000 OA
ENDBRANCH  14  19
ENDBRANCH   8  16
ENDBRANCH   1  13
BRANCH   5  20
ATOM     20  C   UNL     1       0.724   9.216  21.036  0.00  0.00    +0.000 A 
ATOM     21  C   UNL     1      -0.045  10.186  20.380  0.00  0.00    +0.000 A 
ATOM     22  C   UNL     1      -0.731  11.155  21.116  0.00  0.00    +0.000 A 
ATOM     23  C   UNL     1      -0.635  11.127  22.497  0.00  0.00    +0.000 A 
ATOM     24  N   UNL     1       0.087  10.211  23.171  0.00  0.00    +0.000 NA
ATOM     25  C   UNL     1       0.745   9.287  22.427  0.00  0.00    +0.000 A 
ENDBRANCH   5  20
TORSDOF 4
ENDMDL
MODEL 3
REMARK VINA RESULT:      -8.1      3.489      5.923
REMARK  Name = 
REMARK  6 active torsions:
REMARK  status: ('A' for Active; 'I' for Inactive)
REMARK    1  A    between atoms: C_1  and  O_2
REMARK    2  A    between atoms: O_2  and  C_3
REMARK    3  A    between atoms: N_5  and  C_6
REMARK    4  A    between atoms: C_11  and  C_12
REMARK    5  A    between atoms: C_14  and  C_15
REMARK    6  A    between atoms: C_16  and  C_17
REMARK                            x       y       z     vdW  Elec       q    Type
REMARK                         _______ _______ _______ _____ _____    ______ ____
ROOT
ATOM      1  C   UNL     1       2.319   6.457  19.976  0.00  0.00    +0.000 A 
ATOM      2  N   UNL     1       2.406   7.141  18.851  0.00  0.00    +0.000 NA
ATOM      3  C   UNL     1       1.873   8.387  19.107  0.00  0.00    +0.000 A 
ATOM      4  C   UNL     1       1.852   9.404  18.028  0.00  0.00    +0.000 C 
ATOM      5  C   UNL     1       1.410   8.471  20.414  0.00  0.00    +0.000 A 
ATOM      6  N   UNL     1       1.719   7.236  20.938  0.00  0.00    +0.000 N 
ATOM      7  H   UNL     1       1.475   6.918  21.865  0.00  0.00    +0.000 HD
ENDROOT
BRANCH   1  13
ATOM      8  C   UNL     1       3.827   4.476  19.529  0.00  0.00    +0.000 A 
ATOM      9  C   UNL     1       4.131   3.128  19.758  0.00  0.00    +0.000 A 
ATOM     10  C   UNL     1       3.355   2.344  20.608  0.00  0.00    +0.000 A 
ATOM     11  C   UNL     1       2.270   2.901  21.266  0.00  0.00    +0.000 A 
ATOM     12  C   UNL     1       1.967   4.250  21.072  0.00  0.00    +0.000 A 
ATOM     13  C   UNL     1       2.726   5.059  20.198  0.00  0.00    +0.000 A 
BRANCH   8  16
ATOM     14  C   UNL     1       5.927   5.615  18.817  0.00  0.00    +0.000 C 
ATOM     15  O   UNL     1       6.671   5.281  19.728  0.00  0.00    +0.000 OA
ATOM     16  N   UNL     1       4.616   5.256  18.642  0.00  0.00    +0.000 N 
ATOM     17  H   UNL     1       4.188   5.517  17.755  0.00  0.00    +0.000 HD
BRANCH  14  19
ATOM     18  C   UNL     1       5.328   6.572  16.784  0.00  0.00    +0.000 C 
ATOM     19  O   UNL     1       6.337   6.406  17.785  0.00  0.00    +0.000 OA
ENDBRANCH  14  19
ENDBRANCH   8  16
ENDBRANCH   1  13
BRANCH   5  20
ATOM     20  C   UNL     1       0.699   9.508  21.167  0.00  0.00    +0.000 A 
ATOM     21  C   UNL     1      -0.048   9.214  22.315  0.00  0.00    +0.000 A 
ATOM     22  C   UNL     1      -0.745  10.225  22.979  0.00  0.00    +0.000 A 
ATOM     23  C   UNL     1      -0.674  11.515  22.481  0.00  0.00    +0.000 A 
ATOM     24  N   UNL     1       0.035  11.847  21.384  0.00  0.00    +0.000 NA
ATOM     25  C   UNL     1       0.697  10.841  20.759  0.00  0.00    +0.000 A 
ENDBRANCH   5  20
TORSDOF 4
ENDMDL
MODEL 4
REMARK VINA RESULT:      -8.0      3.489      5.515
REMARK  Name = 
REMARK  6 active torsions:
REMARK  status: ('A' for Active; 'I' for Inactive)
REMARK    1  A    between atoms: C_1  and  O_2
REMARK    2  A    between atoms: O_2  and  C_3
REMARK    3  A    between atoms: N_5  and  C_6
REMARK    4  A    between atoms: C_11  and  C_12
REMARK    5  A    between atoms: C_14  and  C_15
REMARK    6  A    between atoms: C_16  and  C_17
REMARK                            x       y       z     vdW  Elec       q    Type
REMARK                         _______ _______ _______ _____ _____    ______ ____
ROOT
ATOM      1  C   UNL     1       2.554   6.592  19.643  0.00  0.00    +0.000 A 
ATOM      2  N   UNL     1       2.509   7.359  18.570  0.00  0.00    +0.000 NA
ATOM      3  C   UNL     1       1.844   8.510  18.939  0.00  0.00    +0.000 A 
ATOM      4  C   UNL     1       1.655   9.591  17.942  0.00  0.00    +0.000 C 
ATOM      5  C   UNL     1       1.435   8.445  20.265  0.00  0.00    +0.000 A 
ATOM      6  N   UNL     1       1.910   7.223  20.683  0.00  0.00    +0.000 N 
ATOM      7  H   UNL     1       1.749   6.813  21.590  0.00  0.00    +0.000 HD
ENDROOT
BRANCH   1  13
ATOM      8  C   UNL     1       4.355   4.894  19.121  0.00  0.00    +0.000 A 
ATOM      9  C   UNL     1       4.826   3.578  19.225  0.00  0.00    +0.000 A 
ATOM     10  C   UNL     1       4.101   2.601  19.903  0.00  0.00    +0.000 A 
ATOM     11  C   UNL     1       2.901   2.926  20.513  0.00  0.00    +0.000 A 
ATOM     12  C   UNL     1       2.429   4.239  20.444  0.00  0.00    +0.000 A 
ATOM     13  C   UNL     1       3.134   5.241  19.743  0.00  0.00    +0.000 A 
BRANCH   8  16
ATOM     14  C   UNL     1       5.309   5.909  17.054  0.00  0.00    +0.000 C 
ATOM     15  O   UNL     1       4.855   5.147  16.212  0.00  0.00    +0.000 OA
ATOM     16  N   UNL     1       5.095   5.873  18.407  0.00  0.00    +0.000 N 
ATOM     17  H   UNL     1       5.442   6.667  18.943  0.00  0.00    +0.000 HD
BRANCH  14  19
ATOM     18  C   UNL     1       7.315   6.998  17.496  0.00  0.00    +0.000 C 
ATOM     19  O   UNL     1       6.105   6.969  16.733  0.00  0.00    +0.000 OA
ENDBRANCH  14  19
ENDBRANCH   8  16
ENDBRANCH   1  13
BRANCH   5  20
ATOM     20  C   UNL     1       0.641   9.332  21.120  0.00  0.00    +0.000 A 
ATOM     21  C   UNL     1      -0.191  10.327  20.590  0.00  0.00    +0.000 A 
ATOM     22  C   UNL     1      -0.898  11.179  21.441  0.00  0.00    +0.000 A 
ATOM     23  C   UNL     1      -0.761  11.012  22.808  0.00  0.00    +0.000 A 
ATOM     24  N   UNL     1       0.022  10.067  23.364  0.00  0.00    +0.000 NA
ATOM     25  C   UNL     1       0.700   9.258  22.510  0.00  0.00    +0.000 A 
ENDBRANCH   5  20
TORSDOF 4
ENDMDL
MODEL 5
REMARK VINA RESULT:      -8.0      3.346      4.912
REMARK  Name = 
REMARK  6 active torsions:
REMARK  status: ('A' for Active; 'I' for Inactive)
REMARK    1  A    between atoms: C_1  and  O_2
REMARK    2  A    between atoms: O_2  and  C_3
REMARK    3  A    between atoms: N_5  and  C_6
REMARK    4  A    between atoms: C_11  and  C_12
REMARK    5  A    between atoms: C_14  and  C_15
REMARK    6  A    between atoms: C_16  and  C_17
REMARK                            x       y       z     vdW  Elec       q    Type
REMARK                         _______ _______ _______ _____ _____    ______ ____
ROOT
ATOM      1  C   UNL     1       2.466   6.843  18.565  0.00  0.00    +0.000 A 
ATOM      2  N   UNL     1       2.565   7.912  17.798  0.00  0.00    +0.000 NA
ATOM      3  C   UNL     1       2.034   8.962  18.518  0.00  0.00    +0.000 A 
ATOM      4  C   UNL     1       2.026  10.320  17.924  0.00  0.00    +0.000 C 
ATOM      5  C   UNL     1       1.560   8.531  19.751  0.00  0.00    +0.000 A 
ATOM      6  N   UNL     1       1.860   7.187  19.752  0.00  0.00    +0.000 N 
ATOM      7  H   UNL     1       1.607   6.533  20.478  0.00  0.00    +0.000 HD
ENDROOT
BRANCH   1  13
ATOM      8  C   UNL     1       4.186   5.137  17.836  0.00  0.00    +0.000 A 
ATOM      9  C   UNL     1       4.486   3.814  17.486  0.00  0.00    +0.000 A 
ATOM     10  C   UNL     1       3.505   2.825  17.485  0.00  0.00    +0.000 A 
ATOM     11  C   UNL     1       2.208   3.135  17.859  0.00  0.00    +0.000 A 
ATOM     12  C   UNL     1       1.896   4.443  18.238  0.00  0.00    +0.000 A 
ATOM     13  C   UNL     1       2.867   5.467  18.225  0.00  0.00    +0.000 A 
BRANCH   8  16
ATOM     14  C   UNL     1       5.720   6.738  16.697  0.00  0.00    +0.000 C 
ATOM     15  O   UNL     1       5.382   6.567  15.533  0.00  0.00    +0.000 OA
ATOM     16  N   UNL     1       5.192   6.139  17.811  0.00  0.00    +0.000 N 
ATOM     17  H   UNL     1       5.503   6.501  18.710  0.00  0.00    +0.000 HD
BRANCH  14  19
ATOM     18  C   UNL     1       7.665   7.034  17.935  0.00  0.00    +0.000 C 
ATOM     19  O   UNL     1       6.698   7.617  17.056  0.00  0.00    +0.000 OA
ENDBRANCH  14  19
ENDBRANCH   8  16
ENDBRANCH   1  13
BRANCH   5  20
ATOM     20  C   UNL     1       0.845   9.194  20.845  0.00  0.00    +0.000 A 
ATOM     21  C   UNL     1      -0.237  10.053  20.614  0.00  0.00    +0.000 A 
ATOM     22  C   UNL     1      -0.863  10.699  21.682  0.00  0.00    +0.000 A 
ATOM     23  C   UNL     1      -0.394  10.465  22.963  0.00  0.00    +0.000 A 
ATOM     24  N   UNL     1       0.640   9.645  23.235  0.00  0.00    +0.000 NA
ATOM     25  C   UNL     1       1.230   9.036  22.175  0.00  0.00    +0.000 A 
ENDBRANCH   5  20
TORSDOF 4
ENDMDL
MODEL 6
REMARK VINA RESULT:      -8.0      2.534      6.858
REMARK  Name = 
REMARK  6 active torsions:
REMARK  status: ('A' for Active; 'I' for Inactive)
REMARK    1  A    between atoms: C_1  and  O_2
REMARK    2  A    between atoms: O_2  and  C_3
REMARK    3  A    between atoms: N_5  and  C_6
REMARK    4  A    between atoms: C_11  and  C_12
REMARK    5  A    between atoms: C_14  and  C_15
REMARK    6  A    between atoms: C_16  and  C_17
REMARK                            x       y       z     vdW  Elec       q    Type
REMARK                         _______ _______ _______ _____ _____    ______ ____
ROOT
ATOM      1  C   UNL     1       3.273   6.045  18.025  0.00  0.00    +0.000 A 
ATOM      2  N   UNL     1       3.120   4.749  18.222  0.00  0.00    +0.000 NA
ATOM      3  C   UNL     1       3.988   4.116  17.355  0.00  0.00    +0.000 A 
ATOM      4  C   UNL     1       4.066   2.636  17.358  0.00  0.00    +0.000 C 
ATOM      5  C   UNL     1       4.673   5.039  16.575  0.00  0.00    +0.000 A 
ATOM      6  N   UNL     1       4.204   6.250  17.033  0.00  0.00    +0.000 N 
ATOM      7  H   UNL     1       4.447   7.152  16.651  0.00  0.00    +0.000 HD
ENDROOT
BRANCH   1  13
ATOM      8  C   UNL     1       2.120   7.052  20.040  0.00  0.00    +0.000 A 
ATOM      9  C   UNL     1       1.390   8.111  20.595  0.00  0.00    +0.000 A 
ATOM     10  C   UNL     1       1.045   9.228  19.839  0.00  0.00    +0.000 A 
ATOM     11  C   UNL     1       1.444   9.320  18.516  0.00  0.00    +0.000 A 
ATOM     12  C   UNL     1       2.196   8.287  17.952  0.00  0.00    +0.000 A 
ATOM     13  C   UNL     1       2.539   7.135  18.691  0.00  0.00    +0.000 A 
BRANCH   8  16
ATOM     14  C   UNL     1       1.681   4.784  20.974  0.00  0.00    +0.000 C 
ATOM     15  O   UNL     1       0.616   4.530  20.428  0.00  0.00    +0.000 OA
ATOM     16  N   UNL     1       2.446   5.910  20.817  0.00  0.00    +0.000 N 
ATOM     17  H   UNL     1       3.370   5.893  21.245  0.00  0.00    +0.000 HD
BRANCH  14  19
ATOM     18  C   UNL     1       2.332   2.579  21.325  0.00  0.00    +0.000 C 
ATOM     19  O   UNL     1       2.293   3.917  21.831  0.00  0.00    +0.000 OA
ENDBRANCH  14  19
ENDBRANCH   8  16
ENDBRANCH   1  13
BRANCH   5  20
ATOM     20  C   UNL     1       5.626   4.914  15.469  0.00  0.00    +0.000 A 
ATOM     21  C   UNL     1       5.346   4.151  14.328  0.00  0.00    +0.000 A 
ATOM     22  C   UNL     1       6.299   4.023  13.315  0.00  0.00    +0.000 A 
ATOM     23  C   UNL     1       7.514   4.670  13.466  0.00  0.00    +0.000 A 
ATOM     24  N   UNL     1       7.827   5.418  14.541  0.00  0.00    +0.000 NA
ATOM     25  C   UNL     1       6.881   5.518  15.509  0.00  0.00    +0.000 A 
ENDBRANCH   5  20
TORSDOF 4
ENDMDL
MODEL 7
REMARK VINA RESULT:      -7.9      3.912      6.441
REMARK  Name = 
REMARK  6 active torsions:
REMARK  status: ('A' for Active; 'I' for Inactive)
REMARK    1  A    between atoms: C_1  and  O_2
REMARK    2  A    between atoms: O_2  and  C_3
REMARK    3  A    between atoms: N_5  and  C_6
REMARK    4  A    between atoms: C_11  and  C_12
REMARK    5  A    between atoms: C_14  and  C_15
REMARK    6  A    between atoms: C_16  and  C_17
REMARK                            x       y       z     vdW  Elec       q    Type
REMARK                         _______ _______ _______ _____ _____    ______ ____
ROOT
ATOM      1  C   UNL     1       2.567   7.378  18.618  0.00  0.00    +0.000 A 
ATOM      2  N   UNL     1       2.302   7.320  19.909  0.00  0.00    +0.000 NA
ATOM      3  C   UNL     1       1.488   8.398  20.191  0.00  0.00    +0.000 A 
ATOM      4  C   UNL     1       0.993   8.593  21.575  0.00  0.00    +0.000 C 
ATOM      5  C   UNL     1       1.268   9.166  19.054  0.00  0.00    +0.000 A 
ATOM      6  N   UNL     1       1.957   8.485  18.075  0.00  0.00    +0.000 N 
ATOM      7  H   UNL     1       2.065   8.789  17.119  0.00  0.00    +0.000 HD
ENDROOT
BRANCH   1  13
ATOM      8  C   UNL     1       3.444   5.067  18.078  0.00  0.00    +0.000 A 
ATOM      9  C   UNL     1       4.318   4.262  17.335  0.00  0.00    +0.000 A 
ATOM     10  C   UNL     1       5.189   4.812  16.398  0.00  0.00    +0.000 A 
ATOM     11  C   UNL     1       5.186   6.177  16.166  0.00  0.00    +0.000 A 
ATOM     12  C   UNL     1       4.303   6.993  16.877  0.00  0.00    +0.000 A 
ATOM     13  C   UNL     1       3.427   6.462  17.848  0.00  0.00    +0.000 A 
BRANCH   8  16
ATOM     14  C   UNL     1       1.419   3.806  18.799  0.00  0.00    +0.000 C 
ATOM     15  O   UNL     1       0.954   3.505  17.708  0.00  0.00    +0.000 OA
ATOM     16  N   UNL     1       2.577   4.494  19.046  0.00  0.00    +0.000 N 
ATOM     17  H   UNL     1       2.881   4.537  20.017  0.00  0.00    +0.000 HD
BRANCH  14  19
ATOM     18  C   UNL     1       1.684   3.641  21.102  0.00  0.00    +0.000 C 
ATOM     19  O   UNL     1       0.827   3.447  19.973  0.00  0.00    +0.000 OA
ENDBRANCH  14  19
ENDBRANCH   8  16
ENDBRANCH   1  13
BRANCH   5  20
ATOM     20  C   UNL     1       0.567  10.430  18.811  0.00  0.00    +0.000 A 
ATOM     21  C   UNL     1      -0.772  10.471  18.404  0.00  0.00    +0.000 A 
ATOM     22  C   UNL     1      -1.390  11.696  18.142  0.00  0.00    +0.000 A 
ATOM     23  C   UNL     1      -0.652  12.857  18.300  0.00  0.00    +0.000 A 
ATOM     24  N   UNL     1       0.636  12.867  18.694  0.00  0.00    +0.000 NA
ATOM     25  C   UNL     1       1.209  11.661  18.936  0.00  0.00    +0.000 A 
ENDBRANCH   5  20
TORSDOF 4
ENDMDL
MODEL 8
REMARK VINA RESULT:      -7.8      3.948      6.558
REMARK  Name = 
REMARK  6 active torsions:
REMARK  status: ('A' for Active; 'I' for Inactive)
REMARK    1  A    between atoms: C_1  and  O_2
REMARK    2  A    between atoms: O_2  and  C_3
REMARK    3  A    between atoms: N_5  and  C_6
REMARK    4  A    between atoms: C_11  and  C_12
REMARK    5  A    between atoms: C_14  and  C_15
REMARK    6  A    between atoms: C_16  and  C_17
REMARK                            x       y       z     vdW  Elec       q    Type
REMARK                         _______ _______ _______ _____ _____    ______ ____
ROOT
ATOM      1  C   UNL     1       2.567   7.412  18.608  0.00  0.00    +0.000 A 
ATOM      2  N   UNL     1       2.213   7.341  19.876  0.00  0.00    +0.000 NA
ATOM      3  C   UNL     1       1.451   8.461  20.135  0.00  0.00    +0.000 A 
ATOM      4  C   UNL     1       0.879   8.654  21.489  0.00  0.00    +0.000 C 
ATOM      5  C   UNL     1       1.357   9.269  19.009  0.00  0.00    +0.000 A 
ATOM      6  N   UNL     1       2.065   8.570  18.058  0.00  0.00    +0.000 N 
ATOM      7  H   UNL     1       2.255   8.888  17.120  0.00  0.00    +0.000 HD
ENDROOT
BRANCH   1  13
ATOM      8  C   UNL     1       3.412   5.074  18.139  0.00  0.00    +0.000 A 
ATOM      9  C   UNL     1       4.278   4.235  17.425  0.00  0.00    +0.000 A 
ATOM     10  C   UNL     1       5.163   4.745  16.478  0.00  0.00    +0.000 A 
ATOM     11  C   UNL     1       5.182   6.103  16.207  0.00  0.00    +0.000 A 
ATOM     12  C   UNL     1       4.307   6.952  16.889  0.00  0.00    +0.000 A 
ATOM     13  C   UNL     1       3.417   6.462  17.869  0.00  0.00    +0.000 A 
BRANCH   8  16
ATOM     14  C   UNL     1       1.409   3.792  18.884  0.00  0.00    +0.000 C 
ATOM     15  O   UNL     1       0.998   3.390  17.803  0.00  0.00    +0.000 OA
ATOM     16  N   UNL     1       2.531   4.542  19.117  0.00  0.00    +0.000 N 
ATOM     17  H   UNL     1       2.796   4.671  20.092  0.00  0.00    +0.000 HD
BRANCH  14  19
ATOM     18  C   UNL     1       1.699   3.423  21.161  0.00  0.00    +0.000 C 
ATOM     19  O   UNL     1       0.786   3.500  20.061  0.00  0.00    +0.000 OA
ENDBRANCH  14  19
ENDBRANCH   8  16
ENDBRANCH   1  13
BRANCH   5  20
ATOM     20  C   UNL     1       0.754  10.581  18.757  0.00  0.00    +0.000 A 
ATOM     21  C   UNL     1       1.506  11.762  18.780  0.00  0.00    +0.000 A 
ATOM     22  C   UNL     1       0.885  12.996  18.576  0.00  0.00    +0.000 A 
ATOM     23  C   UNL     1      -0.480  13.019  18.347  0.00  0.00    +0.000 A 
ATOM     24  N   UNL     1      -1.244  11.911  18.311  0.00  0.00    +0.000 NA
ATOM     25  C   UNL     1      -0.611  10.728  18.518  0.00  0.00    +0.000 A 
ENDBRANCH   5  20
TORSDOF 4
ENDMDL
MODEL 9
REMARK VINA RESULT:      -7.7      3.620      5.903
REMARK  Name = 
REMARK  6 active torsions:
REMARK  status: ('A' for Active; 'I' for Inactive)
REMARK    1  A    between atoms: C_1  and  O_2
REMARK    2  A    between atoms: O_2  and  C_3
REMARK    3  A    between atoms: N_5  and  C_6
REMARK    4  A    between atoms: C_11  and  C_12
REMARK    5  A    between atoms: C_14  and  C_15
REMARK    6  A    between atoms: C_16  and  C_17
REMARK                            x       y       z     vdW  Elec       q    Type
REMARK                         _______ _______ _______ _____ _____    ______ ____
ROOT
ATOM      1  C   UNL     1       2.288   6.647  19.853  0.00  0.00    +0.000 A 
ATOM      2  N   UNL     1       2.363   7.394  18.768  0.00  0.00    +0.000 NA
ATOM      3  C   UNL     1       1.755   8.593  19.073  0.00  0.00    +0.000 A 
ATOM      4  C   UNL     1       1.703   9.664  18.049  0.00  0.00    +0.000 C 
ATOM      5  C   UNL     1       1.256   8.583  20.370  0.00  0.00    +0.000 A 
ATOM      6  N   UNL     1       1.621   7.340  20.838  0.00  0.00    +0.000 N 
ATOM      7  H   UNL     1       1.374   6.960  21.740  0.00  0.00    +0.000 HD
ENDROOT
BRANCH   1  13
ATOM      8  C   UNL     1       3.936   4.789  19.373  0.00  0.00    +0.000 A 
ATOM      9  C   UNL     1       4.310   3.449  19.538  0.00  0.00    +0.000 A 
ATOM     10  C   UNL     1       3.539   2.570  20.295  0.00  0.00    +0.000 A 
ATOM     11  C   UNL     1       2.390   3.020  20.924  0.00  0.00    +0.000 A 
ATOM     12  C   UNL     1       2.016   4.359  20.794  0.00  0.00    +0.000 A 
ATOM     13  C   UNL     1       2.768   5.264  20.013  0.00  0.00    +0.000 A 
BRANCH   8  16
ATOM     14  C   UNL     1       4.996   5.535  17.244  0.00  0.00    +0.000 C 
ATOM     15  O   UNL     1       4.571   4.679  16.481  0.00  0.00    +0.000 OA
ATOM     16  N   UNL     1       4.720   5.668  18.580  0.00  0.00    +0.000 N 
ATOM     17  H   UNL     1       5.053   6.519  19.030  0.00  0.00    +0.000 HD
BRANCH  14  19
ATOM     18  C   UNL     1       7.204   6.223  17.004  0.00  0.00    +0.000 C 
ATOM     19  O   UNL     1       5.820   6.542  16.833  0.00  0.00    +0.000 OA
ENDBRANCH  14  19
ENDBRANCH   8  16
ENDBRANCH   1  13
BRANCH   5  20
ATOM     20  C   UNL     1       0.470   9.537  21.156  0.00  0.00    +0.000 A 
ATOM     21  C   UNL     1       0.118   9.291  22.489  0.00  0.00    +0.000 A 
ATOM     22  C   UNL     1      -0.669  10.208  23.190  0.00  0.00    +0.000 A 
ATOM     23  C   UNL     1      -1.082  11.358  22.539  0.00  0.00    +0.000 A 
ATOM     24  N   UNL     1      -0.764  11.641  21.261  0.00  0.00    +0.000 NA
ATOM     25  C   UNL     1      -0.003  10.727  20.607  0.00  0.00    +0.000 A 
ENDBRANCH   5  20
TORSDOF 4
ENDMDL
