MODEL 1
REMARK VINA RESULT:      -8.7      0.000      0.000
REMARK  Name = 
REMARK  4 active torsions:
REMARK  status: ('A' for Active; 'I' for Inactive)
REMARK    1  A    between atoms: C_1  and  N_2
REMARK    2  A    between atoms: N_5  and  C_6
REMARK    3  A    between atoms: N_13  and  C_14
REMARK    4  A    between atoms: C_17  and  C_18
REMARK                            x       y       z     vdW  Elec       q    Type
REMARK                         _______ _______ _______ _____ _____    ______ ____
ROOT
ATOM      1  C   UNL     1       0.931   9.986  19.638  0.00  0.00    +0.000 A 
ATOM      2  C   UNL     1       0.749   9.362  20.884  0.00  0.00    +0.000 A 
ATOM      3  C   UNL     1       1.201   8.065  21.136  0.00  0.00    +0.000 A 
ATOM      4  C   UNL     1       1.888   7.384  20.143  0.00  0.00    +0.000 A 
ATOM      5  C   UNL     1       2.119   7.976  18.910  0.00  0.00    +0.000 A 
ATOM      6  C   UNL     1       1.616   9.263  18.653  0.00  0.00    +0.000 A 
ATOM      7  C   UNL     1       2.824   7.162  17.873  0.00  0.00    +0.000 C 
ATOM      8  N   UNL     1       3.701   6.137  18.438  0.00  0.00    +0.000 N 
ATOM      9  C   UNL     1       3.293   5.456  19.585  0.00  0.00    +0.000 C 
ATOM     10  O   UNL     1       3.689   4.357  19.974  0.00  0.00    +0.000 OA
ATOM     11  N   UNL     1       2.364   6.099  20.369  0.00  0.00    +0.000 N 
ATOM     12  H   UNL     1       2.157   5.624  21.237  0.00  0.00    +0.000 HD
ENDROOT
BRANCH   1  17
ATOM     13  C   UNL     1      -0.944  15.227  19.941  0.00  0.00    +0.000 C 
ATOM     14  N   UNL     1      -0.630  13.952  19.300  0.00  0.00    +0.000 NA
ATOM     15  C   UNL     1      -1.401  12.848  19.922  0.00  0.00    +0.000 C 
ATOM     16  C   UNL     1      -1.064  11.460  19.318  0.00  0.00    +0.000 C 
ATOM     17  N   UNL     1       0.384  11.233  19.418  0.00  0.00    +0.000 N 
ATOM     18  C   UNL     1       1.194  12.294  18.796  0.00  0.00    +0.000 C 
ATOM     19  C   UNL     1       0.818  13.659  19.416  0.00  0.00    +0.000 C 
ENDBRANCH   1  17
BRANCH   8  20
ATOM     20  C   UNL     1       4.863   5.724  17.769  0.00  0.00    +0.000 A 
ATOM     21  C   UNL     1       6.060   5.422  18.386  0.00  0.00    +0.000 A 
ATOM     22  S   UNL     1       7.207   4.868  17.249  0.00  0.00    +0.000 S 
ATOM     23  C   UNL     1       6.033   5.036  15.994  0.00  0.00    +0.000 A 
ATOM     24  N   UNL     1       4.875   5.514  16.400  0.00  0.00    +0.000 NA
BRANCH  23  25
ATOM     25  C   UNL     1       6.366   4.692  14.602  0.00  0.00    +0.000 A 
ATOM     26  C   UNL     1       5.621   3.758  13.868  0.00  0.00    +0.000 A 
ATOM     27  C   UNL     1       6.011   3.460  12.573  0.00  0.00    +0.000 A 
ATOM     28  N   UNL     1       7.073   4.025  11.963  0.00  0.00    +0.000 NA
ATOM     29  C   UNL     1       7.764   4.939  12.674  0.00  0.00    +0.000 A 
ATOM     30  C   UNL     1       7.452   5.306  13.976  0.00  0.00    +0.000 A 
ENDBRANCH  23  25
ENDBRANCH   8  20
TORSDOF 3
ENDMDL
MODEL 2
REMARK VINA RESULT:      -8.7      0.652      1.190
REMARK  Name = 
REMARK  4 active torsions:
REMARK  status: ('A' for Active; 'I' for Inactive)
REMARK    1  A    between atoms: C_1  and  N_2
REMARK    2  A    between atoms: N_5  and  C_6
REMARK    3  A    between atoms: N_13  and  C_14
REMARK    4  A    between atoms: C_17  and  C_18
REMARK                            x       y       z     vdW  Elec       q    Type
REMARK                         _______ _______ _______ _____ _____    ______ ____
ROOT
ATOM      1  C   UNL     1       0.916   9.785  19.971  0.00  0.00    +0.000 A 
ATOM      2  C   UNL     1       0.698   9.060  21.156  0.00  0.00    +0.000 A 
ATOM      3  C   UNL     1       1.137   7.743  21.311  0.00  0.00    +0.000 A 
ATOM      4  C   UNL     1       1.845   7.143  20.282  0.00  0.00    +0.000 A 
ATOM      5  C   UNL     1       2.112   7.833  19.110  0.00  0.00    +0.000 A 
ATOM      6  C   UNL     1       1.622   9.141  18.948  0.00  0.00    +0.000 A 
ATOM      7  C   UNL     1       2.840   7.104  18.026  0.00  0.00    +0.000 C 
ATOM      8  N   UNL     1       3.697   6.029  18.526  0.00  0.00    +0.000 N 
ATOM      9  C   UNL     1       3.255   5.258  19.602  0.00  0.00    +0.000 C 
ATOM     10  O   UNL     1       3.635   4.127  19.907  0.00  0.00    +0.000 OA
ATOM     11  N   UNL     1       2.309   5.839  20.412  0.00  0.00    +0.000 N 
ATOM     12  H   UNL     1       2.077   5.296  21.232  0.00  0.00    +0.000 HD
ENDROOT
BRANCH   1  17
ATOM     13  C   UNL     1      -0.165  15.142  18.874  0.00  0.00    +0.000 C 
ATOM     14  N   UNL     1      -0.445  13.791  19.353  0.00  0.00    +0.000 NA
ATOM     15  C   UNL     1       0.469  13.428  20.464  0.00  0.00    +0.000 C 
ATOM     16  C   UNL     1       0.255  11.979  20.974  0.00  0.00    +0.000 C 
ATOM     17  N   UNL     1       0.381  11.050  19.843  0.00  0.00    +0.000 N 
ATOM     18  C   UNL     1      -0.523  11.357  18.721  0.00  0.00    +0.000 C 
ATOM     19  C   UNL     1      -0.286  12.810  18.253  0.00  0.00    +0.000 C 
ENDBRANCH   1  17
BRANCH   8  20
ATOM     20  C   UNL     1       4.874   5.665  17.854  0.00  0.00    +0.000 A 
ATOM     21  C   UNL     1       6.082   5.408  18.470  0.00  0.00    +0.000 A 
ATOM     22  S   UNL     1       7.249   4.904  17.330  0.00  0.00    +0.000 S 
ATOM     23  C   UNL     1       6.069   5.030  16.077  0.00  0.00    +0.000 A 
ATOM     24  N   UNL     1       4.893   5.461  16.485  0.00  0.00    +0.000 NA
BRANCH  23  25
ATOM     25  C   UNL     1       6.414   4.705  14.683  0.00  0.00    +0.000 A 
ATOM     26  C   UNL     1       7.492   5.312  14.023  0.00  0.00    +0.000 A 
ATOM     27  C   UNL     1       7.739   4.980  12.701  0.00  0.00    +0.000 A 
ATOM     28  N   UNL     1       7.002   4.093  12.002  0.00  0.00    +0.000 NA
ATOM     29  C   UNL     1       5.984   3.500  12.659  0.00  0.00    +0.000 A 
ATOM     30  C   UNL     1       5.658   3.763  13.983  0.00  0.00    +0.000 A 
ENDBRANCH  23  25
ENDBRANCH   8  20
TORSDOF 3
ENDMDL
MODEL 3
REMARK VINA RESULT:      -8.6      0.550      1.031
REMARK  Name = 
REMARK  4 active torsions:
REMARK  status: ('A' for Active; 'I' for Inactive)
REMARK    1  A    between atoms: C_1  and  N_2
REMARK    2  A    between atoms: N_5  and  C_6
REMARK    3  A    between atoms: N_13  and  C_14
REMARK    4  A    between atoms: C_17  and  C_18
REMARK                            x       y       z     vdW  Elec       q    Type
REMARK                         _______ _______ _______ _____ _____    ______ ____
ROOT
ATOM      1  C   UNL     1       1.010   9.660  19.857  0.00  0.00    +0.000 A 
ATOM      2  C   UNL     1       0.810   8.943  21.049  0.00  0.00    +0.000 A 
ATOM      3  C   UNL     1       1.260   7.631  21.209  0.00  0.00    +0.000 A 
ATOM      4  C   UNL     1       1.963   7.028  20.177  0.00  0.00    +0.000 A 
ATOM      5  C   UNL     1       2.211   7.711  18.997  0.00  0.00    +0.000 A 
ATOM      6  C   UNL     1       1.710   9.014  18.830  0.00  0.00    +0.000 A 
ATOM      7  C   UNL     1       2.932   6.978  17.911  0.00  0.00    +0.000 C 
ATOM      8  N   UNL     1       3.803   5.914  18.410  0.00  0.00    +0.000 N 
ATOM      9  C   UNL     1       3.379   5.148  19.496  0.00  0.00    +0.000 C 
ATOM     10  O   UNL     1       3.771   4.023  19.806  0.00  0.00    +0.000 OA
ATOM     11  N   UNL     1       2.437   5.729  20.313  0.00  0.00    +0.000 N 
ATOM     12  H   UNL     1       2.218   5.190  21.139  0.00  0.00    +0.000 HD
ENDROOT
BRANCH   1  17
ATOM     13  C   UNL     1      -1.698  14.497  20.442  0.00  0.00    +0.000 C 
ATOM     14  N   UNL     1      -0.806  13.531  19.807  0.00  0.00    +0.000 NA
ATOM     15  C   UNL     1      -1.547  12.304  19.427  0.00  0.00    +0.000 C 
ATOM     16  C   UNL     1      -0.637  11.217  18.798  0.00  0.00    +0.000 C 
ATOM     17  N   UNL     1       0.464  10.920  19.724  0.00  0.00    +0.000 N 
ATOM     18  C   UNL     1       1.245  12.106  20.116  0.00  0.00    +0.000 C 
ATOM     19  C   UNL     1       0.299  13.166  20.724  0.00  0.00    +0.000 C 
ENDBRANCH   1  17
BRANCH   8  20
ATOM     20  C   UNL     1       4.975   5.554  17.728  0.00  0.00    +0.000 A 
ATOM     21  C   UNL     1       6.186   5.288  18.335  0.00  0.00    +0.000 A 
ATOM     22  S   UNL     1       7.346   4.792  17.184  0.00  0.00    +0.000 S 
ATOM     23  C   UNL     1       6.159   4.932  15.938  0.00  0.00    +0.000 A 
ATOM     24  N   UNL     1       4.987   5.362  16.357  0.00  0.00    +0.000 NA
BRANCH  23  25
ATOM     25  C   UNL     1       6.496   4.619  14.540  0.00  0.00    +0.000 A 
ATOM     26  C   UNL     1       7.556   5.246  13.872  0.00  0.00    +0.000 A 
ATOM     27  C   UNL     1       7.796   4.925  12.546  0.00  0.00    +0.000 A 
ATOM     28  N   UNL     1       7.067   4.029  11.850  0.00  0.00    +0.000 NA
ATOM     29  C   UNL     1       6.065   3.416  12.514  0.00  0.00    +0.000 A 
ATOM     30  C   UNL     1       5.748   3.668  13.842  0.00  0.00    +0.000 A 
ENDBRANCH  23  25
ENDBRANCH   8  20
TORSDOF 3
ENDMDL
MODEL 4
REMARK VINA RESULT:      -7.9      3.243      9.656
REMARK  Name = 
REMARK  4 active torsions:
REMARK  status: ('A' for Active; 'I' for Inactive)
REMARK    1  A    between atoms: C_1  and  N_2
REMARK    2  A    between atoms: N_5  and  C_6
REMARK    3  A    between atoms: N_13  and  C_14
REMARK    4  A    between atoms: C_17  and  C_18
REMARK                            x       y       z     vdW  Elec       q    Type
REMARK                         _______ _______ _______ _____ _____    ______ ____
ROOT
ATOM      1  C   UNL     1       3.796   5.907  17.852  0.00  0.00    +0.000 A 
ATOM      2  C   UNL     1       3.320   5.118  18.913  0.00  0.00    +0.000 A 
ATOM      3  C   UNL     1       2.536   5.651  19.939  0.00  0.00    +0.000 A 
ATOM      4  C   UNL     1       2.179   6.989  19.891  0.00  0.00    +0.000 A 
ATOM      5  C   UNL     1       2.598   7.796  18.844  0.00  0.00    +0.000 A 
ATOM      6  C   UNL     1       3.428   7.258  17.844  0.00  0.00    +0.000 A 
ATOM      7  C   UNL     1       2.215   9.240  18.885  0.00  0.00    +0.000 C 
ATOM      8  N   UNL     1       0.985   9.491  19.637  0.00  0.00    +0.000 N 
ATOM      9  C   UNL     1       0.738   8.753  20.794  0.00  0.00    +0.000 C 
ATOM     10  O   UNL     1      -0.009   9.061  21.723  0.00  0.00    +0.000 OA
ATOM     11  N   UNL     1       1.387   7.544  20.888  0.00  0.00    +0.000 N 
ATOM     12  H   UNL     1       1.118   6.992  21.691  0.00  0.00    +0.000 HD
ENDROOT
BRANCH   1  17
ATOM     13  C   UNL     1       6.184   3.638  13.355  0.00  0.00    +0.000 C 
ATOM     14  N   UNL     1       6.130   4.202  14.702  0.00  0.00    +0.000 NA
ATOM     15  C   UNL     1       5.266   3.378  15.582  0.00  0.00    +0.000 C 
ATOM     16  C   UNL     1       5.126   3.963  17.012  0.00  0.00    +0.000 C 
ATOM     17  N   UNL     1       4.641   5.346  16.917  0.00  0.00    +0.000 N 
ATOM     18  C   UNL     1       5.479   6.212  16.069  0.00  0.00    +0.000 C 
ATOM     19  C   UNL     1       5.603   5.586  14.661  0.00  0.00    +0.000 C 
ENDBRANCH   1  17
BRANCH   8  20
ATOM     20  C   UNL     1       0.133  10.554  19.302  0.00  0.00    +0.000 A 
ATOM     21  C   UNL     1       0.537  11.865  19.144  0.00  0.00    +0.000 A 
ATOM     22  S   UNL     1      -0.768  12.847  18.645  0.00  0.00    +0.000 S 
ATOM     23  C   UNL     1      -1.799  11.462  18.639  0.00  0.00    +0.000 A 
ATOM     24  N   UNL     1      -1.208  10.350  19.026  0.00  0.00    +0.000 NA
BRANCH  23  25
ATOM     25  C   UNL     1      -3.216  11.581  18.259  0.00  0.00    +0.000 A 
ATOM     26  C   UNL     1      -3.668  11.270  16.969  0.00  0.00    +0.000 A 
ATOM     27  C   UNL     1      -5.011  11.436  16.674  0.00  0.00    +0.000 A 
ATOM     28  N   UNL     1      -5.924  11.876  17.562  0.00  0.00    +0.000 NA
ATOM     29  C   UNL     1      -5.477  12.147  18.806  0.00  0.00    +0.000 A 
ATOM     30  C   UNL     1      -4.153  12.012  19.200  0.00  0.00    +0.000 A 
ENDBRANCH  23  25
ENDBRANCH   8  20
TORSDOF 3
ENDMDL
MODEL 5
REMARK VINA RESULT:      -7.9      3.352      9.668
REMARK  Name = 
REMARK  4 active torsions:
REMARK  status: ('A' for Active; 'I' for Inactive)
REMARK    1  A    between atoms: C_1  and  N_2
REMARK    2  A    between atoms: N_5  and  C_6
REMARK    3  A    between atoms: N_13  and  C_14
REMARK    4  A    between atoms: C_17  and  C_18
REMARK                            x       y       z     vdW  Elec       q    Type
REMARK                         _______ _______ _______ _____ _____    ______ ____
ROOT
ATOM      1  C   UNL     1       3.507   5.995  18.297  0.00  0.00    +0.000 A 
ATOM      2  C   UNL     1       2.961   5.142  19.272  0.00  0.00    +0.000 A 
ATOM      3  C   UNL     1       2.120   5.615  20.283  0.00  0.00    +0.000 A 
ATOM      4  C   UNL     1       1.778   6.958  20.303  0.00  0.00    +0.000 A 
ATOM      5  C   UNL     1       2.268   7.827  19.340  0.00  0.00    +0.000 A 
ATOM      6  C   UNL     1       3.152   7.348  18.358  0.00  0.00    +0.000 A 
ATOM      7  C   UNL     1       1.895   9.271  19.455  0.00  0.00    +0.000 C 
ATOM      8  N   UNL     1       0.623   9.486  20.147  0.00  0.00    +0.000 N 
ATOM      9  C   UNL     1       0.300   8.676  21.235  0.00  0.00    +0.000 C 
ATOM     10  O   UNL     1      -0.499   8.931  22.136  0.00  0.00    +0.000 OA
ATOM     11  N   UNL     1       0.931   7.455  21.286  0.00  0.00    +0.000 N 
ATOM     12  H   UNL     1       0.610   6.855  22.032  0.00  0.00    +0.000 HD
ENDROOT
BRANCH   1  17
ATOM     13  C   UNL     1       6.123   3.907  13.839  0.00  0.00    +0.000 C 
ATOM     14  N   UNL     1       6.005   4.446  15.192  0.00  0.00    +0.000 NA
ATOM     15  C   UNL     1       5.153   3.570  16.033  0.00  0.00    +0.000 C 
ATOM     16  C   UNL     1       4.945   4.125  17.467  0.00  0.00    +0.000 C 
ATOM     17  N   UNL     1       4.403   5.487  17.379  0.00  0.00    +0.000 N 
ATOM     18  C   UNL     1       5.226   6.402  16.569  0.00  0.00    +0.000 C 
ATOM     19  C   UNL     1       5.418   5.806  15.157  0.00  0.00    +0.000 C 
ENDBRANCH   1  17
BRANCH   8  20
ATOM     20  C   UNL     1      -0.198  10.580  19.834  0.00  0.00    +0.000 A 
ATOM     21  C   UNL     1       0.200  11.901  19.885  0.00  0.00    +0.000 A 
ATOM     22  S   UNL     1      -1.047  12.933  19.342  0.00  0.00    +0.000 S 
ATOM     23  C   UNL     1      -2.044  11.557  19.041  0.00  0.00    +0.000 A 
ATOM     24  N   UNL     1      -1.489  10.408  19.366  0.00  0.00    +0.000 NA
BRANCH  23  25
ATOM     25  C   UNL     1      -3.404  11.718  18.499  0.00  0.00    +0.000 A 
ATOM     26  C   UNL     1      -4.464  12.197  19.280  0.00  0.00    +0.000 A 
ATOM     27  C   UNL     1      -5.723  12.293  18.713  0.00  0.00    +0.000 A 
ATOM     28  N   UNL     1      -5.997  11.955  17.436  0.00  0.00    +0.000 NA
ATOM     29  C   UNL     1      -4.960  11.519  16.690  0.00  0.00    +0.000 A 
ATOM     30  C   UNL     1      -3.663  11.390  17.167  0.00  0.00    +0.000 A 
ENDBRANCH  23  25
ENDBRANCH   8  20
TORSDOF 3
ENDMDL
MODEL 6
REMARK VINA RESULT:      -7.7      4.437     11.061
REMARK  Name = 
REMARK  4 active torsions:
REMARK  status: ('A' for Active; 'I' for Inactive)
REMARK    1  A    between atoms: C_1  and  N_2
REMARK    2  A    between atoms: N_5  and  C_6
REMARK    3  A    between atoms: N_13  and  C_14
REMARK    4  A    between atoms: C_17  and  C_18
REMARK                            x       y       z     vdW  Elec       q    Type
REMARK                         _______ _______ _______ _____ _____    ______ ____
ROOT
ATOM      1  C   UNL     1       2.640   7.009  19.223  0.00  0.00    +0.000 A 
ATOM      2  C   UNL     1       3.126   7.703  18.102  0.00  0.00    +0.000 A 
ATOM      3  C   UNL     1       2.573   8.916  17.684  0.00  0.00    +0.000 A 
ATOM      4  C   UNL     1       1.539   9.475  18.419  0.00  0.00    +0.000 A 
ATOM      5  C   UNL     1       1.052   8.840  19.551  0.00  0.00    +0.000 A 
ATOM      6  C   UNL     1       1.585   7.596  19.933  0.00  0.00    +0.000 A 
ATOM      7  C   UNL     1      -0.096   9.479  20.265  0.00  0.00    +0.000 C 
ATOM      8  N   UNL     1      -0.157  10.929  20.080  0.00  0.00    +0.000 N 
ATOM      9  C   UNL     1       0.174  11.466  18.836  0.00  0.00    +0.000 C 
ATOM     10  O   UNL     1      -0.163  12.563  18.390  0.00  0.00    +0.000 OA
ATOM     11  N   UNL     1       0.979  10.688  18.038  0.00  0.00    +0.000 N 
ATOM     12  H   UNL     1       1.276  11.140  17.185  0.00  0.00    +0.000 HD
ENDROOT
BRANCH   1  17
ATOM     13  C   UNL     1       4.274   1.681  19.377  0.00  0.00    +0.000 C 
ATOM     14  N   UNL     1       4.173   3.065  19.835  0.00  0.00    +0.000 NA
ATOM     15  C   UNL     1       2.764   3.420  20.127  0.00  0.00    +0.000 C 
ATOM     16  C   UNL     1       2.590   4.898  20.564  0.00  0.00    +0.000 C 
ATOM     17  N   UNL     1       3.167   5.772  19.534  0.00  0.00    +0.000 N 
ATOM     18  C   UNL     1       4.575   5.472  19.223  0.00  0.00    +0.000 C 
ATOM     19  C   UNL     1       4.705   3.990  18.806  0.00  0.00    +0.000 C 
ENDBRANCH   1  17
BRANCH   8  20
ATOM     20  C   UNL     1      -0.683  11.767  21.075  0.00  0.00    +0.000 A 
ATOM     21  C   UNL     1       0.005  12.801  21.676  0.00  0.00    +0.000 A 
ATOM     22  S   UNL     1      -1.000  13.648  22.766  0.00  0.00    +0.000 S 
ATOM     23  C   UNL     1      -2.313  12.605  22.355  0.00  0.00    +0.000 A 
ATOM     24  N   UNL     1      -2.000  11.661  21.490  0.00  0.00    +0.000 NA
BRANCH  23  25
ATOM     25  C   UNL     1      -3.635  12.779  22.976  0.00  0.00    +0.000 A 
ATOM     26  C   UNL     1      -3.871  12.471  24.323  0.00  0.00    +0.000 A 
ATOM     27  C   UNL     1      -5.149  12.631  24.832  0.00  0.00    +0.000 A 
ATOM     28  N   UNL     1      -6.194  13.077  24.105  0.00  0.00    +0.000 NA
ATOM     29  C   UNL     1      -5.945  13.392  22.818  0.00  0.00    +0.000 A 
ATOM     30  C   UNL     1      -4.700  13.269  22.216  0.00  0.00    +0.000 A 
ENDBRANCH  23  25
ENDBRANCH   8  20
TORSDOF 3
ENDMDL
MODEL 7
REMARK VINA RESULT:      -7.7      4.570     11.275
REMARK  Name = 
REMARK  4 active torsions:
REMARK  status: ('A' for Active; 'I' for Inactive)
REMARK    1  A    between atoms: C_1  and  N_2
REMARK    2  A    between atoms: N_5  and  C_6
REMARK    3  A    between atoms: N_13  and  C_14
REMARK    4  A    between atoms: C_17  and  C_18
REMARK                            x       y       z     vdW  Elec       q    Type
REMARK                         _______ _______ _______ _____ _____    ______ ____
ROOT
ATOM      1  C   UNL     1       2.232   7.432  19.284  0.00  0.00    +0.000 A 
ATOM      2  C   UNL     1       2.644   8.071  18.102  0.00  0.00    +0.000 A 
ATOM      3  C   UNL     1       2.085   9.280  17.681  0.00  0.00    +0.000 A 
ATOM      4  C   UNL     1       1.124   9.891  18.470  0.00  0.00    +0.000 A 
ATOM      5  C   UNL     1       0.713   9.311  19.660  0.00  0.00    +0.000 A 
ATOM      6  C   UNL     1       1.248   8.070  20.049  0.00  0.00    +0.000 A 
ATOM      7  C   UNL     1      -0.363  10.004  20.434  0.00  0.00    +0.000 C 
ATOM      8  N   UNL     1      -0.408  11.447  20.197  0.00  0.00    +0.000 N 
ATOM      9  C   UNL     1      -0.164  11.928  18.911  0.00  0.00    +0.000 C 
ATOM     10  O   UNL     1      -0.511  13.016  18.450  0.00  0.00    +0.000 OA
ATOM     11  N   UNL     1       0.561  11.101  18.085  0.00  0.00    +0.000 N 
ATOM     12  H   UNL     1       0.800  11.514  17.194  0.00  0.00    +0.000 HD
ENDROOT
BRANCH   1  17
ATOM     13  C   UNL     1       3.865   2.105  19.463  0.00  0.00    +0.000 C 
ATOM     14  N   UNL     1       3.759   3.489  19.918  0.00  0.00    +0.000 NA
ATOM     15  C   UNL     1       2.346   3.844  20.195  0.00  0.00    +0.000 C 
ATOM     16  C   UNL     1       2.168   5.323  20.628  0.00  0.00    +0.000 C 
ATOM     17  N   UNL     1       2.755   6.195  19.602  0.00  0.00    +0.000 N 
ATOM     18  C   UNL     1       4.167   5.895  19.306  0.00  0.00    +0.000 C 
ATOM     19  C   UNL     1       4.301   4.412  18.893  0.00  0.00    +0.000 C 
ENDBRANCH   1  17
BRANCH   8  20
ATOM     20  C   UNL     1      -0.838  12.334  21.196  0.00  0.00    +0.000 A 
ATOM     21  C   UNL     1      -0.009  13.175  21.909  0.00  0.00    +0.000 A 
ATOM     22  S   UNL     1      -0.912  14.168  22.965  0.00  0.00    +0.000 S 
ATOM     23  C   UNL     1      -2.369  13.440  22.391  0.00  0.00    +0.000 A 
ATOM     24  N   UNL     1      -2.180  12.489  21.499  0.00  0.00    +0.000 NA
BRANCH  23  25
ATOM     25  C   UNL     1      -3.678  13.861  22.916  0.00  0.00    +0.000 A 
ATOM     26  C   UNL     1      -4.780  12.996  22.946  0.00  0.00    +0.000 A 
ATOM     27  C   UNL     1      -5.990  13.471  23.425  0.00  0.00    +0.000 A 
ATOM     28  N   UNL     1      -6.175  14.728  23.876  0.00  0.00    +0.000 NA
ATOM     29  C   UNL     1      -5.098  15.540  23.863  0.00  0.00    +0.000 A 
ATOM     30  C   UNL     1      -3.845  15.158  23.405  0.00  0.00    +0.000 A 
ENDBRANCH  23  25
ENDBRANCH   8  20
TORSDOF 3
ENDMDL
MODEL 8
REMARK VINA RESULT:      -7.7      3.007      9.346
REMARK  Name = 
REMARK  4 active torsions:
REMARK  status: ('A' for Active; 'I' for Inactive)
REMARK    1  A    between atoms: C_1  and  N_2
REMARK    2  A    between atoms: N_5  and  C_6
REMARK    3  A    between atoms: N_13  and  C_14
REMARK    4  A    between atoms: C_17  and  C_18
REMARK                            x       y       z     vdW  Elec       q    Type
REMARK                         _______ _______ _______ _____ _____    ______ ____
ROOT
ATOM      1  C   UNL     1       4.418   5.383  17.114  0.00  0.00    +0.000 A 
ATOM      2  C   UNL     1       4.012   4.537  18.160  0.00  0.00    +0.000 A 
ATOM      3  C   UNL     1       3.288   5.011  19.257  0.00  0.00    +0.000 A 
ATOM      4  C   UNL     1       2.922   6.347  19.298  0.00  0.00    +0.000 A 
ATOM      5  C   UNL     1       3.273   7.209  18.271  0.00  0.00    +0.000 A 
ATOM      6  C   UNL     1       4.044   6.730  17.197  0.00  0.00    +0.000 A 
ATOM      7  C   UNL     1       2.886   8.646  18.409  0.00  0.00    +0.000 C 
ATOM      8  N   UNL     1       1.702   8.849  19.245  0.00  0.00    +0.000 N 
ATOM      9  C   UNL     1       1.529   8.051  20.375  0.00  0.00    +0.000 C 
ATOM     10  O   UNL     1       0.838   8.305  21.362  0.00  0.00    +0.000 OA
ATOM     11  N   UNL     1       2.188   6.844  20.369  0.00  0.00    +0.000 N 
ATOM     12  H   UNL     1       1.971   6.250  21.157  0.00  0.00    +0.000 HD
ENDROOT
BRANCH   1  17
ATOM     13  C   UNL     1       7.231   4.361  12.411  0.00  0.00    +0.000 C 
ATOM     14  N   UNL     1       6.804   4.141  13.791  0.00  0.00    +0.000 NA
ATOM     15  C   UNL     1       5.344   3.889  13.855  0.00  0.00    +0.000 C 
ATOM     16  C   UNL     1       4.825   3.705  15.305  0.00  0.00    +0.000 C 
ATOM     17  N   UNL     1       5.208   4.877  16.102  0.00  0.00    +0.000 N 
ATOM     18  C   UNL     1       6.655   5.158  16.087  0.00  0.00    +0.000 C 
ATOM     19  C   UNL     1       7.131   5.320  14.626  0.00  0.00    +0.000 C 
ENDBRANCH   1  17
BRANCH   8  20
ATOM     20  C   UNL     1       0.826   9.921  19.017  0.00  0.00    +0.000 A 
ATOM     21  C   UNL     1       1.122  11.245  19.272  0.00  0.00    +0.000 A 
ATOM     22  S   UNL     1      -0.158  12.260  18.776  0.00  0.00    +0.000 S 
ATOM     23  C   UNL     1      -1.030  10.877  18.220  0.00  0.00    +0.000 A 
ATOM     24  N   UNL     1      -0.415   9.732  18.433  0.00  0.00    +0.000 NA
BRANCH  23  25
ATOM     25  C   UNL     1      -2.357  11.024  17.602  0.00  0.00    +0.000 A 
ATOM     26  C   UNL     1      -2.603  10.658  16.271  0.00  0.00    +0.000 A 
ATOM     27  C   UNL     1      -3.869  10.853  15.746  0.00  0.00    +0.000 A 
ATOM     28  N   UNL     1      -4.898  11.374  16.446  0.00  0.00    +0.000 NA
ATOM     29  C   UNL     1      -4.651  11.698  17.732  0.00  0.00    +0.000 A 
ATOM     30  C   UNL     1      -3.418  11.539  18.349  0.00  0.00    +0.000 A 
ENDBRANCH  23  25
ENDBRANCH   8  20
TORSDOF 3
ENDMDL
MODEL 9
REMARK VINA RESULT:      -7.7      3.064     10.244
REMARK  Name = 
REMARK  4 active torsions:
REMARK  status: ('A' for Active; 'I' for Inactive)
REMARK    1  A    between atoms: C_1  and  N_2
REMARK    2  A    between atoms: N_5  and  C_6
REMARK    3  A    between atoms: N_13  and  C_14
REMARK    4  A    between atoms: C_17  and  C_18
REMARK                            x       y       z     vdW  Elec       q    Type
REMARK                         _______ _______ _______ _____ _____    ______ ____
ROOT
ATOM      1  C   UNL     1       3.638   6.175  18.228  0.00  0.00    +0.000 A 
ATOM      2  C   UNL     1       3.339   5.453  19.396  0.00  0.00    +0.000 A 
ATOM      3  C   UNL     1       2.526   5.978  20.404  0.00  0.00    +0.000 A 
ATOM      4  C   UNL     1       1.962   7.232  20.231  0.00  0.00    +0.000 A 
ATOM      5  C   UNL     1       2.204   7.964  19.078  0.00  0.00    +0.000 A 
ATOM      6  C   UNL     1       3.064   7.444  18.094  0.00  0.00    +0.000 A 
ATOM      7  C   UNL     1       1.601   9.329  18.984  0.00  0.00    +0.000 C 
ATOM      8  N   UNL     1       0.381   9.478  19.777  0.00  0.00    +0.000 N 
ATOM      9  C   UNL     1       0.303   8.852  21.022  0.00  0.00    +0.000 C 
ATOM     10  O   UNL     1      -0.442   9.152  21.955  0.00  0.00    +0.000 OA
ATOM     11  N   UNL     1       1.137   7.774  21.208  0.00  0.00    +0.000 N 
ATOM     12  H   UNL     1       0.993   7.287  22.081  0.00  0.00    +0.000 HD
ENDROOT
BRANCH   1  17
ATOM     13  C   UNL     1       6.168   3.873  13.825  0.00  0.00    +0.000 C 
ATOM     14  N   UNL     1       6.079   4.512  15.136  0.00  0.00    +0.000 NA
ATOM     15  C   UNL     1       5.315   3.664  16.083  0.00  0.00    +0.000 C 
ATOM     16  C   UNL     1       5.140   4.320  17.477  0.00  0.00    +0.000 C 
ATOM     17  N   UNL     1       4.520   5.641  17.310  0.00  0.00    +0.000 N 
ATOM     18  C   UNL     1       5.255   6.530  16.393  0.00  0.00    +0.000 C 
ATOM     19  C   UNL     1       5.418   5.833  15.023  0.00  0.00    +0.000 C 
ENDBRANCH   1  17
BRANCH   8  20
ATOM     20  C   UNL     1      -0.641  10.354  19.381  0.00  0.00    +0.000 A 
ATOM     21  C   UNL     1      -1.334  10.266  18.191  0.00  0.00    +0.000 A 
ATOM     22  S   UNL     1      -2.562  11.450  18.113  0.00  0.00    +0.000 S 
ATOM     23  C   UNL     1      -2.120  12.001  19.688  0.00  0.00    +0.000 A 
ATOM     24  N   UNL     1      -1.094  11.363  20.214  0.00  0.00    +0.000 NA
BRANCH  23  25
ATOM     25  C   UNL     1      -2.841  13.115  20.325  0.00  0.00    +0.000 A 
ATOM     26  C   UNL     1      -4.225  13.077  20.544  0.00  0.00    +0.000 A 
ATOM     27  C   UNL     1      -4.841  14.175  21.120  0.00  0.00    +0.000 A 
ATOM     28  N   UNL     1      -4.184  15.292  21.494  0.00  0.00    +0.000 NA
ATOM     29  C   UNL     1      -2.850  15.303  21.299  0.00  0.00    +0.000 A 
ATOM     30  C   UNL     1      -2.141  14.252  20.732  0.00  0.00    +0.000 A 
ENDBRANCH  23  25
ENDBRANCH   8  20
TORSDOF 3
ENDMDL
