MODEL 1
REMARK VINA RESULT:      -7.7      0.000      0.000
REMARK  Name = 
REMARK  9 active torsions:
REMARK  status: ('A' for Active; 'I' for Inactive)
REMARK    1  A    between atoms: C_1  and  N_2
REMARK    2  A    between atoms: N_5  and  C_6
REMARK    3  A    between atoms: C_9  and  O_10
REMARK    4  A    between atoms: C_12  and  O_13
REMARK    5  A    between atoms: O_13  and  C_14
REMARK    6  A    between atoms: C_14  and  C_15
REMARK    7  A    between atoms: C_15  and  O_16
REMARK    8  A    between atoms: C_15  and  C_17
REMARK    9  A    between atoms: C_17  and  N_18
REMARK                            x       y       z     vdW  Elec       q    Type
REMARK                         _______ _______ _______ _____ _____    ______ ____
ROOT
ATOM      1  C   UNL     1       2.070   7.010  19.519  0.00  0.00    +0.000 C 
ENDROOT
BRANCH   1   2
ATOM      2  O   UNL     1       2.701   6.121  20.453  0.00  0.00    +0.000 OA
ATOM      3  H   UNL     1       2.806   6.589  21.299  0.00  0.00    +0.000 HD
ENDBRANCH   1   2
BRANCH   1   4
ATOM      4  C   UNL     1       2.951   7.269  18.289  0.00  0.00    +0.000 C 
BRANCH   4   5
ATOM      5  O   UNL     1       4.246   6.713  18.429  0.00  0.00    +0.000 OA
BRANCH   5  11
ATOM      6  C   UNL     1       4.086   4.440  17.318  0.00  0.00    +0.000 A 
ATOM      7  C   UNL     1       4.679   3.619  16.339  0.00  0.00    +0.000 A 
ATOM      8  C   UNL     1       5.800   4.034  15.620  0.00  0.00    +0.000 A 
ATOM      9  C   UNL     1       6.356   5.271  15.895  0.00  0.00    +0.000 A 
ATOM     10  C   UNL     1       5.784   6.106  16.848  0.00  0.00    +0.000 A 
ATOM     11  C   UNL     1       4.631   5.722  17.555  0.00  0.00    +0.000 A 
BRANCH   6  16
ATOM     12  C   UNL     1       1.500   2.658  21.046  0.00  0.00    +0.000 C 
ATOM     13  N   UNL     1       1.703   3.137  19.703  0.00  0.00    +0.000 N 
ATOM     14  C   UNL     1       2.978   3.414  19.250  0.00  0.00    +0.000 C 
ATOM     15  O   UNL     1       3.976   3.269  19.936  0.00  0.00    +0.000 OA
ATOM     16  N   UNL     1       2.937   3.926  17.962  0.00  0.00    +0.000 N 
ATOM     17  H   UNL     1       0.963   3.005  19.029  0.00  0.00    +0.000 HD
ATOM     18  H   UNL     1       2.048   4.320  17.750  0.00  0.00    +0.000 HD
ENDBRANCH   6  16
BRANCH   9  19
ATOM     19  O   UNL     1       7.468   5.711  15.245  0.00  0.00    +0.000 OA
ATOM     20  H   UNL     1       8.250   5.395  15.725  0.00  0.00    +0.000 HD
ENDBRANCH   9  19
ENDBRANCH   5  11
ENDBRANCH   4   5
ENDBRANCH   1   4
BRANCH   1  21
ATOM     21  C   UNL     1       1.814   8.357  20.236  0.00  0.00    +0.000 C 
BRANCH  21  22
ATOM     22  N   UNL     1       0.387   8.700  20.361  0.00  0.00    +0.000 NA
ATOM     23  C   UNL     1      -0.096   8.658  21.739  0.00  0.00    +0.000 C 
ATOM     24  C   UNL     1       0.304   9.904  22.506  0.00  0.00    +0.000 C 
ATOM     25  C   UNL     1      -0.378  11.288  22.035  0.00  0.00    +0.000 C 
ATOM     26  C   UNL     1       0.438  11.206  20.668  0.00  0.00    +0.000 C 
ATOM     27  C   UNL     1       0.063  10.001  19.762  0.00  0.00    +0.000 C 
ATOM     28  C   UNL     1      -1.580  11.003  23.044  0.00  0.00    +0.000 C 
ATOM     29  C   UNL     1      -2.339  12.263  22.988  0.00  0.00    +0.000 A 
ATOM     30  C   UNL     1      -3.097  12.947  23.909  0.00  0.00    +0.000 A 
ATOM     31  C   UNL     1      -3.677  14.136  23.476  0.00  0.00    +0.000 A 
ATOM     32  F   UNL     1      -4.412  14.851  24.335  0.00  0.00    +0.000 F 
ATOM     33  C   UNL     1      -3.525  14.583  22.153  0.00  0.00    +0.000 A 
ATOM     34  C   UNL     1      -2.784  13.833  21.231  0.00  0.00    +0.000 A 
ATOM     35  C   UNL     1      -2.198  12.681  21.699  0.00  0.00    +0.000 A 
ATOM     36  O   UNL     1      -1.482  11.723  21.033  0.00  0.00    +0.000 OA
ENDBRANCH  21  22
ENDBRANCH   1  21
TORSDOF 8
ENDMDL
MODEL 2
REMARK VINA RESULT:      -7.6      4.312     10.232
REMARK  Name = 
REMARK  9 active torsions:
REMARK  status: ('A' for Active; 'I' for Inactive)
REMARK    1  A    between atoms: C_1  and  N_2
REMARK    2  A    between atoms: N_5  and  C_6
REMARK    3  A    between atoms: C_9  and  O_10
REMARK    4  A    between atoms: C_12  and  O_13
REMARK    5  A    between atoms: O_13  and  C_14
REMARK    6  A    between atoms: C_14  and  C_15
REMARK    7  A    between atoms: C_15  and  O_16
REMARK    8  A    between atoms: C_15  and  C_17
REMARK    9  A    between atoms: C_17  and  N_18
REMARK                            x       y       z     vdW  Elec       q    Type
REMARK                         _______ _______ _______ _____ _____    ______ ____
ROOT
ATOM      1  C   UNL     1      -0.073  12.130  20.859  0.00  0.00    +0.000 C 
ENDROOT
BRANCH   1   2
ATOM      2  O   UNL     1      -0.285  12.129  22.279  0.00  0.00    +0.000 OA
ATOM      3  H   UNL     1      -0.908  12.843  22.496  0.00  0.00    +0.000 HD
ENDBRANCH   1   2
BRANCH   1   4
ATOM      4  C   UNL     1      -1.368  11.842  20.085  0.00  0.00    +0.000 C 
BRANCH   4   5
ATOM      5  O   UNL     1      -2.278  12.926  20.140  0.00  0.00    +0.000 OA
BRANCH   5  11
ATOM      6  C   UNL     1      -4.516  12.374  19.087  0.00  0.00    +0.000 A 
ATOM      7  C   UNL     1      -5.867  12.107  19.385  0.00  0.00    +0.000 A 
ATOM      8  C   UNL     1      -6.345  12.134  20.695  0.00  0.00    +0.000 A 
ATOM      9  C   UNL     1      -5.475  12.454  21.722  0.00  0.00    +0.000 A 
ATOM     10  C   UNL     1      -4.134  12.709  21.458  0.00  0.00    +0.000 A 
ATOM     11  C   UNL     1      -3.625  12.650  20.149  0.00  0.00    +0.000 A 
BRANCH   6  16
ATOM     12  C   UNL     1      -2.903  10.178  15.046  0.00  0.00    +0.000 C 
ATOM     13  N   UNL     1      -3.434  11.269  15.821  0.00  0.00    +0.000 N 
ATOM     14  C   UNL     1      -3.543  11.159  17.194  0.00  0.00    +0.000 C 
ATOM     15  O   UNL     1      -3.201  10.165  17.812  0.00  0.00    +0.000 OA
ATOM     16  N   UNL     1      -4.141  12.290  17.727  0.00  0.00    +0.000 N 
ATOM     17  H   UNL     1      -3.463  12.187  15.400  0.00  0.00    +0.000 HD
ATOM     18  H   UNL     1      -4.680  12.778  17.048  0.00  0.00    +0.000 HD
ENDBRANCH   6  16
BRANCH   9  19
ATOM     19  O   UNL     1      -5.896  12.524  23.015  0.00  0.00    +0.000 OA
ATOM     20  H   UNL     1      -5.838  13.447  23.308  0.00  0.00    +0.000 HD
ENDBRANCH   9  19
ENDBRANCH   5  11
ENDBRANCH   4   5
ENDBRANCH   1   4
BRANCH   1  21
ATOM     21  C   UNL     1       0.957  11.024  20.527  0.00  0.00    +0.000 C 
BRANCH  21  22
ATOM     22  N   UNL     1       0.347   9.759  20.083  0.00  0.00    +0.000 NA
ATOM     23  C   UNL     1       0.932   9.241  18.849  0.00  0.00    +0.000 C 
ATOM     24  C   UNL     1       2.256   8.547  19.110  0.00  0.00    +0.000 C 
ATOM     25  C   UNL     1       2.194   7.179  19.962  0.00  0.00    +0.000 C 
ATOM     26  C   UNL     1       1.757   8.017  21.246  0.00  0.00    +0.000 C 
ATOM     27  C   UNL     1       0.378   8.720  21.120  0.00  0.00    +0.000 C 
ATOM     28  C   UNL     1       1.996   6.375  18.599  0.00  0.00    +0.000 C 
ATOM     29  C   UNL     1       2.100   4.976  19.044  0.00  0.00    +0.000 A 
ATOM     30  C   UNL     1       2.566   3.830  18.446  0.00  0.00    +0.000 A 
ATOM     31  C   UNL     1       2.498   2.663  19.201  0.00  0.00    +0.000 A 
ATOM     32  F   UNL     1       2.953   1.520  18.674  0.00  0.00    +0.000 F 
ATOM     33  C   UNL     1       1.942   2.659  20.491  0.00  0.00    +0.000 A 
ATOM     34  C   UNL     1       1.434   3.839  21.048  0.00  0.00    +0.000 A 
ATOM     35  C   UNL     1       1.545   4.980  20.289  0.00  0.00    +0.000 A 
ATOM     36  O   UNL     1       1.089   6.248  20.532  0.00  0.00    +0.000 OA
ENDBRANCH  21  22
ENDBRANCH   1  21
TORSDOF 8
ENDMDL
MODEL 3
REMARK VINA RESULT:      -7.6      1.629      2.006
REMARK  Name = 
REMARK  9 active torsions:
REMARK  status: ('A' for Active; 'I' for Inactive)
REMARK    1  A    between atoms: C_1  and  N_2
REMARK    2  A    between atoms: N_5  and  C_6
REMARK    3  A    between atoms: C_9  and  O_10
REMARK    4  A    between atoms: C_12  and  O_13
REMARK    5  A    between atoms: O_13  and  C_14
REMARK    6  A    between atoms: C_14  and  C_15
REMARK    7  A    between atoms: C_15  and  O_16
REMARK    8  A    between atoms: C_15  and  C_17
REMARK    9  A    between atoms: C_17  and  N_18
REMARK                            x       y       z     vdW  Elec       q    Type
REMARK                         _______ _______ _______ _____ _____    ______ ____
ROOT
ATOM      1  C   UNL     1       1.631   8.335  18.799  0.00  0.00    +0.000 C 
ENDROOT
BRANCH   1   2
ATOM      2  O   UNL     1       1.953   7.727  20.059  0.00  0.00    +0.000 OA
ATOM      3  H   UNL     1       2.624   8.274  20.501  0.00  0.00    +0.000 HD
ENDBRANCH   1   2
BRANCH   1   4
ATOM      4  C   UNL     1       2.817   8.300  17.825  0.00  0.00    +0.000 C 
BRANCH   4   5
ATOM      5  O   UNL     1       3.126   6.983  17.403  0.00  0.00    +0.000 OA
BRANCH   5  11
ATOM      6  C   UNL     1       4.612   5.702  19.006  0.00  0.00    +0.000 A 
ATOM      7  C   UNL     1       5.922   5.215  19.185  0.00  0.00    +0.000 A 
ATOM      8  C   UNL     1       6.922   5.447  18.241  0.00  0.00    +0.000 A 
ATOM      9  C   UNL     1       6.624   6.193  17.115  0.00  0.00    +0.000 A 
ATOM     10  C   UNL     1       5.337   6.675  16.907  0.00  0.00    +0.000 A 
ATOM     11  C   UNL     1       4.306   6.419  17.828  0.00  0.00    +0.000 A 
BRANCH   6  16
ATOM     12  C   UNL     1       1.438   2.875  21.392  0.00  0.00    +0.000 C 
ATOM     13  N   UNL     1       2.228   4.058  21.168  0.00  0.00    +0.000 N 
ATOM     14  C   UNL     1       2.936   4.209  19.992  0.00  0.00    +0.000 C 
ATOM     15  O   UNL     1       2.931   3.378  19.099  0.00  0.00    +0.000 OA
ATOM     16  N   UNL     1       3.676   5.381  20.016  0.00  0.00    +0.000 N 
ATOM     17  H   UNL     1       2.041   4.873  21.735  0.00  0.00    +0.000 HD
ATOM     18  H   UNL     1       3.845   5.692  20.946  0.00  0.00    +0.000 HD
ENDBRANCH   6  16
BRANCH   9  19
ATOM     19  O   UNL     1       7.571   6.474  16.178  0.00  0.00    +0.000 OA
ATOM     20  H   UNL     1       7.821   7.408  16.263  0.00  0.00    +0.000 HD
ENDBRANCH   9  19
ENDBRANCH   5  11
ENDBRANCH   4   5
ENDBRANCH   1   4
BRANCH   1  21
ATOM     21  C   UNL     1       1.252   9.812  19.062  0.00  0.00    +0.000 C 
BRANCH  21  22
ATOM     22  N   UNL     1       1.041  10.126  20.485  0.00  0.00    +0.000 NA
ATOM     23  C   UNL     1       1.424  11.491  20.836  0.00  0.00    +0.000 C 
ATOM     24  C   UNL     1       0.359  12.490  20.425  0.00  0.00    +0.000 C 
ATOM     25  C   UNL     1      -1.046  12.406  21.212  0.00  0.00    +0.000 C 
ATOM     26  C   UNL     1      -1.329  10.996  20.523  0.00  0.00    +0.000 C 
ATOM     27  C   UNL     1      -0.337   9.871  20.924  0.00  0.00    +0.000 C 
ATOM     28  C   UNL     1      -0.463  13.415  22.301  0.00  0.00    +0.000 C 
ATOM     29  C   UNL     1      -1.650  13.711  23.119  0.00  0.00    +0.000 A 
ATOM     30  C   UNL     1      -2.057  14.822  23.819  0.00  0.00    +0.000 A 
ATOM     31  C   UNL     1      -3.272  14.722  24.491  0.00  0.00    +0.000 A 
ATOM     32  F   UNL     1      -3.725  15.778  25.177  0.00  0.00    +0.000 F 
ATOM     33  C   UNL     1      -4.015  13.530  24.483  0.00  0.00    +0.000 A 
ATOM     34  C   UNL     1      -3.543  12.404  23.798  0.00  0.00    +0.000 A 
ATOM     35  C   UNL     1      -2.356  12.546  23.117  0.00  0.00    +0.000 A 
ATOM     36  O   UNL     1      -1.622  11.622  22.423  0.00  0.00    +0.000 OA
ENDBRANCH  21  22
ENDBRANCH   1  21
TORSDOF 8
ENDMDL
MODEL 4
REMARK VINA RESULT:      -7.5      2.079      3.708
REMARK  Name = 
REMARK  9 active torsions:
REMARK  status: ('A' for Active; 'I' for Inactive)
REMARK    1  A    between atoms: C_1  and  N_2
REMARK    2  A    between atoms: N_5  and  C_6
REMARK    3  A    between atoms: C_9  and  O_10
REMARK    4  A    between atoms: C_12  and  O_13
REMARK    5  A    between atoms: O_13  and  C_14
REMARK    6  A    between atoms: C_14  and  C_15
REMARK    7  A    between atoms: C_15  and  O_16
REMARK    8  A    between atoms: C_15  and  C_17
REMARK    9  A    between atoms: C_17  and  N_18
REMARK                            x       y       z     vdW  Elec       q    Type
REMARK                         _______ _______ _______ _____ _____    ______ ____
ROOT
ATOM      1  C   UNL     1       2.067   7.086  20.563  0.00  0.00    +0.000 C 
ENDROOT
BRANCH   1   2
ATOM      2  O   UNL     1       2.324   7.330  19.172  0.00  0.00    +0.000 OA
ATOM      3  H   UNL     1       2.964   6.669  18.858  0.00  0.00    +0.000 HD
ENDBRANCH   1   2
BRANCH   1   4
ATOM      4  C   UNL     1       1.698   5.620  20.830  0.00  0.00    +0.000 C 
BRANCH   4   5
ATOM      5  O   UNL     1       2.831   4.770  20.812  0.00  0.00    +0.000 OA
BRANCH   5  11
ATOM      6  C   UNL     1       4.019   3.291  19.130  0.00  0.00    +0.000 A 
ATOM      7  C   UNL     1       3.811   2.272  18.179  0.00  0.00    +0.000 A 
ATOM      8  C   UNL     1       2.536   1.777  17.907  0.00  0.00    +0.000 A 
ATOM      9  C   UNL     1       1.448   2.318  18.570  0.00  0.00    +0.000 A 
ATOM     10  C   UNL     1       1.626   3.316  19.521  0.00  0.00    +0.000 A 
ATOM     11  C   UNL     1       2.907   3.801  19.838  0.00  0.00    +0.000 A 
BRANCH   6  16
ATOM     12  C   UNL     1       7.856   6.286  18.876  0.00  0.00    +0.000 C 
ATOM     13  N   UNL     1       7.145   5.098  19.274  0.00  0.00    +0.000 N 
ATOM     14  C   UNL     1       5.881   4.846  18.778  0.00  0.00    +0.000 C 
ATOM     15  O   UNL     1       5.311   5.587  17.994  0.00  0.00    +0.000 OA
ATOM     16  N   UNL     1       5.358   3.693  19.342  0.00  0.00    +0.000 N 
ATOM     17  H   UNL     1       7.671   4.339  19.682  0.00  0.00    +0.000 HD
ATOM     18  H   UNL     1       5.794   3.475  20.209  0.00  0.00    +0.000 HD
ENDBRANCH   6  16
BRANCH   9  19
ATOM     19  O   UNL     1       0.179   1.893  18.319  0.00  0.00    +0.000 OA
ATOM     20  H   UNL     1      -0.068   1.245  18.998  0.00  0.00    +0.000 HD
ENDBRANCH   9  19
ENDBRANCH   5  11
ENDBRANCH   4   5
ENDBRANCH   1   4
BRANCH   1  21
ATOM     21  C   UNL     1       0.880   7.980  20.996  0.00  0.00    +0.000 C 
BRANCH  21  22
ATOM     22  N   UNL     1       1.262   9.373  21.286  0.00  0.00    +0.000 NA
ATOM     23  C   UNL     1       0.897  10.303  20.222  0.00  0.00    +0.000 C 
ATOM     24  C   UNL     1      -0.576  10.662  20.277  0.00  0.00    +0.000 C 
ATOM     25  C   UNL     1      -1.057  11.526  21.551  0.00  0.00    +0.000 C 
ATOM     26  C   UNL     1      -0.767  10.271  22.491  0.00  0.00    +0.000 C 
ATOM     27  C   UNL     1       0.727   9.852  22.567  0.00  0.00    +0.000 C 
ATOM     28  C   UNL     1      -0.722  12.856  20.738  0.00  0.00    +0.000 C 
ATOM     29  C   UNL     1      -1.264  13.904  21.617  0.00  0.00    +0.000 A 
ATOM     30  C   UNL     1      -1.825  15.136  21.378  0.00  0.00    +0.000 A 
ATOM     31  C   UNL     1      -2.229  15.862  22.494  0.00  0.00    +0.000 A 
ATOM     32  F   UNL     1      -2.797  17.062  22.320  0.00  0.00    +0.000 F 
ATOM     33  C   UNL     1      -2.030  15.372  23.796  0.00  0.00    +0.000 A 
ATOM     34  C   UNL     1      -1.411  14.133  24.000  0.00  0.00    +0.000 A 
ATOM     35  C   UNL     1      -1.054  13.426  22.876  0.00  0.00    +0.000 A 
ATOM     36  O   UNL     1      -0.384  12.238  22.757  0.00  0.00    +0.000 OA
ENDBRANCH  21  22
ENDBRANCH   1  21
TORSDOF 8
ENDMDL
MODEL 5
REMARK VINA RESULT:      -7.5      0.953      1.040
REMARK  Name = 
REMARK  9 active torsions:
REMARK  status: ('A' for Active; 'I' for Inactive)
REMARK    1  A    between atoms: C_1  and  N_2
REMARK    2  A    between atoms: N_5  and  C_6
REMARK    3  A    between atoms: C_9  and  O_10
REMARK    4  A    between atoms: C_12  and  O_13
REMARK    5  A    between atoms: O_13  and  C_14
REMARK    6  A    between atoms: C_14  and  C_15
REMARK    7  A    between atoms: C_15  and  O_16
REMARK    8  A    between atoms: C_15  and  C_17
REMARK    9  A    between atoms: C_17  and  N_18
REMARK                            x       y       z     vdW  Elec       q    Type
REMARK                         _______ _______ _______ _____ _____    ______ ____
ROOT
ATOM      1  C   UNL     1       1.942   7.053  19.879  0.00  0.00    +0.000 C 
ENDROOT
BRANCH   1   2
ATOM      2  O   UNL     1       2.610   6.051  20.661  0.00  0.00    +0.000 OA
ATOM      3  H   UNL     1       1.974   5.344  20.862  0.00  0.00    +0.000 HD
ENDBRANCH   1   2
BRANCH   1   4
ATOM      4  C   UNL     1       2.807   7.539  18.708  0.00  0.00    +0.000 C 
BRANCH   4   5
ATOM      5  O   UNL     1       2.875   6.588  17.660  0.00  0.00    +0.000 OA
BRANCH   5  11
ATOM      6  C   UNL     1       4.450   4.664  17.170  0.00  0.00    +0.000 A 
ATOM      7  C   UNL     1       5.792   4.353  16.871  0.00  0.00    +0.000 A 
ATOM      8  C   UNL     1       6.771   5.342  16.795  0.00  0.00    +0.000 A 
ATOM      9  C   UNL     1       6.420   6.657  17.045  0.00  0.00    +0.000 A 
ATOM     10  C   UNL     1       5.102   6.994  17.330  0.00  0.00    +0.000 A 
ATOM     11  C   UNL     1       4.093   6.016  17.373  0.00  0.00    +0.000 A 
BRANCH   6  16
ATOM     12  C   UNL     1       1.186   1.637  19.154  0.00  0.00    +0.000 C 
ATOM     13  N   UNL     1       1.981   2.190  18.089  0.00  0.00    +0.000 N 
ATOM     14  C   UNL     1       2.948   3.138  18.363  0.00  0.00    +0.000 C 
ATOM     15  O   UNL     1       3.182   3.545  19.488  0.00  0.00    +0.000 OA
ATOM     16  N   UNL     1       3.541   3.581  17.191  0.00  0.00    +0.000 N 
ATOM     17  H   UNL     1       2.019   1.693  17.211  0.00  0.00    +0.000 HD
ATOM     18  H   UNL     1       2.956   3.428  16.400  0.00  0.00    +0.000 HD
ENDBRANCH   6  16
BRANCH   9  19
ATOM     19  O   UNL     1       7.343   7.657  17.015  0.00  0.00    +0.000 OA
ATOM     20  H   UNL     1       6.884   8.503  17.143  0.00  0.00    +0.000 HD
ENDBRANCH   9  19
ENDBRANCH   5  11
ENDBRANCH   4   5
ENDBRANCH   1   4
BRANCH   1  21
ATOM     21  C   UNL     1       1.637   8.258  20.801  0.00  0.00    +0.000 C 
BRANCH  21  22
ATOM     22  N   UNL     1       0.225   8.675  20.786  0.00  0.00    +0.000 NA
ATOM     23  C   UNL     1      -0.381   8.704  22.114  0.00  0.00    +0.000 C 
ATOM     24  C   UNL     1       0.013   9.955  22.877  0.00  0.00    +0.000 C 
ATOM     25  C   UNL     1      -0.551  11.353  22.305  0.00  0.00    +0.000 C 
ATOM     26  C   UNL     1       0.378  11.184  21.020  0.00  0.00    +0.000 C 
ATOM     27  C   UNL     1       0.023   9.969  20.121  0.00  0.00    +0.000 C 
ATOM     28  C   UNL     1      -1.852  11.163  23.208  0.00  0.00    +0.000 C 
ATOM     29  C   UNL     1      -2.536  12.455  23.046  0.00  0.00    +0.000 A 
ATOM     30  C   UNL     1      -3.337  13.207  23.873  0.00  0.00    +0.000 A 
ATOM     31  C   UNL     1      -3.813  14.407  23.353  0.00  0.00    +0.000 A 
ATOM     32  F   UNL     1      -4.585  15.187  24.121  0.00  0.00    +0.000 F 
ATOM     33  C   UNL     1      -3.521  14.801  22.037  0.00  0.00    +0.000 A 
ATOM     34  C   UNL     1      -2.741  13.984  21.209  0.00  0.00    +0.000 A 
ATOM     35  C   UNL     1      -2.259  12.822  21.763  0.00  0.00    +0.000 A 
ATOM     36  O   UNL     1      -1.537  11.807  21.193  0.00  0.00    +0.000 OA
ENDBRANCH  21  22
ENDBRANCH   1  21
TORSDOF 8
ENDMDL
MODEL 6
REMARK VINA RESULT:      -7.4      1.690      3.208
REMARK  Name = 
REMARK  9 active torsions:
REMARK  status: ('A' for Active; 'I' for Inactive)
REMARK    1  A    between atoms: C_1  and  N_2
REMARK    2  A    between atoms: N_5  and  C_6
REMARK    3  A    between atoms: C_9  and  O_10
REMARK    4  A    between atoms: C_12  and  O_13
REMARK    5  A    between atoms: O_13  and  C_14
REMARK    6  A    between atoms: C_14  and  C_15
REMARK    7  A    between atoms: C_15  and  O_16
REMARK    8  A    between atoms: C_15  and  C_17
REMARK    9  A    between atoms: C_17  and  N_18
REMARK                            x       y       z     vdW  Elec       q    Type
REMARK                         _______ _______ _______ _____ _____    ______ ____
ROOT
ATOM      1  C   UNL     1       1.620   7.177  20.027  0.00  0.00    +0.000 C 
ENDROOT
BRANCH   1   2
ATOM      2  O   UNL     1       1.983   6.487  21.233  0.00  0.00    +0.000 OA
ATOM      3  H   UNL     1       1.195   6.420  21.797  0.00  0.00    +0.000 HD
ENDBRANCH   1   2
BRANCH   1   4
ATOM      4  C   UNL     1       2.705   7.056  18.947  0.00  0.00    +0.000 C 
BRANCH   4   5
ATOM      5  O   UNL     1       2.450   5.991  18.049  0.00  0.00    +0.000 OA
BRANCH   5  11
ATOM      6  C   UNL     1       3.716   4.077  19.126  0.00  0.00    +0.000 A 
ATOM      7  C   UNL     1       3.607   2.724  19.502  0.00  0.00    +0.000 A 
ATOM      8  C   UNL     1       2.451   1.986  19.249  0.00  0.00    +0.000 A 
ATOM      9  C   UNL     1       1.397   2.593  18.590  0.00  0.00    +0.000 A 
ATOM     10  C   UNL     1       1.472   3.930  18.218  0.00  0.00    +0.000 A 
ATOM     11  C   UNL     1       2.614   4.701  18.499  0.00  0.00    +0.000 A 
BRANCH   6  16
ATOM     12  C   UNL     1       7.890   6.431  18.239  0.00  0.00    +0.000 C 
ATOM     13  N   UNL     1       6.852   5.872  19.065  0.00  0.00    +0.000 N 
ATOM     14  C   UNL     1       5.850   5.107  18.500  0.00  0.00    +0.000 C 
ATOM     15  O   UNL     1       5.790   4.864  17.306  0.00  0.00    +0.000 OA
ATOM     16  N   UNL     1       4.924   4.731  19.460  0.00  0.00    +0.000 N 
ATOM     17  H   UNL     1       7.013   5.809  20.060  0.00  0.00    +0.000 HD
ATOM     18  H   UNL     1       4.942   5.338  20.248  0.00  0.00    +0.000 HD
ENDBRANCH   6  16
BRANCH   9  19
ATOM     19  O   UNL     1       0.258   1.909  18.291  0.00  0.00    +0.000 OA
ATOM     20  H   UNL     1      -0.327   2.494  17.784  0.00  0.00    +0.000 HD
ENDBRANCH   9  19
ENDBRANCH   5  11
ENDBRANCH   4   5
ENDBRANCH   1   4
BRANCH   1  21
ATOM     21  C   UNL     1       1.429   8.674  20.369  0.00  0.00    +0.000 C 
BRANCH  21  22
ATOM     22  N   UNL     1       0.019   9.083  20.479  0.00  0.00    +0.000 NA
ATOM     23  C   UNL     1      -0.493   9.023  21.845  0.00  0.00    +0.000 C 
ATOM     24  C   UNL     1      -0.049  10.225  22.658  0.00  0.00    +0.000 C 
ATOM     25  C   UNL     1      -0.654  11.653  22.217  0.00  0.00    +0.000 C 
ATOM     26  C   UNL     1       0.184  11.573  20.863  0.00  0.00    +0.000 C 
ATOM     27  C   UNL     1      -0.231  10.415  19.914  0.00  0.00    +0.000 C 
ATOM     28  C   UNL     1      -1.889  11.398  23.194  0.00  0.00    +0.000 C 
ATOM     29  C   UNL     1      -2.584  12.694  23.164  0.00  0.00    +0.000 A 
ATOM     30  C   UNL     1      -3.327  13.386  24.090  0.00  0.00    +0.000 A 
ATOM     31  C   UNL     1      -3.840  14.614  23.684  0.00  0.00    +0.000 A 
ATOM     32  F   UNL     1      -4.558  15.338  24.551  0.00  0.00    +0.000 F 
ATOM     33  C   UNL     1      -3.640  15.093  22.378  0.00  0.00    +0.000 A 
ATOM     34  C   UNL     1      -2.919  14.336  21.448  0.00  0.00    +0.000 A 
ATOM     35  C   UNL     1      -2.398  13.143  21.891  0.00  0.00    +0.000 A 
ATOM     36  O   UNL     1      -1.716  12.172  21.208  0.00  0.00    +0.000 OA
ENDBRANCH  21  22
ENDBRANCH   1  21
TORSDOF 8
ENDMDL
MODEL 7
REMARK VINA RESULT:      -7.4      1.773      3.881
REMARK  Name = 
REMARK  9 active torsions:
REMARK  status: ('A' for Active; 'I' for Inactive)
REMARK    1  A    between atoms: C_1  and  N_2
REMARK    2  A    between atoms: N_5  and  C_6
REMARK    3  A    between atoms: C_9  and  O_10
REMARK    4  A    between atoms: C_12  and  O_13
REMARK    5  A    between atoms: O_13  and  C_14
REMARK    6  A    between atoms: C_14  and  C_15
REMARK    7  A    between atoms: C_15  and  O_16
REMARK    8  A    between atoms: C_15  and  C_17
REMARK    9  A    between atoms: C_17  and  N_18
REMARK                            x       y       z     vdW  Elec       q    Type
REMARK                         _______ _______ _______ _____ _____    ______ ____
ROOT
ATOM      1  C   UNL     1       2.906   8.018  18.033  0.00  0.00    +0.000 C 
ENDROOT
BRANCH   1   2
ATOM      2  O   UNL     1       3.402   7.979  16.687  0.00  0.00    +0.000 OA
ATOM      3  H   UNL     1       2.960   8.678  16.176  0.00  0.00    +0.000 HD
ENDBRANCH   1   2
BRANCH   1   4
ATOM      4  C   UNL     1       2.530   6.621  18.547  0.00  0.00    +0.000 C 
BRANCH   4   5
ATOM      5  O   UNL     1       3.516   6.083  19.411  0.00  0.00    +0.000 OA
BRANCH   5  11
ATOM      6  C   UNL     1       4.342   3.687  19.357  0.00  0.00    +0.000 A 
ATOM      7  C   UNL     1       4.054   2.385  19.813  0.00  0.00    +0.000 A 
ATOM      8  C   UNL     1       2.919   2.112  20.575  0.00  0.00    +0.000 A 
ATOM      9  C   UNL     1       2.042   3.142  20.869  0.00  0.00    +0.000 A 
ATOM     10  C   UNL     1       2.307   4.438  20.442  0.00  0.00    +0.000 A 
ATOM     11  C   UNL     1       3.466   4.740  19.706  0.00  0.00    +0.000 A 
BRANCH   6  16
ATOM     12  C   UNL     1       7.029   4.692  15.417  0.00  0.00    +0.000 C 
ATOM     13  N   UNL     1       6.805   4.359  16.801  0.00  0.00    +0.000 N 
ATOM     14  C   UNL     1       5.532   4.070  17.249  0.00  0.00    +0.000 C 
ATOM     15  O   UNL     1       4.552   4.072  16.521  0.00  0.00    +0.000 OA
ATOM     16  N   UNL     1       5.535   3.848  18.617  0.00  0.00    +0.000 N 
ATOM     17  H   UNL     1       7.597   4.075  17.359  0.00  0.00    +0.000 HD
ATOM     18  H   UNL     1       6.322   4.269  19.057  0.00  0.00    +0.000 HD
ENDBRANCH   6  16
BRANCH   9  19
ATOM     19  O   UNL     1       0.904   2.924  21.583  0.00  0.00    +0.000 OA
ATOM     20  H   UNL     1       1.097   2.277  22.279  0.00  0.00    +0.000 HD
ENDBRANCH   9  19
ENDBRANCH   5  11
ENDBRANCH   4   5
ENDBRANCH   1   4
BRANCH   1  21
ATOM     21  C   UNL     1       1.641   8.908  18.053  0.00  0.00    +0.000 C 
BRANCH  21  22
ATOM     22  N   UNL     1       1.646   9.922  19.121  0.00  0.00    +0.000 NA
ATOM     23  C   UNL     1       1.199  11.237  18.669  0.00  0.00    +0.000 C 
ATOM     24  C   UNL     1      -0.313  11.305  18.566  0.00  0.00    +0.000 C 
ATOM     25  C   UNL     1      -1.131  11.218  19.953  0.00  0.00    +0.000 C 
ATOM     26  C   UNL     1      -0.665   9.702  20.114  0.00  0.00    +0.000 C 
ATOM     27  C   UNL     1       0.865   9.512  20.296  0.00  0.00    +0.000 C 
ATOM     28  C   UNL     1      -1.027  12.805  20.080  0.00  0.00    +0.000 C 
ATOM     29  C   UNL     1      -1.901  13.084  21.230  0.00  0.00    +0.000 A 
ATOM     30  C   UNL     1      -2.705  14.148  21.565  0.00  0.00    +0.000 A 
ATOM     31  C   UNL     1      -3.398  14.049  22.768  0.00  0.00    +0.000 A 
ATOM     32  F   UNL     1      -4.208  15.048  23.136  0.00  0.00    +0.000 F 
ATOM     33  C   UNL     1      -3.243  12.935  23.610  0.00  0.00    +0.000 A 
ATOM     34  C   UNL     1      -2.377  11.893  23.256  0.00  0.00    +0.000 A 
ATOM     35  C   UNL     1      -1.733  12.007  22.047  0.00  0.00    +0.000 A 
ATOM     36  O   UNL     1      -0.792  11.197  21.469  0.00  0.00    +0.000 OA
ENDBRANCH  21  22
ENDBRANCH   1  21
TORSDOF 8
ENDMDL
MODEL 8
REMARK VINA RESULT:      -7.3      1.557      3.322
REMARK  Name = 
REMARK  9 active torsions:
REMARK  status: ('A' for Active; 'I' for Inactive)
REMARK    1  A    between atoms: C_1  and  N_2
REMARK    2  A    between atoms: N_5  and  C_6
REMARK    3  A    between atoms: C_9  and  O_10
REMARK    4  A    between atoms: C_12  and  O_13
REMARK    5  A    between atoms: O_13  and  C_14
REMARK    6  A    between atoms: C_14  and  C_15
REMARK    7  A    between atoms: C_15  and  O_16
REMARK    8  A    between atoms: C_15  and  C_17
REMARK    9  A    between atoms: C_17  and  N_18
REMARK                            x       y       z     vdW  Elec       q    Type
REMARK                         _______ _______ _______ _____ _____    ______ ____
ROOT
ATOM      1  C   UNL     1       1.834   6.870  20.041  0.00  0.00    +0.000 C 
ENDROOT
BRANCH   1   2
ATOM      2  O   UNL     1       2.142   6.088  21.205  0.00  0.00    +0.000 OA
ATOM      3  H   UNL     1       2.928   6.469  21.632  0.00  0.00    +0.000 HD
ENDBRANCH   1   2
BRANCH   1   4
ATOM      4  C   UNL     1       2.958   6.813  18.997  0.00  0.00    +0.000 C 
BRANCH   4   5
ATOM      5  O   UNL     1       2.609   6.021  17.876  0.00  0.00    +0.000 OA
BRANCH   5  11
ATOM      6  C   UNL     1       3.856   3.818  17.746  0.00  0.00    +0.000 A 
ATOM      7  C   UNL     1       3.715   2.429  17.937  0.00  0.00    +0.000 A 
ATOM      8  C   UNL     1       2.498   1.865  18.319  0.00  0.00    +0.000 A 
ATOM      9  C   UNL     1       1.399   2.688  18.490  0.00  0.00    +0.000 A 
ATOM     10  C   UNL     1       1.513   4.062  18.321  0.00  0.00    +0.000 A 
ATOM     11  C   UNL     1       2.740   4.654  17.974  0.00  0.00    +0.000 A 
BRANCH   6  16
ATOM     12  C   UNL     1       7.390   5.205  14.689  0.00  0.00    +0.000 C 
ATOM     13  N   UNL     1       6.788   4.973  15.977  0.00  0.00    +0.000 N 
ATOM     14  C   UNL     1       5.567   4.333  16.068  0.00  0.00    +0.000 C 
ATOM     15  O   UNL     1       4.949   3.934  15.095  0.00  0.00    +0.000 OA
ATOM     16  N   UNL     1       5.144   4.278  17.387  0.00  0.00    +0.000 N 
ATOM     17  H   UNL     1       7.374   5.028  16.797  0.00  0.00    +0.000 HD
ATOM     18  H   UNL     1       5.577   4.980  17.943  0.00  0.00    +0.000 HD
ENDBRANCH   6  16
BRANCH   9  19
ATOM     19  O   UNL     1       0.182   2.185  18.833  0.00  0.00    +0.000 OA
ATOM     20  H   UNL     1       0.112   2.180  19.800  0.00  0.00    +0.000 HD
ENDBRANCH   9  19
ENDBRANCH   5  11
ENDBRANCH   4   5
ENDBRANCH   1   4
BRANCH   1  21
ATOM     21  C   UNL     1       1.649   8.341  20.487  0.00  0.00    +0.000 C 
BRANCH  21  22
ATOM     22  N   UNL     1       0.242   8.772  20.538  0.00  0.00    +0.000 NA
ATOM     23  C   UNL     1      -0.322   8.736  21.885  0.00  0.00    +0.000 C 
ATOM     24  C   UNL     1       0.110   9.940  22.701  0.00  0.00    +0.000 C 
ATOM     25  C   UNL     1      -0.456  11.372  22.222  0.00  0.00    +0.000 C 
ATOM     26  C   UNL     1       0.432  11.263  20.902  0.00  0.00    +0.000 C 
ATOM     27  C   UNL     1       0.035  10.102  19.950  0.00  0.00    +0.000 C 
ATOM     28  C   UNL     1      -1.731  11.147  23.154  0.00  0.00    +0.000 C 
ATOM     29  C   UNL     1      -2.404  12.453  23.083  0.00  0.00    +0.000 A 
ATOM     30  C   UNL     1      -3.170  13.167  23.974  0.00  0.00    +0.000 A 
ATOM     31  C   UNL     1      -3.648  14.398  23.534  0.00  0.00    +0.000 A 
ATOM     32  F   UNL     1      -4.386  15.143  24.366  0.00  0.00    +0.000 F 
ATOM     33  C   UNL     1      -3.392  14.859  22.232  0.00  0.00    +0.000 A 
ATOM     34  C   UNL     1      -2.647  14.081  21.338  0.00  0.00    +0.000 A 
ATOM     35  C   UNL     1      -2.162  12.885  21.813  0.00  0.00    +0.000 A 
ATOM     36  O   UNL     1      -1.470  11.895  21.168  0.00  0.00    +0.000 OA
ENDBRANCH  21  22
ENDBRANCH   1  21
TORSDOF 8
ENDMDL
MODEL 9
REMARK VINA RESULT:      -7.3      1.897      3.751
REMARK  Name = 
REMARK  9 active torsions:
REMARK  status: ('A' for Active; 'I' for Inactive)
REMARK    1  A    between atoms: C_1  and  N_2
REMARK    2  A    between atoms: N_5  and  C_6
REMARK    3  A    between atoms: C_9  and  O_10
REMARK    4  A    between atoms: C_12  and  O_13
REMARK    5  A    between atoms: O_13  and  C_14
REMARK    6  A    between atoms: C_14  and  C_15
REMARK    7  A    between atoms: C_15  and  O_16
REMARK    8  A    between atoms: C_15  and  C_17
REMARK    9  A    between atoms: C_17  and  N_18
REMARK                            x       y       z     vdW  Elec       q    Type
REMARK                         _______ _______ _______ _____ _____    ______ ____
ROOT
ATOM      1  C   UNL     1       2.790   8.308  18.225  0.00  0.00    +0.000 C 
ENDROOT
BRANCH   1   2
ATOM      2  O   UNL     1       3.387   8.097  16.937  0.00  0.00    +0.000 OA
ATOM      3  H   UNL     1       4.280   8.479  16.946  0.00  0.00    +0.000 HD
ENDBRANCH   1   2
BRANCH   1   4
ATOM      4  C   UNL     1       2.315   6.993  18.860  0.00  0.00    +0.000 C 
BRANCH   4   5
ATOM      5  O   UNL     1       2.176   5.956  17.905  0.00  0.00    +0.000 OA
BRANCH   5  11
ATOM      6  C   UNL     1       3.716   4.107  18.703  0.00  0.00    +0.000 A 
ATOM      7  C   UNL     1       3.753   2.743  19.052  0.00  0.00    +0.000 A 
ATOM      8  C   UNL     1       2.618   1.937  18.970  0.00  0.00    +0.000 A 
ATOM      9  C   UNL     1       1.434   2.487  18.511  0.00  0.00    +0.000 A 
ATOM     10  C   UNL     1       1.366   3.833  18.171  0.00  0.00    +0.000 A 
ATOM     11  C   UNL     1       2.490   4.671  18.284  0.00  0.00    +0.000 A 
BRANCH   6  16
ATOM     12  C   UNL     1       7.342   7.048  17.303  0.00  0.00    +0.000 C 
ATOM     13  N   UNL     1       6.595   6.239  18.232  0.00  0.00    +0.000 N 
ATOM     14  C   UNL     1       5.537   5.470  17.790  0.00  0.00    +0.000 C 
ATOM     15  O   UNL     1       5.185   5.428  16.622  0.00  0.00    +0.000 OA
ATOM     16  N   UNL     1       4.921   4.831  18.854  0.00  0.00    +0.000 N 
ATOM     17  H   UNL     1       7.014   6.027  19.126  0.00  0.00    +0.000 HD
ATOM     18  H   UNL     1       5.101   5.293  19.717  0.00  0.00    +0.000 HD
ENDBRANCH   6  16
BRANCH   9  19
ATOM     19  O   UNL     1       0.305   1.737  18.382  0.00  0.00    +0.000 OA
ATOM     20  H   UNL     1      -0.317   2.215  17.811  0.00  0.00    +0.000 HD
ENDBRANCH   9  19
ENDBRANCH   5  11
ENDBRANCH   4   5
ENDBRANCH   1   4
BRANCH   1  21
ATOM     21  C   UNL     1       1.567   9.238  18.042  0.00  0.00    +0.000 C 
BRANCH  21  22
ATOM     22  N   UNL     1       1.485  10.315  19.042  0.00  0.00    +0.000 NA
ATOM     23  C   UNL     1       0.851  11.527  18.532  0.00  0.00    +0.000 C 
ATOM     24  C   UNL     1      -0.660  11.395  18.505  0.00  0.00    +0.000 C 
ATOM     25  C   UNL     1      -1.398  11.300  19.936  0.00  0.00    +0.000 C 
ATOM     26  C   UNL     1      -0.731   9.870  20.167  0.00  0.00    +0.000 C 
ATOM     27  C   UNL     1       0.818   9.890  20.280  0.00  0.00    +0.000 C 
ATOM     28  C   UNL     1      -1.498  12.892  19.956  0.00  0.00    +0.000 C 
ATOM     29  C   UNL     1      -2.350  13.136  21.131  0.00  0.00    +0.000 A 
ATOM     30  C   UNL     1      -3.271  14.108  21.440  0.00  0.00    +0.000 A 
ATOM     31  C   UNL     1      -3.891  14.005  22.681  0.00  0.00    +0.000 A 
ATOM     32  F   UNL     1      -4.809  14.915  23.028  0.00  0.00    +0.000 F 
ATOM     33  C   UNL     1      -3.555  12.981  23.583  0.00  0.00    +0.000 A 
ATOM     34  C   UNL     1      -2.576  12.037  23.251  0.00  0.00    +0.000 A 
ATOM     35  C   UNL     1      -2.006  12.148  22.004  0.00  0.00    +0.000 A 
ATOM     36  O   UNL     1      -0.993  11.426  21.430  0.00  0.00    +0.000 OA
ENDBRANCH  21  22
ENDBRANCH   1  21
TORSDOF 8
ENDMDL
