MODEL 1
REMARK VINA RESULT:      -8.3      0.000      0.000
REMARK  Name = 
REMARK  9 active torsions:
REMARK  status: ('A' for Active; 'I' for Inactive)
REMARK    1  A    between atoms: C_1  and  N_2
REMARK    2  A    between atoms: N_2  and  S_3
REMARK    3  A    between atoms: S_3  and  C_6
REMARK    4  A    between atoms: C_9  and  N_10
REMARK    5  A    between atoms: N_10  and  C_11
REMARK    6  A    between atoms: C_18  and  O_19
REMARK    7  A    between atoms: O_19  and  C_20
REMARK    8  A    between atoms: C_21  and  O_22
REMARK    9  A    between atoms: O_22  and  C_23
REMARK                            x       y       z     vdW  Elec       q    Type
REMARK                         _______ _______ _______ _____ _____    ______ ____
ROOT
ATOM      1  C   UNL     1       2.324   6.121  20.064  0.00  0.00    +0.000 A 
ATOM      2  N   UNL     1       1.542   5.218  20.684  0.00  0.00    +0.000 NA
ATOM      3  C   UNL     1       2.001   3.979  20.689  0.00  0.00    +0.000 A 
ATOM      4 CL   UNL     1       1.124   2.843  21.603  0.00  0.00    +0.000 Cl
ATOM      5  N   UNL     1       3.169   3.580  20.211  0.00  0.00    +0.000 NA
ATOM      6  C   UNL     1       3.838   4.476  19.474  0.00  0.00    +0.000 A 
ATOM      7  C   UNL     1       5.081   4.067  19.040  0.00  0.00    +0.000 A 
ATOM      8  C   UNL     1       5.864   4.833  18.181  0.00  0.00    +0.000 A 
ATOM      9  C   UNL     1       5.269   5.906  17.529  0.00  0.00    +0.000 A 
ATOM     10  C   UNL     1       4.074   6.427  18.089  0.00  0.00    +0.000 A 
ATOM     11  C   UNL     1       3.395   5.754  19.191  0.00  0.00    +0.000 A 
ENDROOT
BRANCH   1  12
ATOM     12  N   UNL     1       2.069   7.397  20.604  0.00  0.00    +0.000 N 
ATOM     13  H   UNL     1       3.029   7.725  20.774  0.00  0.00    +0.000 HD
BRANCH  12  17
ATOM     14  C   UNL     1      -0.377  10.362  18.785  0.00  0.00    +0.000 A 
ATOM     15  C   UNL     1      -0.460  10.120  20.158  0.00  0.00    +0.000 A 
ATOM     16  C   UNL     1       0.422   9.199  20.751  0.00  0.00    +0.000 A 
ATOM     17  C   UNL     1       1.393   8.503  19.993  0.00  0.00    +0.000 A 
ATOM     18  C   UNL     1       1.513   8.831  18.642  0.00  0.00    +0.000 A 
ATOM     19  C   UNL     1       0.630   9.743  18.037  0.00  0.00    +0.000 A 
BRANCH  14  20
ATOM     20  S   UNL     1      -1.727  11.181  17.929  0.00  0.00    +0.000 S 
ATOM     21  O   UNL     1      -2.723  11.498  18.933  0.00  0.00    +0.000 OA
ATOM     22  O   UNL     1      -2.049  10.403  16.758  0.00  0.00    +0.000 OA
BRANCH  20  24
ATOM     23  C   UNL     1      -0.334  13.443  18.408  0.00  0.00    +0.000 C 
ATOM     24  N   UNL     1      -1.089  12.655  17.432  0.00  0.00    +0.000 NA
ATOM     25  H   UNL     1      -0.642  12.537  16.521  0.00  0.00    +0.000 HD
ENDBRANCH  20  24
ENDBRANCH  14  20
ENDBRANCH  12  17
ENDBRANCH   1  12
BRANCH   8  26
ATOM     26  O   UNL     1       7.176   4.510  17.968  0.00  0.00    +0.000 OA
ATOM     27  C   UNL     1       8.120   5.231  18.771  0.00  0.00    +0.000 C 
ENDBRANCH   8  26
BRANCH   9  28
ATOM     28  O   UNL     1       5.728   6.487  16.369  0.00  0.00    +0.000 OA
ATOM     29  C   UNL     1       5.583   5.748  15.142  0.00  0.00    +0.000 C 
ENDBRANCH   9  28
TORSDOF 6
ENDMDL
MODEL 2
REMARK VINA RESULT:      -8.0      1.142      1.619
REMARK  Name = 
REMARK  9 active torsions:
REMARK  status: ('A' for Active; 'I' for Inactive)
REMARK    1  A    between atoms: C_1  and  N_2
REMARK    2  A    between atoms: N_2  and  S_3
REMARK    3  A    between atoms: S_3  and  C_6
REMARK    4  A    between atoms: C_9  and  N_10
REMARK    5  A    between atoms: N_10  and  C_11
REMARK    6  A    between atoms: C_18  and  O_19
REMARK    7  A    between atoms: O_19  and  C_20
REMARK    8  A    between atoms: C_21  and  O_22
REMARK    9  A    between atoms: O_22  and  C_23
REMARK                            x       y       z     vdW  Elec       q    Type
REMARK                         _______ _______ _______ _____ _____    ______ ____
ROOT
ATOM      1  C   UNL     1       2.325   6.144  20.042  0.00  0.00    +0.000 A 
ATOM      2  N   UNL     1       1.576   5.242  20.703  0.00  0.00    +0.000 NA
ATOM      3  C   UNL     1       2.038   4.004  20.693  0.00  0.00    +0.000 A 
ATOM      4 CL   UNL     1       1.208   2.871  21.654  0.00  0.00    +0.000 Cl
ATOM      5  N   UNL     1       3.183   3.605  20.162  0.00  0.00    +0.000 NA
ATOM      6  C   UNL     1       3.813   4.499  19.389  0.00  0.00    +0.000 A 
ATOM      7  C   UNL     1       5.035   4.090  18.898  0.00  0.00    +0.000 A 
ATOM      8  C   UNL     1       5.775   4.853  17.999  0.00  0.00    +0.000 A 
ATOM      9  C   UNL     1       5.147   5.921  17.370  0.00  0.00    +0.000 A 
ATOM     10  C   UNL     1       3.978   6.443  17.984  0.00  0.00    +0.000 A 
ATOM     11  C   UNL     1       3.354   5.774  19.121  0.00  0.00    +0.000 A 
ENDROOT
BRANCH   1  12
ATOM     12  N   UNL     1       2.093   7.422  20.587  0.00  0.00    +0.000 N 
ATOM     13  H   UNL     1       3.045   7.812  20.565  0.00  0.00    +0.000 HD
BRANCH  12  17
ATOM     14  C   UNL     1       0.007  10.835  19.145  0.00  0.00    +0.000 A 
ATOM     15  C   UNL     1       0.872  10.127  18.308  0.00  0.00    +0.000 A 
ATOM     16  C   UNL     1       1.480   8.951  18.779  0.00  0.00    +0.000 A 
ATOM     17  C   UNL     1       1.246   8.462  20.086  0.00  0.00    +0.000 A 
ATOM     18  C   UNL     1       0.308   9.139  20.868  0.00  0.00    +0.000 A 
ATOM     19  C   UNL     1      -0.299  10.322  20.409  0.00  0.00    +0.000 A 
BRANCH  14  20
ATOM     20  S   UNL     1      -0.445  12.529  18.753  0.00  0.00    +0.000 S 
ATOM     21  O   UNL     1       0.776  13.203  18.360  0.00  0.00    +0.000 OA
ATOM     22  O   UNL     1      -1.278  13.026  19.821  0.00  0.00    +0.000 OA
BRANCH  20  24
ATOM     23  C   UNL     1      -2.497  11.470  17.355  0.00  0.00    +0.000 C 
ATOM     24  N   UNL     1      -1.377  12.413  17.358  0.00  0.00    +0.000 NA
ATOM     25  H   UNL     1      -1.590  13.352  17.019  0.00  0.00    +0.000 HD
ENDBRANCH  20  24
ENDBRANCH  14  20
ENDBRANCH  12  17
ENDBRANCH   1  12
BRANCH   8  26
ATOM     26  O   UNL     1       7.076   4.532  17.725  0.00  0.00    +0.000 OA
ATOM     27  C   UNL     1       8.048   5.144  18.581  0.00  0.00    +0.000 C 
ENDBRANCH   8  26
BRANCH   9  28
ATOM     28  O   UNL     1       5.548   6.497  16.187  0.00  0.00    +0.000 OA
ATOM     29  C   UNL     1       5.558   5.673  15.006  0.00  0.00    +0.000 C 
ENDBRANCH   9  28
TORSDOF 6
ENDMDL
MODEL 3
REMARK VINA RESULT:      -7.9      0.977      1.228
REMARK  Name = 
REMARK  9 active torsions:
REMARK  status: ('A' for Active; 'I' for Inactive)
REMARK    1  A    between atoms: C_1  and  N_2
REMARK    2  A    between atoms: N_2  and  S_3
REMARK    3  A    between atoms: S_3  and  C_6
REMARK    4  A    between atoms: C_9  and  N_10
REMARK    5  A    between atoms: N_10  and  C_11
REMARK    6  A    between atoms: C_18  and  O_19
REMARK    7  A    between atoms: O_19  and  C_20
REMARK    8  A    between atoms: C_21  and  O_22
REMARK    9  A    between atoms: O_22  and  C_23
REMARK                            x       y       z     vdW  Elec       q    Type
REMARK                         _______ _______ _______ _____ _____    ______ ____
ROOT
ATOM      1  C   UNL     1       2.312   6.088  20.066  0.00  0.00    +0.000 A 
ATOM      2  N   UNL     1       1.543   5.180  20.695  0.00  0.00    +0.000 NA
ATOM      3  C   UNL     1       1.981   3.935  20.648  0.00  0.00    +0.000 A 
ATOM      4 CL   UNL     1       1.126   2.788  21.568  0.00  0.00    +0.000 Cl
ATOM      5  N   UNL     1       3.121   3.532  20.110  0.00  0.00    +0.000 NA
ATOM      6  C   UNL     1       3.773   4.437  19.369  0.00  0.00    +0.000 A 
ATOM      7  C   UNL     1       4.989   4.021  18.871  0.00  0.00    +0.000 A 
ATOM      8  C   UNL     1       5.748   4.798  18.000  0.00  0.00    +0.000 A 
ATOM      9  C   UNL     1       5.143   5.898  17.402  0.00  0.00    +0.000 A 
ATOM     10  C   UNL     1       3.981   6.421  18.027  0.00  0.00    +0.000 A 
ATOM     11  C   UNL     1       3.339   5.729  19.139  0.00  0.00    +0.000 A 
ENDROOT
BRANCH   1  12
ATOM     12  N   UNL     1       2.101   7.353  20.651  0.00  0.00    +0.000 N 
ATOM     13  H   UNL     1       3.072   7.648  20.817  0.00  0.00    +0.000 HD
BRANCH  12  17
ATOM     14  C   UNL     1      -0.278  10.437  18.943  0.00  0.00    +0.000 A 
ATOM     15  C   UNL     1      -0.385  10.128  20.301  0.00  0.00    +0.000 A 
ATOM     16  C   UNL     1       0.475   9.168  20.861  0.00  0.00    +0.000 A 
ATOM     17  C   UNL     1       1.449   8.496  20.085  0.00  0.00    +0.000 A 
ATOM     18  C   UNL     1       1.595   8.889  18.754  0.00  0.00    +0.000 A 
ATOM     19  C   UNL     1       0.733   9.842  18.181  0.00  0.00    +0.000 A 
BRANCH  14  20
ATOM     20  S   UNL     1      -1.602  11.316  18.108  0.00  0.00    +0.000 S 
ATOM     21  O   UNL     1      -1.093  12.636  17.797  0.00  0.00    +0.000 OA
ATOM     22  O   UNL     1      -2.812  11.128  18.872  0.00  0.00    +0.000 OA
BRANCH  20  24
ATOM     23  C   UNL     1      -3.120  10.112  16.229  0.00  0.00    +0.000 C 
ATOM     24  N   UNL     1      -1.776  10.529  16.632  0.00  0.00    +0.000 NA
ATOM     25  H   UNL     1      -1.237  11.026  15.922  0.00  0.00    +0.000 HD
ENDBRANCH  20  24
ENDBRANCH  14  20
ENDBRANCH  12  17
ENDBRANCH   1  12
BRANCH   8  26
ATOM     26  O   UNL     1       7.044   4.461  17.722  0.00  0.00    +0.000 OA
ATOM     27  C   UNL     1       8.034   5.179  18.470  0.00  0.00    +0.000 C 
ENDBRANCH   8  26
BRANCH   9  28
ATOM     28  O   UNL     1       5.562   6.503  16.240  0.00  0.00    +0.000 OA
ATOM     29  C   UNL     1       5.558   5.718  15.033  0.00  0.00    +0.000 C 
ENDBRANCH   9  28
TORSDOF 6
ENDMDL
MODEL 4
REMARK VINA RESULT:      -7.6      1.033      1.407
REMARK  Name = 
REMARK  9 active torsions:
REMARK  status: ('A' for Active; 'I' for Inactive)
REMARK    1  A    between atoms: C_1  and  N_2
REMARK    2  A    between atoms: N_2  and  S_3
REMARK    3  A    between atoms: S_3  and  C_6
REMARK    4  A    between atoms: C_9  and  N_10
REMARK    5  A    between atoms: N_10  and  C_11
REMARK    6  A    between atoms: C_18  and  O_19
REMARK    7  A    between atoms: O_19  and  C_20
REMARK    8  A    between atoms: C_21  and  O_22
REMARK    9  A    between atoms: O_22  and  C_23
REMARK                            x       y       z     vdW  Elec       q    Type
REMARK                         _______ _______ _______ _____ _____    ______ ____
ROOT
ATOM      1  C   UNL     1       2.430   6.028  20.029  0.00  0.00    +0.000 A 
ATOM      2  N   UNL     1       1.653   5.133  20.666  0.00  0.00    +0.000 NA
ATOM      3  C   UNL     1       2.096   3.888  20.655  0.00  0.00    +0.000 A 
ATOM      4 CL   UNL     1       1.229   2.760  21.588  0.00  0.00    +0.000 Cl
ATOM      5  N   UNL     1       3.245   3.476  20.144  0.00  0.00    +0.000 NA
ATOM      6  C   UNL     1       3.906   4.366  19.393  0.00  0.00    +0.000 A 
ATOM      7  C   UNL     1       5.131   3.943  18.923  0.00  0.00    +0.000 A 
ATOM      8  C   UNL     1       5.901   4.702  18.046  0.00  0.00    +0.000 A 
ATOM      9  C   UNL     1       5.302   5.785  17.414  0.00  0.00    +0.000 A 
ATOM     10  C   UNL     1       4.129   6.319  18.008  0.00  0.00    +0.000 A 
ATOM     11  C   UNL     1       3.472   5.651  19.126  0.00  0.00    +0.000 A 
ENDROOT
BRANCH   1  12
ATOM     12  N   UNL     1       2.206   7.305  20.581  0.00  0.00    +0.000 N 
ATOM     13  H   UNL     1       3.155   7.700  20.534  0.00  0.00    +0.000 HD
BRANCH  12  17
ATOM     14  C   UNL     1       0.068  10.708  19.189  0.00  0.00    +0.000 A 
ATOM     15  C   UNL     1       0.905   9.995  18.328  0.00  0.00    +0.000 A 
ATOM     16  C   UNL     1       1.530   8.822  18.786  0.00  0.00    +0.000 A 
ATOM     17  C   UNL     1       1.341   8.342  20.102  0.00  0.00    +0.000 A 
ATOM     18  C   UNL     1       0.430   9.023  20.911  0.00  0.00    +0.000 A 
ATOM     19  C   UNL     1      -0.194  10.202  20.467  0.00  0.00    +0.000 A 
BRANCH  14  20
ATOM     20  S   UNL     1      -0.398  12.398  18.803  0.00  0.00    +0.000 S 
ATOM     21  O   UNL     1      -0.610  13.071  20.069  0.00  0.00    +0.000 OA
ATOM     22  O   UNL     1      -1.418  12.358  17.784  0.00  0.00    +0.000 OA
BRANCH  20  24
ATOM     23  C   UNL     1       2.101  13.389  19.044  0.00  0.00    +0.000 C 
ATOM     24  N   UNL     1       0.988  13.086  18.143  0.00  0.00    +0.000 NA
ATOM     25  H   UNL     1       1.236  12.585  17.289  0.00  0.00    +0.000 HD
ENDBRANCH  20  24
ENDBRANCH  14  20
ENDBRANCH  12  17
ENDBRANCH   1  12
BRANCH   8  26
ATOM     26  O   UNL     1       7.202   4.363  17.796  0.00  0.00    +0.000 OA
ATOM     27  C   UNL     1       8.173   5.019  18.622  0.00  0.00    +0.000 C 
ENDBRANCH   8  26
BRANCH   9  28
ATOM     28  O   UNL     1       5.737   6.365  16.244  0.00  0.00    +0.000 OA
ATOM     29  C   UNL     1       5.657   5.586  15.037  0.00  0.00    +0.000 C 
ENDBRANCH   9  28
TORSDOF 6
ENDMDL
MODEL 5
REMARK VINA RESULT:      -7.5      0.949      1.069
REMARK  Name = 
REMARK  9 active torsions:
REMARK  status: ('A' for Active; 'I' for Inactive)
REMARK    1  A    between atoms: C_1  and  N_2
REMARK    2  A    between atoms: N_2  and  S_3
REMARK    3  A    between atoms: S_3  and  C_6
REMARK    4  A    between atoms: C_9  and  N_10
REMARK    5  A    between atoms: N_10  and  C_11
REMARK    6  A    between atoms: C_18  and  O_19
REMARK    7  A    between atoms: O_19  and  C_20
REMARK    8  A    between atoms: C_21  and  O_22
REMARK    9  A    between atoms: O_22  and  C_23
REMARK                            x       y       z     vdW  Elec       q    Type
REMARK                         _______ _______ _______ _____ _____    ______ ____
ROOT
ATOM      1  C   UNL     1       2.296   6.114  20.130  0.00  0.00    +0.000 A 
ATOM      2  N   UNL     1       1.496   5.178  20.672  0.00  0.00    +0.000 NA
ATOM      3  C   UNL     1       1.957   3.941  20.626  0.00  0.00    +0.000 A 
ATOM      4 CL   UNL     1       1.052   2.756  21.446  0.00  0.00    +0.000 Cl
ATOM      5  N   UNL     1       3.142   3.569  20.168  0.00  0.00    +0.000 NA
ATOM      6  C   UNL     1       3.833   4.504  19.504  0.00  0.00    +0.000 A 
ATOM      7  C   UNL     1       5.091   4.120  19.090  0.00  0.00    +0.000 A 
ATOM      8  C   UNL     1       5.902   4.932  18.302  0.00  0.00    +0.000 A 
ATOM      9  C   UNL     1       5.328   6.038  17.689  0.00  0.00    +0.000 A 
ATOM     10  C   UNL     1       4.112   6.527  18.235  0.00  0.00    +0.000 A 
ATOM     11  C   UNL     1       3.398   5.796  19.276  0.00  0.00    +0.000 A 
ENDROOT
BRANCH   1  12
ATOM     12  N   UNL     1       2.020   7.359  20.729  0.00  0.00    +0.000 N 
ATOM     13  H   UNL     1       2.959   7.625  21.052  0.00  0.00    +0.000 HD
BRANCH  12  17
ATOM     14  C   UNL     1      -0.071  10.630  18.993  0.00  0.00    +0.000 A 
ATOM     15  C   UNL     1      -0.022  10.475  20.381  0.00  0.00    +0.000 A 
ATOM     16  C   UNL     1       0.751   9.439  20.933  0.00  0.00    +0.000 A 
ATOM     17  C   UNL     1       1.479   8.538  20.122  0.00  0.00    +0.000 A 
ATOM     18  C   UNL     1       1.484   8.771  18.746  0.00  0.00    +0.000 A 
ATOM     19  C   UNL     1       0.708   9.799  18.182  0.00  0.00    +0.000 A 
BRANCH  14  20
ATOM     20  S   UNL     1      -1.351  11.640  18.242  0.00  0.00    +0.000 S 
ATOM     21  O   UNL     1      -1.942  10.843  17.185  0.00  0.00    +0.000 OA
ATOM     22  O   UNL     1      -0.796  12.947  17.987  0.00  0.00    +0.000 OA
BRANCH  20  24
ATOM     23  C   UNL     1      -2.606  13.037  20.180  0.00  0.00    +0.000 C 
ATOM     24  N   UNL     1      -2.536  11.784  19.427  0.00  0.00    +0.000 NA
ATOM     25  H   UNL     1      -3.424  11.442  19.056  0.00  0.00    +0.000 HD
ENDBRANCH  20  24
ENDBRANCH  14  20
ENDBRANCH  12  17
ENDBRANCH   1  12
BRANCH   8  26
ATOM     26  O   UNL     1       7.222   4.621  18.117  0.00  0.00    +0.000 OA
ATOM     27  C   UNL     1       8.144   5.383  18.907  0.00  0.00    +0.000 C 
ENDBRANCH   8  26
BRANCH   9  28
ATOM     28  O   UNL     1       5.825   6.682  16.579  0.00  0.00    +0.000 OA
ATOM     29  C   UNL     1       5.402   6.215  15.285  0.00  0.00    +0.000 C 
ENDBRANCH   9  28
TORSDOF 6
ENDMDL
MODEL 6
REMARK VINA RESULT:      -7.5      1.222      1.568
REMARK  Name = 
REMARK  9 active torsions:
REMARK  status: ('A' for Active; 'I' for Inactive)
REMARK    1  A    between atoms: C_1  and  N_2
REMARK    2  A    between atoms: N_2  and  S_3
REMARK    3  A    between atoms: S_3  and  C_6
REMARK    4  A    between atoms: C_9  and  N_10
REMARK    5  A    between atoms: N_10  and  C_11
REMARK    6  A    between atoms: C_18  and  O_19
REMARK    7  A    between atoms: O_19  and  C_20
REMARK    8  A    between atoms: C_21  and  O_22
REMARK    9  A    between atoms: O_22  and  C_23
REMARK                            x       y       z     vdW  Elec       q    Type
REMARK                         _______ _______ _______ _____ _____    ______ ____
ROOT
ATOM      1  C   UNL     1       2.379   6.044  20.098  0.00  0.00    +0.000 A 
ATOM      2  N   UNL     1       1.600   5.143  20.724  0.00  0.00    +0.000 NA
ATOM      3  C   UNL     1       2.052   3.902  20.720  0.00  0.00    +0.000 A 
ATOM      4 CL   UNL     1       1.180   2.768  21.642  0.00  0.00    +0.000 Cl
ATOM      5  N   UNL     1       3.212   3.498  20.227  0.00  0.00    +0.000 NA
ATOM      6  C   UNL     1       3.877   4.393  19.485  0.00  0.00    +0.000 A 
ATOM      7  C   UNL     1       5.112   3.978  19.034  0.00  0.00    +0.000 A 
ATOM      8  C   UNL     1       5.889   4.743  18.168  0.00  0.00    +0.000 A 
ATOM      9  C   UNL     1       5.292   5.821  17.526  0.00  0.00    +0.000 A 
ATOM     10  C   UNL     1       4.107   6.346  18.102  0.00  0.00    +0.000 A 
ATOM     11  C   UNL     1       3.437   5.674  19.211  0.00  0.00    +0.000 A 
ENDROOT
BRANCH   1  12
ATOM     12  N   UNL     1       2.138   7.320  20.645  0.00  0.00    +0.000 N 
ATOM     13  H   UNL     1       3.089   7.710  20.639  0.00  0.00    +0.000 HD
BRANCH  12  17
ATOM     14  C   UNL     1       0.068  10.741  19.195  0.00  0.00    +0.000 A 
ATOM     15  C   UNL     1       0.965  10.054  18.374  0.00  0.00    +0.000 A 
ATOM     16  C   UNL     1       1.568   8.874  18.845  0.00  0.00    +0.000 A 
ATOM     17  C   UNL     1       1.297   8.362  20.135  0.00  0.00    +0.000 A 
ATOM     18  C   UNL     1       0.329   9.017  20.898  0.00  0.00    +0.000 A 
ATOM     19  C   UNL     1      -0.273  10.203  20.441  0.00  0.00    +0.000 A 
BRANCH  14  20
ATOM     20  S   UNL     1      -0.386  12.437  18.819  0.00  0.00    +0.000 S 
ATOM     21  O   UNL     1      -1.555  12.374  17.965  0.00  0.00    +0.000 OA
ATOM     22  O   UNL     1       0.810  13.139  18.420  0.00  0.00    +0.000 OA
BRANCH  20  24
ATOM     23  C   UNL     1      -2.341  13.382  20.421  0.00  0.00    +0.000 C 
ATOM     24  N   UNL     1      -0.917  13.074  20.281  0.00  0.00    +0.000 NA
ATOM     25  H   UNL     1      -0.503  12.542  21.048  0.00  0.00    +0.000 HD
ENDBRANCH  20  24
ENDBRANCH  14  20
ENDBRANCH  12  17
ENDBRANCH   1  12
BRANCH   8  26
ATOM     26  O   UNL     1       7.197   4.413  17.938  0.00  0.00    +0.000 OA
ATOM     27  C   UNL     1       8.155   5.138  18.721  0.00  0.00    +0.000 C 
ENDBRANCH   8  26
BRANCH   9  28
ATOM     28  O   UNL     1       5.740   6.403  16.363  0.00  0.00    +0.000 OA
ATOM     29  C   UNL     1       5.592   5.661  15.138  0.00  0.00    +0.000 C 
ENDBRANCH   9  28
TORSDOF 6
ENDMDL
MODEL 7
REMARK VINA RESULT:      -7.4      1.609      1.844
REMARK  Name = 
REMARK  9 active torsions:
REMARK  status: ('A' for Active; 'I' for Inactive)
REMARK    1  A    between atoms: C_1  and  N_2
REMARK    2  A    between atoms: N_2  and  S_3
REMARK    3  A    between atoms: S_3  and  C_6
REMARK    4  A    between atoms: C_9  and  N_10
REMARK    5  A    between atoms: N_10  and  C_11
REMARK    6  A    between atoms: C_18  and  O_19
REMARK    7  A    between atoms: O_19  and  C_20
REMARK    8  A    between atoms: C_21  and  O_22
REMARK    9  A    between atoms: O_22  and  C_23
REMARK                            x       y       z     vdW  Elec       q    Type
REMARK                         _______ _______ _______ _____ _____    ______ ____
ROOT
ATOM      1  C   UNL     1       2.522   5.784  18.984  0.00  0.00    +0.000 A 
ATOM      2  N   UNL     1       1.572   4.831  18.979  0.00  0.00    +0.000 NA
ATOM      3  C   UNL     1       1.953   3.651  18.523  0.00  0.00    +0.000 A 
ATOM      4 CL   UNL     1       0.828   2.381  18.655  0.00  0.00    +0.000 Cl
ATOM      5  N   UNL     1       3.179   3.321  18.150  0.00  0.00    +0.000 NA
ATOM      6  C   UNL     1       4.047   4.333  18.028  0.00  0.00    +0.000 A 
ATOM      7  C   UNL     1       5.335   3.964  17.702  0.00  0.00    +0.000 A 
ATOM      8  C   UNL     1       6.337   4.894  17.437  0.00  0.00    +0.000 A 
ATOM      9  C   UNL     1       5.968   6.217  17.227  0.00  0.00    +0.000 A 
ATOM     10  C   UNL     1       4.702   6.626  17.721  0.00  0.00    +0.000 A 
ATOM     11  C   UNL     1       3.749   5.662  18.260  0.00  0.00    +0.000 A 
ENDROOT
BRANCH   1  12
ATOM     12  N   UNL     1       2.212   6.738  19.973  0.00  0.00    +0.000 N 
ATOM     13  H   UNL     1       3.117   6.812  20.454  0.00  0.00    +0.000 HD
BRANCH  12  17
ATOM     14  C   UNL     1       0.381  10.537  19.421  0.00  0.00    +0.000 A 
ATOM     15  C   UNL     1       0.351   9.909  20.669  0.00  0.00    +0.000 A 
ATOM     16  C   UNL     1       1.040   8.697  20.850  0.00  0.00    +0.000 A 
ATOM     17  C   UNL     1       1.763   8.087  19.798  0.00  0.00    +0.000 A 
ATOM     18  C   UNL     1       1.851   8.780  18.590  0.00  0.00    +0.000 A 
ATOM     19  C   UNL     1       1.158   9.988  18.395  0.00  0.00    +0.000 A 
BRANCH  14  20
ATOM     20  S   UNL     1      -0.805  11.826  19.029  0.00  0.00    +0.000 S 
ATOM     21  O   UNL     1      -0.040  13.027  18.761  0.00  0.00    +0.000 OA
ATOM     22  O   UNL     1      -1.845  11.794  20.029  0.00  0.00    +0.000 OA
BRANCH  20  24
ATOM     23  C   UNL     1      -2.587  10.418  17.569  0.00  0.00    +0.000 C 
ATOM     24  N   UNL     1      -1.470  11.364  17.554  0.00  0.00    +0.000 NA
ATOM     25  H   UNL     1      -1.600  12.193  16.972  0.00  0.00    +0.000 HD
ENDBRANCH  20  24
ENDBRANCH  14  20
ENDBRANCH  12  17
ENDBRANCH   1  12
BRANCH   8  26
ATOM     26  O   UNL     1       7.644   4.499  17.357  0.00  0.00    +0.000 OA
ATOM     27  C   UNL     1       8.402   4.648  18.565  0.00  0.00    +0.000 C 
ENDBRANCH   8  26
BRANCH   9  28
ATOM     28  O   UNL     1       6.717   7.155  16.554  0.00  0.00    +0.000 OA
ATOM     29  C   UNL     1       7.577   8.011  17.328  0.00  0.00    +0.000 C 
ENDBRANCH   9  28
TORSDOF 6
ENDMDL
MODEL 8
REMARK VINA RESULT:      -7.3      3.544      8.690
REMARK  Name = 
REMARK  9 active torsions:
REMARK  status: ('A' for Active; 'I' for Inactive)
REMARK    1  A    between atoms: C_1  and  N_2
REMARK    2  A    between atoms: N_2  and  S_3
REMARK    3  A    between atoms: S_3  and  C_6
REMARK    4  A    between atoms: C_9  and  N_10
REMARK    5  A    between atoms: N_10  and  C_11
REMARK    6  A    between atoms: C_18  and  O_19
REMARK    7  A    between atoms: O_19  and  C_20
REMARK    8  A    between atoms: C_21  and  O_22
REMARK    9  A    between atoms: O_22  and  C_23
REMARK                            x       y       z     vdW  Elec       q    Type
REMARK                         _______ _______ _______ _____ _____    ______ ____
ROOT
ATOM      1  C   UNL     1       0.868  10.155  19.101  0.00  0.00    +0.000 A 
ATOM      2  N   UNL     1       1.752  11.088  19.499  0.00  0.00    +0.000 NA
ATOM      3  C   UNL     1       1.328  12.338  19.429  0.00  0.00    +0.000 A 
ATOM      4 CL   UNL     1       2.353  13.530  20.078  0.00  0.00    +0.000 Cl
ATOM      5  N   UNL     1       0.113  12.728  19.078  0.00  0.00    +0.000 NA
ATOM      6  C   UNL     1      -0.675  11.784  18.547  0.00  0.00    +0.000 A 
ATOM      7  C   UNL     1      -1.958  12.193  18.247  0.00  0.00    +0.000 A 
ATOM      8  C   UNL     1      -2.874  11.370  17.598  0.00  0.00    +0.000 A 
ATOM      9  C   UNL     1      -2.404  10.210  16.994  0.00  0.00    +0.000 A 
ATOM     10  C   UNL     1      -1.153   9.706  17.437  0.00  0.00    +0.000 A 
ATOM     11  C   UNL     1      -0.308  10.467  18.350  0.00  0.00    +0.000 A 
ENDROOT
BRANCH   1  12
ATOM     12  N   UNL     1       1.168   8.936  19.740  0.00  0.00    +0.000 N 
ATOM     13  H   UNL     1       0.222   8.551  19.865  0.00  0.00    +0.000 HD
BRANCH  12  17
ATOM     14  C   UNL     1       3.889   5.853  18.655  0.00  0.00    +0.000 A 
ATOM     15  C   UNL     1       3.097   5.730  19.799  0.00  0.00    +0.000 A 
ATOM     16  C   UNL     1       2.141   6.719  20.087  0.00  0.00    +0.000 A 
ATOM     17  C   UNL     1       1.959   7.846  19.252  0.00  0.00    +0.000 A 
ATOM     18  C   UNL     1       2.700   7.898  18.070  0.00  0.00    +0.000 A 
ATOM     19  C   UNL     1       3.666   6.918  17.777  0.00  0.00    +0.000 A 
BRANCH  14  20
ATOM     20  S   UNL     1       5.380   4.868  18.477  0.00  0.00    +0.000 S 
ATOM     21  O   UNL     1       6.197   5.138  19.643  0.00  0.00    +0.000 OA
ATOM     22  O   UNL     1       5.881   5.056  17.138  0.00  0.00    +0.000 OA
BRANCH  20  24
ATOM     23  C   UNL     1       3.816   2.798  17.731  0.00  0.00    +0.000 C 
ATOM     24  N   UNL     1       4.863   3.275  18.636  0.00  0.00    +0.000 NA
ATOM     25  H   UNL     1       5.678   2.667  18.727  0.00  0.00    +0.000 HD
ENDBRANCH  20  24
ENDBRANCH  14  20
ENDBRANCH  12  17
ENDBRANCH   1  12
BRANCH   8  26
ATOM     26  O   UNL     1      -4.195  11.720  17.535  0.00  0.00    +0.000 OA
ATOM     27  C   UNL     1      -4.870  11.782  18.798  0.00  0.00    +0.000 C 
ENDBRANCH   8  26
BRANCH   9  28
ATOM     28  O   UNL     1      -3.038   9.526  15.982  0.00  0.00    +0.000 OA
ATOM     29  C   UNL     1      -3.003  10.093  14.660  0.00  0.00    +0.000 C 
ENDBRANCH   9  28
TORSDOF 6
ENDMDL
MODEL 9
REMARK VINA RESULT:      -7.3      2.118      2.470
REMARK  Name = 
REMARK  9 active torsions:
REMARK  status: ('A' for Active; 'I' for Inactive)
REMARK    1  A    between atoms: C_1  and  N_2
REMARK    2  A    between atoms: N_2  and  S_3
REMARK    3  A    between atoms: S_3  and  C_6
REMARK    4  A    between atoms: C_9  and  N_10
REMARK    5  A    between atoms: N_10  and  C_11
REMARK    6  A    between atoms: C_18  and  O_19
REMARK    7  A    between atoms: O_19  and  C_20
REMARK    8  A    between atoms: C_21  and  O_22
REMARK    9  A    between atoms: O_22  and  C_23
REMARK                            x       y       z     vdW  Elec       q    Type
REMARK                         _______ _______ _______ _____ _____    ______ ____
ROOT
ATOM      1  C   UNL     1       2.429   5.714  19.201  0.00  0.00    +0.000 A 
ATOM      2  N   UNL     1       1.451   4.790  19.196  0.00  0.00    +0.000 NA
ATOM      3  C   UNL     1       1.750   3.650  18.598  0.00  0.00    +0.000 A 
ATOM      4 CL   UNL     1       0.600   2.400  18.715  0.00  0.00    +0.000 Cl
ATOM      5  N   UNL     1       2.925   3.327  18.083  0.00  0.00    +0.000 NA
ATOM      6  C   UNL     1       3.812   4.325  17.975  0.00  0.00    +0.000 A 
ATOM      7  C   UNL     1       5.052   3.958  17.497  0.00  0.00    +0.000 A 
ATOM      8  C   UNL     1       6.056   4.884  17.228  0.00  0.00    +0.000 A 
ATOM      9  C   UNL     1       5.713   6.230  17.177  0.00  0.00    +0.000 A 
ATOM     10  C   UNL     1       4.511   6.620  17.824  0.00  0.00    +0.000 A 
ATOM     11  C   UNL     1       3.580   5.633  18.358  0.00  0.00    +0.000 A 
ENDROOT
BRANCH   1  12
ATOM     12  N   UNL     1       2.241   6.576  20.300  0.00  0.00    +0.000 N 
ATOM     13  H   UNL     1       3.217   6.738  20.581  0.00  0.00    +0.000 HD
BRANCH  12  17
ATOM     14  C   UNL     1       0.899  10.611  20.317  0.00  0.00    +0.000 A 
ATOM     15  C   UNL     1       1.245   9.984  19.118  0.00  0.00    +0.000 A 
ATOM     16  C   UNL     1       1.599   8.623  19.127  0.00  0.00    +0.000 A 
ATOM     17  C   UNL     1       1.621   7.867  20.322  0.00  0.00    +0.000 A 
ATOM     18  C   UNL     1       1.183   8.494  21.490  0.00  0.00    +0.000 A 
ATOM     19  C   UNL     1       0.836   9.857  21.493  0.00  0.00    +0.000 A 
BRANCH  14  20
ATOM     20  S   UNL     1       0.860  12.403  20.421  0.00  0.00    +0.000 S 
ATOM     21  O   UNL     1       2.055  12.884  19.757  0.00  0.00    +0.000 OA
ATOM     22  O   UNL     1       0.550  12.764  21.783  0.00  0.00    +0.000 OA
BRANCH  20  24
ATOM     23  C   UNL     1      -1.632  13.385  20.088  0.00  0.00    +0.000 C 
ATOM     24  N   UNL     1      -0.428  12.862  19.441  0.00  0.00    +0.000 NA
ATOM     25  H   UNL     1      -0.072  13.413  18.658  0.00  0.00    +0.000 HD
ENDBRANCH  20  24
ENDBRANCH  14  20
ENDBRANCH  12  17
ENDBRANCH   1  12
BRANCH   8  26
ATOM     26  O   UNL     1       7.337   4.467  16.989  0.00  0.00    +0.000 OA
ATOM     27  C   UNL     1       8.196   4.451  18.136  0.00  0.00    +0.000 C 
ENDBRANCH   8  26
BRANCH   9  28
ATOM     28  O   UNL     1       6.428   7.210  16.529  0.00  0.00    +0.000 OA
ATOM     29  C   UNL     1       7.423   7.928  17.281  0.00  0.00    +0.000 C 
ENDBRANCH   9  28
TORSDOF 6
ENDMDL
