MODEL 1
REMARK VINA RESULT:      -8.5      0.000      0.000
REMARK  Name = 
REMARK  7 active torsions:
REMARK  status: ('A' for Active; 'I' for Inactive)
REMARK    1  A    between atoms: C_1  and  C_2
REMARK    2  A    between atoms: C_5  and  N_6
REMARK    3  A    between atoms: C_7  and  C_9
REMARK    4  A    between atoms: N_11  and  C_12
REMARK    5  A    between atoms: C_12  and  C_13
REMARK    6  A    between atoms: C_13  and  C_14
REMARK    7  A    between atoms: C_23  and  C_24
REMARK                            x       y       z     vdW  Elec       q    Type
REMARK                         _______ _______ _______ _____ _____    ______ ____
ROOT
ATOM      1  C   UNL     1       3.096   4.357  19.771  0.00  0.00    +0.000 C 
ATOM      2  O   UNL     1       3.299   3.387  20.486  0.00  0.00    +0.000 OA
ATOM      3  N   UNL     1       3.701   4.635  18.562  0.00  0.00    +0.000 N 
ATOM      4  H   UNL     1       3.397   5.488  18.094  0.00  0.00    +0.000 HD
ENDROOT
BRANCH   1   6
ATOM      5  N   UNL     1       2.476   6.727  19.904  0.00  0.00    +0.000 N 
ATOM      6  C   UNL     1       2.072   5.430  20.185  0.00  0.00    +0.000 C 
ATOM      7  O   UNL     1       1.038   5.028  20.702  0.00  0.00    +0.000 OA
ATOM      8  H   UNL     1       3.388   6.798  19.468  0.00  0.00    +0.000 HD
BRANCH   5  13
ATOM      9  C   UNL     1      -0.498  11.501  21.124  0.00  0.00    +0.000 C 
ATOM     10  C   UNL     1       0.277  10.265  20.786  0.00  0.00    +0.000 A 
ATOM     11  C   UNL     1       0.476   9.287  21.748  0.00  0.00    +0.000 A 
ATOM     12  C   UNL     1       1.194   8.133  21.439  0.00  0.00    +0.000 A 
ATOM     13  C   UNL     1       1.744   7.912  20.169  0.00  0.00    +0.000 A 
ATOM     14  C   UNL     1       1.546   8.897  19.178  0.00  0.00    +0.000 A 
ATOM     15  C   UNL     1       2.060   8.822  17.763  0.00  0.00    +0.000 C 
ATOM     16  C   UNL     1       0.812  10.065  19.508  0.00  0.00    +0.000 A 
ENDBRANCH   5  13
ENDBRANCH   1   6
BRANCH   3  17
ATOM     17  C   UNL     1       4.693   3.762  17.976  0.00  0.00    +0.000 C 
BRANCH  17  18
ATOM     18  C   UNL     1       4.578   3.630  16.454  0.00  0.00    +0.000 C 
BRANCH  18  19
ATOM     19  C   UNL     1       5.707   4.326  15.754  0.00  0.00    +0.000 A 
ATOM     20  C   UNL     1       6.552   5.261  16.322  0.00  0.00    +0.000 A 
ATOM     21  N   UNL     1       7.430   5.689  15.366  0.00  0.00    +0.000 N 
ATOM     22  C   UNL     1       7.180   5.055  14.171  0.00  0.00    +0.000 A 
ATOM     23  C   UNL     1       7.819   5.193  12.932  0.00  0.00    +0.000 A 
ATOM     24  C   UNL     1       7.346   4.420  11.869  0.00  0.00    +0.000 A 
ATOM     25  C   UNL     1       6.279   3.544  12.044  0.00  0.00    +0.000 A 
ATOM     26  C   UNL     1       5.653   3.416  13.292  0.00  0.00    +0.000 A 
ATOM     27  C   UNL     1       6.106   4.189  14.382  0.00  0.00    +0.000 A 
ATOM     28  H   UNL     1       8.154   6.379  15.504  0.00  0.00    +0.000 HD
ENDBRANCH  18  19
ENDBRANCH  17  18
ENDBRANCH   3  17
TORSDOF 5
ENDMDL
MODEL 2
REMARK VINA RESULT:      -8.4      5.825      7.816
REMARK  Name = 
REMARK  7 active torsions:
REMARK  status: ('A' for Active; 'I' for Inactive)
REMARK    1  A    between atoms: C_1  and  C_2
REMARK    2  A    between atoms: C_5  and  N_6
REMARK    3  A    between atoms: C_7  and  C_9
REMARK    4  A    between atoms: N_11  and  C_12
REMARK    5  A    between atoms: C_12  and  C_13
REMARK    6  A    between atoms: C_13  and  C_14
REMARK    7  A    between atoms: C_23  and  C_24
REMARK                            x       y       z     vdW  Elec       q    Type
REMARK                         _______ _______ _______ _____ _____    ______ ____
ROOT
ATOM      1  C   UNL     1       6.941   6.879  16.942  0.00  0.00    +0.000 C 
ATOM      2  O   UNL     1       7.750   6.506  16.106  0.00  0.00    +0.000 OA
ATOM      3  N   UNL     1       7.156   7.800  17.948  0.00  0.00    +0.000 N 
ATOM      4  H   UNL     1       6.358   8.001  18.549  0.00  0.00    +0.000 HD
ENDROOT
BRANCH   1   6
ATOM      5  N   UNL     1       5.304   5.312  17.882  0.00  0.00    +0.000 N 
ATOM      6  C   UNL     1       5.508   6.316  16.946  0.00  0.00    +0.000 C 
ATOM      7  O   UNL     1       4.726   6.807  16.143  0.00  0.00    +0.000 OA
ATOM      8  H   UNL     1       6.121   5.080  18.434  0.00  0.00    +0.000 HD
BRANCH   5  13
ATOM      9  C   UNL     1       0.453   2.348  18.777  0.00  0.00    +0.000 C 
ATOM     10  C   UNL     1       1.706   3.137  18.552  0.00  0.00    +0.000 A 
ATOM     11  C   UNL     1       2.781   2.557  17.897  0.00  0.00    +0.000 A 
ATOM     12  C   UNL     1       3.949   3.287  17.682  0.00  0.00    +0.000 A 
ATOM     13  C   UNL     1       4.093   4.613  18.114  0.00  0.00    +0.000 A 
ATOM     14  C   UNL     1       3.005   5.217  18.779  0.00  0.00    +0.000 A 
ATOM     15  C   UNL     1       2.983   6.630  19.304  0.00  0.00    +0.000 C 
ATOM     16  C   UNL     1       1.823   4.461  18.989  0.00  0.00    +0.000 A 
ENDBRANCH   5  13
ENDBRANCH   1   6
BRANCH   3  17
ATOM     17  C   UNL     1       8.428   8.462  18.130  0.00  0.00    +0.000 C 
BRANCH  17  18
ATOM     18  C   UNL     1       8.371   9.978  17.926  0.00  0.00    +0.000 C 
BRANCH  18  19
ATOM     19  C   UNL     1       9.277  10.698  18.878  0.00  0.00    +0.000 A 
ATOM     20  C   UNL     1       9.269  10.563  20.254  0.00  0.00    +0.000 A 
ATOM     21  N   UNL     1      10.216  11.400  20.776  0.00  0.00    +0.000 N 
ATOM     22  C   UNL     1      10.849  12.091  19.771  0.00  0.00    +0.000 A 
ATOM     23  C   UNL     1      11.865  13.053  19.845  0.00  0.00    +0.000 A 
ATOM     24  C   UNL     1      12.324  13.606  18.647  0.00  0.00    +0.000 A 
ATOM     25  C   UNL     1      11.787  13.207  17.426  0.00  0.00    +0.000 A 
ATOM     26  C   UNL     1      10.772  12.242  17.369  0.00  0.00    +0.000 A 
ATOM     27  C   UNL     1      10.286  11.670  18.565  0.00  0.00    +0.000 A 
ATOM     28  H   UNL     1      10.419  11.510  21.759  0.00  0.00    +0.000 HD
ENDBRANCH  18  19
ENDBRANCH  17  18
ENDBRANCH   3  17
TORSDOF 5
ENDMDL
MODEL 3
REMARK VINA RESULT:      -8.3      1.296      1.441
REMARK  Name = 
REMARK  7 active torsions:
REMARK  status: ('A' for Active; 'I' for Inactive)
REMARK    1  A    between atoms: C_1  and  C_2
REMARK    2  A    between atoms: C_5  and  N_6
REMARK    3  A    between atoms: C_7  and  C_9
REMARK    4  A    between atoms: N_11  and  C_12
REMARK    5  A    between atoms: C_12  and  C_13
REMARK    6  A    between atoms: C_13  and  C_14
REMARK    7  A    between atoms: C_23  and  C_24
REMARK                            x       y       z     vdW  Elec       q    Type
REMARK                         _______ _______ _______ _____ _____    ______ ____
ROOT
ATOM      1  C   UNL     1       3.347   6.133  18.750  0.00  0.00    +0.000 C 
ATOM      2  O   UNL     1       3.747   6.849  17.846  0.00  0.00    +0.000 OA
ATOM      3  N   UNL     1       3.716   4.825  18.996  0.00  0.00    +0.000 N 
ATOM      4  H   UNL     1       3.289   4.383  19.809  0.00  0.00    +0.000 HD
ENDROOT
BRANCH   1   6
ATOM      5  N   UNL     1       2.118   8.033  19.698  0.00  0.00    +0.000 N 
ATOM      6  C   UNL     1       2.323   6.663  19.771  0.00  0.00    +0.000 C 
ATOM      7  O   UNL     1       1.814   5.835  20.515  0.00  0.00    +0.000 OA
ATOM      8  H   UNL     1       2.668   8.503  18.988  0.00  0.00    +0.000 HD
BRANCH   5  13
ATOM      9  C   UNL     1      -1.387  11.080  23.097  0.00  0.00    +0.000 C 
ATOM     10  C   UNL     1      -0.484  10.295  22.195  0.00  0.00    +0.000 A 
ATOM     11  C   UNL     1       0.401   9.374  22.732  0.00  0.00    +0.000 A 
ATOM     12  C   UNL     1       1.242   8.640  21.898  0.00  0.00    +0.000 A 
ATOM     13  C   UNL     1       1.237   8.797  20.505  0.00  0.00    +0.000 A 
ATOM     14  C   UNL     1       0.338   9.727  19.944  0.00  0.00    +0.000 A 
ATOM     15  C   UNL     1       0.195  10.019  18.472  0.00  0.00    +0.000 C 
ATOM     16  C   UNL     1      -0.512  10.467  20.806  0.00  0.00    +0.000 A 
ENDBRANCH   5  13
ENDBRANCH   1   6
BRANCH   3  17
ATOM     17  C   UNL     1       4.671   4.124  18.167  0.00  0.00    +0.000 C 
BRANCH  17  18
ATOM     18  C   UNL     1       4.368   4.210  16.668  0.00  0.00    +0.000 C 
BRANCH  18  19
ATOM     19  C   UNL     1       5.573   4.640  15.886  0.00  0.00    +0.000 A 
ATOM     20  C   UNL     1       6.579   5.468  16.348  0.00  0.00    +0.000 A 
ATOM     21  N   UNL     1       7.484   5.653  15.340  0.00  0.00    +0.000 N 
ATOM     22  C   UNL     1       7.094   4.964  14.216  0.00  0.00    +0.000 A 
ATOM     23  C   UNL     1       7.706   4.879  12.959  0.00  0.00    +0.000 A 
ATOM     24  C   UNL     1       7.078   4.103  11.982  0.00  0.00    +0.000 A 
ATOM     25  C   UNL     1       5.887   3.437  12.258  0.00  0.00    +0.000 A 
ATOM     26  C   UNL     1       5.288   3.531  13.523  0.00  0.00    +0.000 A 
ATOM     27  C   UNL     1       5.899   4.313  14.527  0.00  0.00    +0.000 A 
ATOM     28  H   UNL     1       8.316   6.222  15.400  0.00  0.00    +0.000 HD
ENDBRANCH  18  19
ENDBRANCH  17  18
ENDBRANCH   3  17
TORSDOF 5
ENDMDL
MODEL 4
REMARK VINA RESULT:      -8.3      5.771      7.832
REMARK  Name = 
REMARK  7 active torsions:
REMARK  status: ('A' for Active; 'I' for Inactive)
REMARK    1  A    between atoms: C_1  and  C_2
REMARK    2  A    between atoms: C_5  and  N_6
REMARK    3  A    between atoms: C_7  and  C_9
REMARK    4  A    between atoms: N_11  and  C_12
REMARK    5  A    between atoms: C_12  and  C_13
REMARK    6  A    between atoms: C_13  and  C_14
REMARK    7  A    between atoms: C_23  and  C_24
REMARK                            x       y       z     vdW  Elec       q    Type
REMARK                         _______ _______ _______ _____ _____    ______ ____
ROOT
ATOM      1  C   UNL     1       7.391   6.370  17.679  0.00  0.00    +0.000 C 
ATOM      2  O   UNL     1       7.802   6.133  16.553  0.00  0.00    +0.000 OA
ATOM      3  N   UNL     1       7.819   7.376  18.522  0.00  0.00    +0.000 N 
ATOM      4  H   UNL     1       7.351   7.434  19.425  0.00  0.00    +0.000 HD
ENDROOT
BRANCH   1   6
ATOM      5  N   UNL     1       5.224   5.243  17.437  0.00  0.00    +0.000 N 
ATOM      6  C   UNL     1       6.277   5.506  18.301  0.00  0.00    +0.000 C 
ATOM      7  O   UNL     1       6.443   5.155  19.462  0.00  0.00    +0.000 OA
ATOM      8  H   UNL     1       5.324   5.654  16.516  0.00  0.00    +0.000 HD
BRANCH   5  13
ATOM      9  C   UNL     1       0.610   2.014  18.620  0.00  0.00    +0.000 C 
ATOM     10  C   UNL     1       1.799   2.872  18.313  0.00  0.00    +0.000 A 
ATOM     11  C   UNL     1       3.004   2.285  17.962  0.00  0.00    +0.000 A 
ATOM     12  C   UNL     1       4.114   3.078  17.674  0.00  0.00    +0.000 A 
ATOM     13  C   UNL     1       4.067   4.478  17.730  0.00  0.00    +0.000 A 
ATOM     14  C   UNL     1       2.845   5.090  18.081  0.00  0.00    +0.000 A 
ATOM     15  C   UNL     1       2.615   6.575  18.185  0.00  0.00    +0.000 C 
ATOM     16  C   UNL     1       1.725   4.269  18.371  0.00  0.00    +0.000 A 
ENDBRANCH   5  13
ENDBRANCH   1   6
BRANCH   3  17
ATOM     17  C   UNL     1       8.854   8.312  18.143  0.00  0.00    +0.000 C 
BRANCH  17  18
ATOM     18  C   UNL     1       8.418   9.779  18.218  0.00  0.00    +0.000 C 
BRANCH  18  19
ATOM     19  C   UNL     1       9.336  10.582  19.089  0.00  0.00    +0.000 A 
ATOM     20  C   UNL     1       9.363  10.555  20.471  0.00  0.00    +0.000 A 
ATOM     21  N   UNL     1      10.309  11.443  20.903  0.00  0.00    +0.000 N 
ATOM     22  C   UNL     1      10.908  12.061  19.831  0.00  0.00    +0.000 A 
ATOM     23  C   UNL     1      11.911  13.039  19.805  0.00  0.00    +0.000 A 
ATOM     24  C   UNL     1      12.333  13.502  18.557  0.00  0.00    +0.000 A 
ATOM     25  C   UNL     1      11.774  13.002  17.385  0.00  0.00    +0.000 A 
ATOM     26  C   UNL     1      10.772  12.022  17.428  0.00  0.00    +0.000 A 
ATOM     27  C   UNL     1      10.323  11.539  18.676  0.00  0.00    +0.000 A 
ATOM     28  H   UNL     1      10.534  11.632  21.869  0.00  0.00    +0.000 HD
ENDBRANCH  18  19
ENDBRANCH  17  18
ENDBRANCH   3  17
TORSDOF 5
ENDMDL
MODEL 5
REMARK VINA RESULT:      -8.2      5.788      7.721
REMARK  Name = 
REMARK  7 active torsions:
REMARK  status: ('A' for Active; 'I' for Inactive)
REMARK    1  A    between atoms: C_1  and  C_2
REMARK    2  A    between atoms: C_5  and  N_6
REMARK    3  A    between atoms: C_7  and  C_9
REMARK    4  A    between atoms: N_11  and  C_12
REMARK    5  A    between atoms: C_12  and  C_13
REMARK    6  A    between atoms: C_13  and  C_14
REMARK    7  A    between atoms: C_23  and  C_24
REMARK                            x       y       z     vdW  Elec       q    Type
REMARK                         _______ _______ _______ _____ _____    ______ ____
ROOT
ATOM      1  C   UNL     1       7.318   6.672  17.670  0.00  0.00    +0.000 C 
ATOM      2  O   UNL     1       7.393   6.372  16.489  0.00  0.00    +0.000 OA
ATOM      3  N   UNL     1       7.859   7.789  18.276  0.00  0.00    +0.000 N 
ATOM      4  H   UNL     1       7.683   7.886  19.276  0.00  0.00    +0.000 HD
ENDROOT
BRANCH   1   6
ATOM      5  N   UNL     1       5.197   5.680  18.403  0.00  0.00    +0.000 N 
ATOM      6  C   UNL     1       6.558   5.768  18.658  0.00  0.00    +0.000 C 
ATOM      7  O   UNL     1       7.224   5.239  19.538  0.00  0.00    +0.000 OA
ATOM      8  H   UNL     1       4.883   6.222  17.606  0.00  0.00    +0.000 HD
BRANCH   5  13
ATOM      9  C   UNL     1       1.452   2.506  21.406  0.00  0.00    +0.000 C 
ATOM     10  C   UNL     1       2.413   3.347  20.624  0.00  0.00    +0.000 A 
ATOM     11  C   UNL     1       3.620   2.812  20.203  0.00  0.00    +0.000 A 
ATOM     12  C   UNL     1       4.517   3.590  19.473  0.00  0.00    +0.000 A 
ATOM     13  C   UNL     1       4.250   4.925  19.140  0.00  0.00    +0.000 A 
ATOM     14  C   UNL     1       3.023   5.482  19.557  0.00  0.00    +0.000 A 
ATOM     15  C   UNL     1       2.571   6.894  19.284  0.00  0.00    +0.000 C 
ATOM     16  C   UNL     1       2.121   4.678  20.299  0.00  0.00    +0.000 A 
ENDBRANCH   5  13
ENDBRANCH   1   6
BRANCH   3  17
ATOM     17  C   UNL     1       8.610   8.780  17.539  0.00  0.00    +0.000 C 
BRANCH  17  18
ATOM     18  C   UNL     1       8.246  10.224  17.897  0.00  0.00    +0.000 C 
BRANCH  18  19
ATOM     19  C   UNL     1       9.281  10.850  18.782  0.00  0.00    +0.000 A 
ATOM     20  C   UNL     1       9.445  10.598  20.132  0.00  0.00    +0.000 A 
ATOM     21  N   UNL     1      10.468  11.378  20.597  0.00  0.00    +0.000 N 
ATOM     22  C   UNL     1      10.983  12.146  19.579  0.00  0.00    +0.000 A 
ATOM     23  C   UNL     1      12.019  13.088  19.602  0.00  0.00    +0.000 A 
ATOM     24  C   UNL     1      12.333  13.737  18.406  0.00  0.00    +0.000 A 
ATOM     25  C   UNL     1      11.638  13.449  17.235  0.00  0.00    +0.000 A 
ATOM     26  C   UNL     1      10.604  12.502  17.229  0.00  0.00    +0.000 A 
ATOM     27  C   UNL     1      10.262  11.835  18.424  0.00  0.00    +0.000 A 
ATOM     28  H   UNL     1      10.797  11.401  21.551  0.00  0.00    +0.000 HD
ENDBRANCH  18  19
ENDBRANCH  17  18
ENDBRANCH   3  17
TORSDOF 5
ENDMDL
MODEL 6
REMARK VINA RESULT:      -8.1      5.849      7.813
REMARK  Name = 
REMARK  7 active torsions:
REMARK  status: ('A' for Active; 'I' for Inactive)
REMARK    1  A    between atoms: C_1  and  C_2
REMARK    2  A    between atoms: C_5  and  N_6
REMARK    3  A    between atoms: C_7  and  C_9
REMARK    4  A    between atoms: N_11  and  C_12
REMARK    5  A    between atoms: C_12  and  C_13
REMARK    6  A    between atoms: C_13  and  C_14
REMARK    7  A    between atoms: C_23  and  C_24
REMARK                            x       y       z     vdW  Elec       q    Type
REMARK                         _______ _______ _______ _____ _____    ______ ____
ROOT
ATOM      1  C   UNL     1       7.435   6.294  18.577  0.00  0.00    +0.000 C 
ATOM      2  O   UNL     1       8.212   5.674  19.287  0.00  0.00    +0.000 OA
ATOM      3  N   UNL     1       7.585   7.587  18.117  0.00  0.00    +0.000 N 
ATOM      4  H   UNL     1       6.838   7.940  17.520  0.00  0.00    +0.000 HD
ENDROOT
BRANCH   1   6
ATOM      5  N   UNL     1       5.389   5.049  19.115  0.00  0.00    +0.000 N 
ATOM      6  C   UNL     1       6.125   5.640  18.098  0.00  0.00    +0.000 C 
ATOM      7  O   UNL     1       5.884   5.715  16.900  0.00  0.00    +0.000 OA
ATOM      8  H   UNL     1       5.809   5.122  20.034  0.00  0.00    +0.000 HD
BRANCH   5  13
ATOM      9  C   UNL     1       0.423   2.192  18.576  0.00  0.00    +0.000 C 
ATOM     10  C   UNL     1       1.705   2.954  18.712  0.00  0.00    +0.000 A 
ATOM     11  C   UNL     1       2.904   2.273  18.856  0.00  0.00    +0.000 A 
ATOM     12  C   UNL     1       4.101   2.976  18.981  0.00  0.00    +0.000 A 
ATOM     13  C   UNL     1       4.149   4.377  18.975  0.00  0.00    +0.000 A 
ATOM     14  C   UNL     1       2.937   5.084  18.825  0.00  0.00    +0.000 A 
ATOM     15  C   UNL     1       2.805   6.585  18.791  0.00  0.00    +0.000 C 
ATOM     16  C   UNL     1       1.728   4.353  18.698  0.00  0.00    +0.000 A 
ENDBRANCH   5  13
ENDBRANCH   1   6
BRANCH   3  17
ATOM     17  C   UNL     1       8.742   8.391  18.439  0.00  0.00    +0.000 C 
BRANCH  17  18
ATOM     18  C   UNL     1       8.567   9.880  18.125  0.00  0.00    +0.000 C 
BRANCH  18  19
ATOM     19  C   UNL     1       9.410  10.736  19.021  0.00  0.00    +0.000 A 
ATOM     20  C   UNL     1       9.363  10.744  20.403  0.00  0.00    +0.000 A 
ATOM     21  N   UNL     1      10.255  11.673  20.861  0.00  0.00    +0.000 N 
ATOM     22  C   UNL     1      10.890  12.285  19.807  0.00  0.00    +0.000 A 
ATOM     23  C   UNL     1      11.860  13.296  19.808  0.00  0.00    +0.000 A 
ATOM     24  C   UNL     1      12.333  13.743  18.572  0.00  0.00    +0.000 A 
ATOM     25  C   UNL     1      11.854  13.195  17.385  0.00  0.00    +0.000 A 
ATOM     26  C   UNL     1      10.885  12.183  17.402  0.00  0.00    +0.000 A 
ATOM     27  C   UNL     1      10.386  11.716  18.636  0.00  0.00    +0.000 A 
ATOM     28  H   UNL     1      10.421  11.894  21.833  0.00  0.00    +0.000 HD
ENDBRANCH  18  19
ENDBRANCH  17  18
ENDBRANCH   3  17
TORSDOF 5
ENDMDL
MODEL 7
REMARK VINA RESULT:      -8.0      5.765      7.921
REMARK  Name = 
REMARK  7 active torsions:
REMARK  status: ('A' for Active; 'I' for Inactive)
REMARK    1  A    between atoms: C_1  and  C_2
REMARK    2  A    between atoms: C_5  and  N_6
REMARK    3  A    between atoms: C_7  and  C_9
REMARK    4  A    between atoms: N_11  and  C_12
REMARK    5  A    between atoms: C_12  and  C_13
REMARK    6  A    between atoms: C_13  and  C_14
REMARK    7  A    between atoms: C_23  and  C_24
REMARK                            x       y       z     vdW  Elec       q    Type
REMARK                         _______ _______ _______ _____ _____    ______ ____
ROOT
ATOM      1  C   UNL     1       7.332   6.803  17.298  0.00  0.00    +0.000 C 
ATOM      2  O   UNL     1       7.802   6.555  16.198  0.00  0.00    +0.000 OA
ATOM      3  N   UNL     1       7.595   7.911  18.079  0.00  0.00    +0.000 N 
ATOM      4  H   UNL     1       7.099   7.960  18.968  0.00  0.00    +0.000 HD
ENDROOT
BRANCH   1   6
ATOM      5  N   UNL     1       5.137   5.706  17.265  0.00  0.00    +0.000 N 
ATOM      6  C   UNL     1       6.333   5.833  17.957  0.00  0.00    +0.000 C 
ATOM      7  O   UNL     1       6.699   5.294  18.993  0.00  0.00    +0.000 OA
ATOM      8  H   UNL     1       5.077   6.267  16.423  0.00  0.00    +0.000 HD
BRANCH   5  13
ATOM      9  C   UNL     1       0.760   2.267  18.725  0.00  0.00    +0.000 C 
ATOM     10  C   UNL     1       1.887   3.179  18.349  0.00  0.00    +0.000 A 
ATOM     11  C   UNL     1       3.075   2.651  17.868  0.00  0.00    +0.000 A 
ATOM     12  C   UNL     1       4.126   3.494  17.514  0.00  0.00    +0.000 A 
ATOM     13  C   UNL     1       4.038   4.889  17.629  0.00  0.00    +0.000 A 
ATOM     14  C   UNL     1       2.833   5.441  18.113  0.00  0.00    +0.000 A 
ATOM     15  C   UNL     1       2.563   6.913  18.296  0.00  0.00    +0.000 C 
ATOM     16  C   UNL     1       1.772   4.569  18.469  0.00  0.00    +0.000 A 
ENDBRANCH   5  13
ENDBRANCH   1   6
BRANCH   3  17
ATOM     17  C   UNL     1       8.499   8.956  17.657  0.00  0.00    +0.000 C 
BRANCH  17  18
ATOM     18  C   UNL     1       8.315  10.276  18.412  0.00  0.00    +0.000 C 
BRANCH  18  19
ATOM     19  C   UNL     1       9.379  11.269  18.056  0.00  0.00    +0.000 A 
ATOM     20  C   UNL     1      10.692  10.966  17.748  0.00  0.00    +0.000 A 
ATOM     21  N   UNL     1      11.361  12.134  17.508  0.00  0.00    +0.000 N 
ATOM     22  C   UNL     1      10.515  13.208  17.655  0.00  0.00    +0.000 A 
ATOM     23  C   UNL     1      10.772  14.578  17.520  0.00  0.00    +0.000 A 
ATOM     24  C   UNL     1       9.713  15.462  17.738  0.00  0.00    +0.000 A 
ATOM     25  C   UNL     1       8.448  14.989  18.074  0.00  0.00    +0.000 A 
ATOM     26  C   UNL     1       8.207  13.614  18.204  0.00  0.00    +0.000 A 
ATOM     27  C   UNL     1       9.260  12.698  17.994  0.00  0.00    +0.000 A 
ATOM     28  H   UNL     1      12.339  12.208  17.269  0.00  0.00    +0.000 HD
ENDBRANCH  18  19
ENDBRANCH  17  18
ENDBRANCH   3  17
TORSDOF 5
ENDMDL
MODEL 8
REMARK VINA RESULT:      -8.0      6.114      8.008
REMARK  Name = 
REMARK  7 active torsions:
REMARK  status: ('A' for Active; 'I' for Inactive)
REMARK    1  A    between atoms: C_1  and  C_2
REMARK    2  A    between atoms: C_5  and  N_6
REMARK    3  A    between atoms: C_7  and  C_9
REMARK    4  A    between atoms: N_11  and  C_12
REMARK    5  A    between atoms: C_12  and  C_13
REMARK    6  A    between atoms: C_13  and  C_14
REMARK    7  A    between atoms: C_23  and  C_24
REMARK                            x       y       z     vdW  Elec       q    Type
REMARK                         _______ _______ _______ _____ _____    ______ ____
ROOT
ATOM      1  C   UNL     1       7.437   7.335  17.558  0.00  0.00    +0.000 C 
ATOM      2  O   UNL     1       7.945   7.156  16.462  0.00  0.00    +0.000 OA
ATOM      3  N   UNL     1       7.636   8.413  18.398  0.00  0.00    +0.000 N 
ATOM      4  H   UNL     1       7.115   8.402  19.273  0.00  0.00    +0.000 HD
ENDROOT
BRANCH   1   6
ATOM      5  N   UNL     1       5.293   6.151  17.401  0.00  0.00    +0.000 N 
ATOM      6  C   UNL     1       6.457   6.300  18.142  0.00  0.00    +0.000 C 
ATOM      7  O   UNL     1       6.808   5.735  19.169  0.00  0.00    +0.000 OA
ATOM      8  H   UNL     1       5.240   6.742  16.580  0.00  0.00    +0.000 HD
BRANCH   5  13
ATOM      9  C   UNL     1       1.016   2.480  18.563  0.00  0.00    +0.000 C 
ATOM     10  C   UNL     1       2.116   3.452  18.264  0.00  0.00    +0.000 A 
ATOM     11  C   UNL     1       3.339   2.993  17.800  0.00  0.00    +0.000 A 
ATOM     12  C   UNL     1       4.366   3.892  17.518  0.00  0.00    +0.000 A 
ATOM     13  C   UNL     1       4.217   5.275  17.692  0.00  0.00    +0.000 A 
ATOM     14  C   UNL     1       2.976   5.757  18.160  0.00  0.00    +0.000 A 
ATOM     15  C   UNL     1       2.641   7.207  18.398  0.00  0.00    +0.000 C 
ATOM     16  C   UNL     1       1.942   4.829  18.441  0.00  0.00    +0.000 A 
ENDBRANCH   5  13
ENDBRANCH   1   6
BRANCH   3  17
ATOM     17  C   UNL     1       8.513   9.510  18.051  0.00  0.00    +0.000 C 
BRANCH  17  18
ATOM     18  C   UNL     1       9.455   9.928  19.183  0.00  0.00    +0.000 C 
BRANCH  18  19
ATOM     19  C   UNL     1       9.527  11.419  19.318  0.00  0.00    +0.000 A 
ATOM     20  C   UNL     1       8.942  12.166  20.324  0.00  0.00    +0.000 A 
ATOM     21  N   UNL     1       9.202  13.487  20.090  0.00  0.00    +0.000 N 
ATOM     22  C   UNL     1       9.948  13.631  18.944  0.00  0.00    +0.000 A 
ATOM     23  C   UNL     1      10.427  14.793  18.325  0.00  0.00    +0.000 A 
ATOM     24  C   UNL     1      11.162  14.645  17.147  0.00  0.00    +0.000 A 
ATOM     25  C   UNL     1      11.409  13.382  16.614  0.00  0.00    +0.000 A 
ATOM     26  C   UNL     1      10.924  12.229  17.247  0.00  0.00    +0.000 A 
ATOM     27  C   UNL     1      10.174  12.350  18.437  0.00  0.00    +0.000 A 
ATOM     28  H   UNL     1       8.887  14.255  20.664  0.00  0.00    +0.000 HD
ENDBRANCH  18  19
ENDBRANCH  17  18
ENDBRANCH   3  17
TORSDOF 5
ENDMDL
MODEL 9
REMARK VINA RESULT:      -8.0      5.978      7.488
REMARK  Name = 
REMARK  7 active torsions:
REMARK  status: ('A' for Active; 'I' for Inactive)
REMARK    1  A    between atoms: C_1  and  C_2
REMARK    2  A    between atoms: C_5  and  N_6
REMARK    3  A    between atoms: C_7  and  C_9
REMARK    4  A    between atoms: N_11  and  C_12
REMARK    5  A    between atoms: C_12  and  C_13
REMARK    6  A    between atoms: C_13  and  C_14
REMARK    7  A    between atoms: C_23  and  C_24
REMARK                            x       y       z     vdW  Elec       q    Type
REMARK                         _______ _______ _______ _____ _____    ______ ____
ROOT
ATOM      1  C   UNL     1       8.110   7.927  17.859  0.00  0.00    +0.000 C 
ATOM      2  O   UNL     1       7.936   7.566  16.705  0.00  0.00    +0.000 OA
ATOM      3  N   UNL     1       8.151   7.123  18.981  0.00  0.00    +0.000 N 
ATOM      4  H   UNL     1       8.321   7.598  19.867  0.00  0.00    +0.000 HD
ENDROOT
BRANCH   1   6
ATOM      5  N   UNL     1       9.177   9.643  19.253  0.00  0.00    +0.000 N 
ATOM      6  C   UNL     1       8.317   9.418  18.187  0.00  0.00    +0.000 C 
ATOM      7  O   UNL     1       7.714  10.220  17.486  0.00  0.00    +0.000 OA
ATOM      8  H   UNL     1       9.552   8.801  19.675  0.00  0.00    +0.000 HD
BRANCH   5  13
ATOM      9  C   UNL     1      10.649  14.727  21.511  0.00  0.00    +0.000 C 
ATOM     10  C   UNL     1      10.276  13.409  20.905  0.00  0.00    +0.000 A 
ATOM     11  C   UNL     1       9.451  12.537  21.598  0.00  0.00    +0.000 A 
ATOM     12  C   UNL     1       9.099  11.310  21.039  0.00  0.00    +0.000 A 
ATOM     13  C   UNL     1       9.555  10.904  19.777  0.00  0.00    +0.000 A 
ATOM     14  C   UNL     1      10.391  11.784  19.057  0.00  0.00    +0.000 A 
ATOM     15  C   UNL     1      10.967  11.514  17.691  0.00  0.00    +0.000 C 
ATOM     16  C   UNL     1      10.741  13.029  19.640  0.00  0.00    +0.000 A 
ENDBRANCH   5  13
ENDBRANCH   1   6
BRANCH   3  17
ATOM     17  C   UNL     1       7.986   5.689  18.910  0.00  0.00    +0.000 C 
BRANCH  17  18
ATOM     18  C   UNL     1       6.679   5.186  19.530  0.00  0.00    +0.000 C 
BRANCH  18  19
ATOM     19  C   UNL     1       5.708   4.734  18.481  0.00  0.00    +0.000 A 
ATOM     20  C   UNL     1       5.714   5.129  17.156  0.00  0.00    +0.000 A 
ATOM     21  N   UNL     1       4.661   4.531  16.521  0.00  0.00    +0.000 N 
ATOM     22  C   UNL     1       3.954   3.749  17.403  0.00  0.00    +0.000 A 
ATOM     23  C   UNL     1       2.807   2.973  17.194  0.00  0.00    +0.000 A 
ATOM     24  C   UNL     1       2.287   2.275  18.287  0.00  0.00    +0.000 A 
ATOM     25  C   UNL     1       2.896   2.352  19.536  0.00  0.00    +0.000 A 
ATOM     26  C   UNL     1       4.045   3.131  19.728  0.00  0.00    +0.000 A 
ATOM     27  C   UNL     1       4.589   3.851  18.643  0.00  0.00    +0.000 A 
ATOM     28  H   UNL     1       4.422   4.650  15.547  0.00  0.00    +0.000 HD
ENDBRANCH  18  19
ENDBRANCH  17  18
ENDBRANCH   3  17
TORSDOF 5
ENDMDL
