MODEL 1
REMARK VINA RESULT:      -8.7      0.000      0.000
REMARK  Name = 
REMARK  11 active torsions:
REMARK  status: ('A' for Active; 'I' for Inactive)
REMARK    1  A    between atoms: C_1  and  O_2
REMARK    2  A    between atoms: O_2  and  C_3
REMARK    3  A    between atoms: C_6  and  C_7
REMARK    4  A    between atoms: C_7  and  C_8
REMARK    5  A    between atoms: C_8  and  N_9
REMARK    6  A    between atoms: C_11  and  C_12
REMARK    7  A    between atoms: N_14  and  C_15
REMARK    8  A    between atoms: C_15  and  C_16
REMARK    9  A    between atoms: C_18  and  C_19
REMARK   10  A    between atoms: C_19  and  C_20
REMARK   11  A    between atoms: C_19  and  C_21
REMARK                            x       y       z     vdW  Elec       q    Type
REMARK                         _______ _______ _______ _____ _____    ______ ____
ROOT
ATOM      1  N   UNL     1       2.102   3.571  19.662  0.00  0.00    +0.000 N 
ATOM      2  C   UNL     1       3.124   2.858  20.438  0.00  0.00    +0.000 C 
ATOM      3  C   UNL     1       4.330   2.435  19.598  0.00  0.00    +0.000 C 
ATOM      4  C   UNL     1       3.801   1.628  18.419  0.00  0.00    +0.000 C 
ATOM      5  C   UNL     1       2.867   2.463  17.562  0.00  0.00    +0.000 C 
ATOM      6  C   UNL     1       1.852   3.285  18.326  0.00  0.00    +0.000 C 
ATOM      7  O   UNL     1       0.878   3.733  17.713  0.00  0.00    +0.000 OA
ENDROOT
BRANCH   3   8
ATOM      8  C   UNL     1       5.134   3.665  19.209  0.00  0.00    +0.000 C 
ATOM      9  O   UNL     1       5.377   4.581  19.990  0.00  0.00    +0.000 OA
ATOM     10  N   UNL     1       5.599   3.684  17.917  0.00  0.00    +0.000 N 
ATOM     11  H   UNL     1       5.560   2.853  17.340  0.00  0.00    +0.000 HD
BRANCH  10  12
ATOM     12  C   UNL     1       6.401   4.805  17.470  0.00  0.00    +0.000 C 
BRANCH  12  13
ATOM     13  C   UNL     1       6.638   4.672  16.030  0.00  0.00    +0.000 A 
ATOM     14  C   UNL     1       6.151   3.810  15.078  0.00  0.00    +0.000 A 
ATOM     15  C   UNL     1       6.774   4.218  13.881  0.00  0.00    +0.000 A 
ATOM     16  N   UNL     1       7.597   5.261  14.093  0.00  0.00    +0.000 NA
ATOM     17  O   UNL     1       7.501   5.542  15.447  0.00  0.00    +0.000 OA
BRANCH  15  18
ATOM     18  C   UNL     1       6.614   3.634  12.511  0.00  0.00    +0.000 C 
ATOM     19  C   UNL     1       5.148   3.328  12.196  0.00  0.00    +0.000 C 
ATOM     20  C   UNL     1       7.192   4.565  11.440  0.00  0.00    +0.000 C 
ENDBRANCH  15  18
ENDBRANCH  12  13
ENDBRANCH  10  12
ENDBRANCH   3   8
BRANCH   1  21
ATOM     21  C   UNL     1       1.081   4.347  20.386  0.00  0.00    +0.000 C 
BRANCH  21  22
ATOM     22  C   UNL     1       1.607   5.557  21.170  0.00  0.00    +0.000 C 
BRANCH  22  26
ATOM     23  C   UNL     1       1.663   9.258  18.911  0.00  0.00    +0.000 A 
ATOM     24  C   UNL     1       1.077   9.198  20.174  0.00  0.00    +0.000 A 
ATOM     25  C   UNL     1       1.069   8.003  20.896  0.00  0.00    +0.000 A 
ATOM     26  C   UNL     1       1.623   6.835  20.355  0.00  0.00    +0.000 A 
ATOM     27  C   UNL     1       2.203   6.899  19.080  0.00  0.00    +0.000 A 
ATOM     28  C   UNL     1       2.218   8.103  18.360  0.00  0.00    +0.000 A 
BRANCH  23  30
ATOM     29  C   UNL     1       0.728  11.424  18.895  0.00  0.00    +0.000 C 
ATOM     30  O   UNL     1       1.617  10.483  18.305  0.00  0.00    +0.000 OA
ENDBRANCH  23  30
ENDBRANCH  22  26
ENDBRANCH  21  22
ENDBRANCH   1  21
TORSDOF 8
ENDMDL
MODEL 2
REMARK VINA RESULT:      -8.4      1.610      2.034
REMARK  Name = 
REMARK  11 active torsions:
REMARK  status: ('A' for Active; 'I' for Inactive)
REMARK    1  A    between atoms: C_1  and  O_2
REMARK    2  A    between atoms: O_2  and  C_3
REMARK    3  A    between atoms: C_6  and  C_7
REMARK    4  A    between atoms: C_7  and  C_8
REMARK    5  A    between atoms: C_8  and  N_9
REMARK    6  A    between atoms: C_11  and  C_12
REMARK    7  A    between atoms: N_14  and  C_15
REMARK    8  A    between atoms: C_15  and  C_16
REMARK    9  A    between atoms: C_18  and  C_19
REMARK   10  A    between atoms: C_19  and  C_20
REMARK   11  A    between atoms: C_19  and  C_21
REMARK                            x       y       z     vdW  Elec       q    Type
REMARK                         _______ _______ _______ _____ _____    ______ ____
ROOT
ATOM      1  N   UNL     1       2.518   4.956  19.377  0.00  0.00    +0.000 N 
ATOM      2  C   UNL     1       3.442   4.130  20.163  0.00  0.00    +0.000 C 
ATOM      3  C   UNL     1       4.445   3.363  19.301  0.00  0.00    +0.000 C 
ATOM      4  C   UNL     1       3.646   2.561  18.280  0.00  0.00    +0.000 C 
ATOM      5  C   UNL     1       2.825   3.477  17.391  0.00  0.00    +0.000 C 
ATOM      6  C   UNL     1       2.083   4.582  18.112  0.00  0.00    +0.000 C 
ATOM      7  O   UNL     1       1.167   5.159  17.518  0.00  0.00    +0.000 OA
ENDROOT
BRANCH   3   8
ATOM      8  C   UNL     1       5.443   4.335  18.696  0.00  0.00    +0.000 C 
ATOM      9  O   UNL     1       5.657   5.452  19.160  0.00  0.00    +0.000 OA
ATOM     10  N   UNL     1       6.121   3.879  17.592  0.00  0.00    +0.000 N 
ATOM     11  H   UNL     1       6.082   2.902  17.327  0.00  0.00    +0.000 HD
BRANCH  10  12
ATOM     12  C   UNL     1       7.114   4.729  16.968  0.00  0.00    +0.000 C 
BRANCH  12  13
ATOM     13  C   UNL     1       6.988   4.616  15.513  0.00  0.00    +0.000 A 
ATOM     14  C   UNL     1       6.294   3.753  14.700  0.00  0.00    +0.000 A 
ATOM     15  C   UNL     1       6.592   4.186  13.391  0.00  0.00    +0.000 A 
ATOM     16  N   UNL     1       7.422   5.245  13.408  0.00  0.00    +0.000 NA
ATOM     17  O   UNL     1       7.662   5.510  14.747  0.00  0.00    +0.000 OA
BRANCH  15  18
ATOM     18  C   UNL     1       6.106   3.613  12.095  0.00  0.00    +0.000 C 
ATOM     19  C   UNL     1       6.654   2.202  11.863  0.00  0.00    +0.000 C 
ATOM     20  C   UNL     1       4.576   3.592  12.036  0.00  0.00    +0.000 C 
ENDBRANCH  15  18
ENDBRANCH  12  13
ENDBRANCH  10  12
ENDBRANCH   3   8
BRANCH   1  21
ATOM     21  C   UNL     1       1.757   6.012  20.065  0.00  0.00    +0.000 C 
BRANCH  21  22
ATOM     22  C   UNL     1       2.300   7.437  19.887  0.00  0.00    +0.000 C 
BRANCH  22  26
ATOM     23  C   UNL     1      -0.537  10.505  21.047  0.00  0.00    +0.000 A 
ATOM     24  C   UNL     1      -0.163   9.501  21.938  0.00  0.00    +0.000 A 
ATOM     25  C   UNL     1       0.755   8.520  21.557  0.00  0.00    +0.000 A 
ATOM     26  C   UNL     1       1.297   8.510  20.265  0.00  0.00    +0.000 A 
ATOM     27  C   UNL     1       0.910   9.517  19.369  0.00  0.00    +0.000 A 
ATOM     28  C   UNL     1      -0.006  10.506  19.757  0.00  0.00    +0.000 A 
BRANCH  23  30
ATOM     29  C   UNL     1      -1.460  11.548  22.951  0.00  0.00    +0.000 C 
ATOM     30  O   UNL     1      -1.437  11.412  21.535  0.00  0.00    +0.000 OA
ENDBRANCH  23  30
ENDBRANCH  22  26
ENDBRANCH  21  22
ENDBRANCH   1  21
TORSDOF 8
ENDMDL
MODEL 3
REMARK VINA RESULT:      -8.3      0.661      1.295
REMARK  Name = 
REMARK  11 active torsions:
REMARK  status: ('A' for Active; 'I' for Inactive)
REMARK    1  A    between atoms: C_1  and  O_2
REMARK    2  A    between atoms: O_2  and  C_3
REMARK    3  A    between atoms: C_6  and  C_7
REMARK    4  A    between atoms: C_7  and  C_8
REMARK    5  A    between atoms: C_8  and  N_9
REMARK    6  A    between atoms: C_11  and  C_12
REMARK    7  A    between atoms: N_14  and  C_15
REMARK    8  A    between atoms: C_15  and  C_16
REMARK    9  A    between atoms: C_18  and  C_19
REMARK   10  A    between atoms: C_19  and  C_20
REMARK   11  A    between atoms: C_19  and  C_21
REMARK                            x       y       z     vdW  Elec       q    Type
REMARK                         _______ _______ _______ _____ _____    ______ ____
ROOT
ATOM      1  N   UNL     1       1.995   4.049  19.412  0.00  0.00    +0.000 N 
ATOM      2  C   UNL     1       2.965   3.312  20.231  0.00  0.00    +0.000 C 
ATOM      3  C   UNL     1       4.149   2.777  19.424  0.00  0.00    +0.000 C 
ATOM      4  C   UNL     1       3.580   1.949  18.278  0.00  0.00    +0.000 C 
ATOM      5  C   UNL     1       2.706   2.799  17.374  0.00  0.00    +0.000 C 
ATOM      6  C   UNL     1       1.737   3.717  18.089  0.00  0.00    +0.000 C 
ATOM      7  O   UNL     1       0.798   4.194  17.445  0.00  0.00    +0.000 OA
ENDROOT
BRANCH   3   8
ATOM      8  C   UNL     1       5.030   3.935  18.987  0.00  0.00    +0.000 C 
ATOM      9  O   UNL     1       4.919   5.071  19.441  0.00  0.00    +0.000 OA
ATOM     10  N   UNL     1       5.989   3.630  18.052  0.00  0.00    +0.000 N 
ATOM     11  H   UNL     1       6.201   2.666  17.823  0.00  0.00    +0.000 HD
BRANCH  10  12
ATOM     12  C   UNL     1       6.894   4.668  17.601  0.00  0.00    +0.000 C 
BRANCH  12  13
ATOM     13  C   UNL     1       6.877   4.705  16.136  0.00  0.00    +0.000 A 
ATOM     14  C   UNL     1       6.180   3.993  15.191  0.00  0.00    +0.000 A 
ATOM     15  C   UNL     1       6.619   4.519  13.959  0.00  0.00    +0.000 A 
ATOM     16  N   UNL     1       7.533   5.489  14.143  0.00  0.00    +0.000 NA
ATOM     17  O   UNL     1       7.686   5.601  15.516  0.00  0.00    +0.000 OA
BRANCH  15  18
ATOM     18  C   UNL     1       6.192   4.120  12.579  0.00  0.00    +0.000 C 
ATOM     19  C   UNL     1       7.353   4.205  11.585  0.00  0.00    +0.000 C 
ATOM     20  C   UNL     1       5.600   2.708  12.568  0.00  0.00    +0.000 C 
ENDBRANCH  15  18
ENDBRANCH  12  13
ENDBRANCH  10  12
ENDBRANCH   3   8
BRANCH   1  21
ATOM     21  C   UNL     1       1.019   4.919  20.089  0.00  0.00    +0.000 C 
BRANCH  21  22
ATOM     22  C   UNL     1       1.618   5.983  21.019  0.00  0.00    +0.000 C 
BRANCH  22  26
ATOM     23  C   UNL     1       1.238   9.983  19.391  0.00  0.00    +0.000 A 
ATOM     24  C   UNL     1       1.934   8.992  18.701  0.00  0.00    +0.000 A 
ATOM     25  C   UNL     1       2.046   7.706  19.231  0.00  0.00    +0.000 A 
ATOM     26  C   UNL     1       1.487   7.393  20.477  0.00  0.00    +0.000 A 
ATOM     27  C   UNL     1       0.796   8.397  21.171  0.00  0.00    +0.000 A 
ATOM     28  C   UNL     1       0.677   9.687  20.633  0.00  0.00    +0.000 A 
BRANCH  23  30
ATOM     29  C   UNL     1       2.293  11.500  17.923  0.00  0.00    +0.000 C 
ATOM     30  O   UNL     1       1.189  11.201  18.769  0.00  0.00    +0.000 OA
ENDBRANCH  23  30
ENDBRANCH  22  26
ENDBRANCH  21  22
ENDBRANCH   1  21
TORSDOF 8
ENDMDL
MODEL 4
REMARK VINA RESULT:      -8.3      0.921      1.125
REMARK  Name = 
REMARK  11 active torsions:
REMARK  status: ('A' for Active; 'I' for Inactive)
REMARK    1  A    between atoms: C_1  and  O_2
REMARK    2  A    between atoms: O_2  and  C_3
REMARK    3  A    between atoms: C_6  and  C_7
REMARK    4  A    between atoms: C_7  and  C_8
REMARK    5  A    between atoms: C_8  and  N_9
REMARK    6  A    between atoms: C_11  and  C_12
REMARK    7  A    between atoms: N_14  and  C_15
REMARK    8  A    between atoms: C_15  and  C_16
REMARK    9  A    between atoms: C_18  and  C_19
REMARK   10  A    between atoms: C_19  and  C_20
REMARK   11  A    between atoms: C_19  and  C_21
REMARK                            x       y       z     vdW  Elec       q    Type
REMARK                         _______ _______ _______ _____ _____    ______ ____
ROOT
ATOM      1  N   UNL     1       2.138   4.209  19.194  0.00  0.00    +0.000 N 
ATOM      2  C   UNL     1       3.291   3.725  19.962  0.00  0.00    +0.000 C 
ATOM      3  C   UNL     1       4.445   3.248  19.079  0.00  0.00    +0.000 C 
ATOM      4  C   UNL     1       3.881   2.204  18.121  0.00  0.00    +0.000 C 
ATOM      5  C   UNL     1       2.797   2.800  17.243  0.00  0.00    +0.000 C 
ATOM      6  C   UNL     1       1.787   3.669  17.963  0.00  0.00    +0.000 C 
ATOM      7  O   UNL     1       0.722   3.927  17.394  0.00  0.00    +0.000 OA
ENDROOT
BRANCH   3   8
ATOM      8  C   UNL     1       5.090   4.443  18.398  0.00  0.00    +0.000 C 
ATOM      9  O   UNL     1       4.839   5.606  18.704  0.00  0.00    +0.000 OA
ATOM     10  N   UNL     1       6.004   4.144  17.417  0.00  0.00    +0.000 N 
ATOM     11  H   UNL     1       6.346   3.198  17.298  0.00  0.00    +0.000 HD
BRANCH  10  12
ATOM     12  C   UNL     1       6.690   5.223  16.736  0.00  0.00    +0.000 C 
BRANCH  12  13
ATOM     13  C   UNL     1       6.747   4.918  15.304  0.00  0.00    +0.000 A 
ATOM     14  C   UNL     1       5.997   4.103  14.492  0.00  0.00    +0.000 A 
ATOM     15  C   UNL     1       6.565   4.263  13.211  0.00  0.00    +0.000 A 
ATOM     16  N   UNL     1       7.602   5.120  13.243  0.00  0.00    +0.000 NA
ATOM     17  O   UNL     1       7.706   5.529  14.563  0.00  0.00    +0.000 OA
BRANCH  15  18
ATOM     18  C   UNL     1       6.149   3.611  11.927  0.00  0.00    +0.000 C 
ATOM     19  C   UNL     1       6.884   2.288  11.703  0.00  0.00    +0.000 C 
ATOM     20  C   UNL     1       4.635   3.377  11.889  0.00  0.00    +0.000 C 
ENDBRANCH  15  18
ENDBRANCH  12  13
ENDBRANCH  10  12
ENDBRANCH   3   8
BRANCH   1  21
ATOM     21  C   UNL     1       1.124   5.025  19.883  0.00  0.00    +0.000 C 
BRANCH  21  22
ATOM     22  C   UNL     1       1.677   6.096  20.833  0.00  0.00    +0.000 C 
BRANCH  22  26
ATOM     23  C   UNL     1       1.048  10.167  19.478  0.00  0.00    +0.000 A 
ATOM     24  C   UNL     1       0.482   9.713  20.668  0.00  0.00    +0.000 A 
ATOM     25  C   UNL     1       0.695   8.401  21.098  0.00  0.00    +0.000 A 
ATOM     26  C   UNL     1       1.456   7.510  20.331  0.00  0.00    +0.000 A 
ATOM     27  C   UNL     1       2.015   7.971  19.130  0.00  0.00    +0.000 A 
ATOM     28  C   UNL     1       1.808   9.291  18.704  0.00  0.00    +0.000 A 
BRANCH  23  30
ATOM     29  C   UNL     1      -0.365  11.675  18.339  0.00  0.00    +0.000 C 
ATOM     30  O   UNL     1       0.776  11.471  19.164  0.00  0.00    +0.000 OA
ENDBRANCH  23  30
ENDBRANCH  22  26
ENDBRANCH  21  22
ENDBRANCH   1  21
TORSDOF 8
ENDMDL
MODEL 5
REMARK VINA RESULT:      -8.2      2.749      7.265
REMARK  Name = 
REMARK  11 active torsions:
REMARK  status: ('A' for Active; 'I' for Inactive)
REMARK    1  A    between atoms: C_1  and  O_2
REMARK    2  A    between atoms: O_2  and  C_3
REMARK    3  A    between atoms: C_6  and  C_7
REMARK    4  A    between atoms: C_7  and  C_8
REMARK    5  A    between atoms: C_8  and  N_9
REMARK    6  A    between atoms: C_11  and  C_12
REMARK    7  A    between atoms: N_14  and  C_15
REMARK    8  A    between atoms: C_15  and  C_16
REMARK    9  A    between atoms: C_18  and  C_19
REMARK   10  A    between atoms: C_19  and  C_20
REMARK   11  A    between atoms: C_19  and  C_21
REMARK                            x       y       z     vdW  Elec       q    Type
REMARK                         _______ _______ _______ _____ _____    ______ ____
ROOT
ATOM      1  N   UNL     1       3.265   3.176  18.843  0.00  0.00    +0.000 N 
ATOM      2  C   UNL     1       1.890   3.650  18.645  0.00  0.00    +0.000 C 
ATOM      3  C   UNL     1       1.303   4.328  19.884  0.00  0.00    +0.000 C 
ATOM      4  C   UNL     1       1.438   3.347  21.044  0.00  0.00    +0.000 C 
ATOM      5  C   UNL     1       2.894   3.010  21.304  0.00  0.00    +0.000 C 
ATOM      6  C   UNL     1       3.720   2.712  20.071  0.00  0.00    +0.000 C 
ATOM      7  O   UNL     1       4.802   2.136  20.213  0.00  0.00    +0.000 OA
ENDROOT
BRANCH   3   8
ATOM      8  C   UNL     1       1.992   5.663  20.106  0.00  0.00    +0.000 C 
ATOM      9  O   UNL     1       3.077   5.950  19.607  0.00  0.00    +0.000 OA
ATOM     10  N   UNL     1       1.310   6.558  20.895  0.00  0.00    +0.000 N 
ATOM     11  H   UNL     1       0.343   6.395  21.147  0.00  0.00    +0.000 HD
BRANCH  10  12
ATOM     12  C   UNL     1       1.879   7.868  21.135  0.00  0.00    +0.000 C 
BRANCH  12  13
ATOM     13  C   UNL     1       1.124   8.860  20.366  0.00  0.00    +0.000 A 
ATOM     14  C   UNL     1       0.122   9.738  20.702  0.00  0.00    +0.000 A 
ATOM     15  C   UNL     1      -0.168  10.418  19.502  0.00  0.00    +0.000 A 
ATOM     16  N   UNL     1       0.607   9.977  18.494  0.00  0.00    +0.000 NA
ATOM     17  O   UNL     1       1.419   9.000  19.048  0.00  0.00    +0.000 OA
BRANCH  15  18
ATOM     18  C   UNL     1      -1.183  11.497  19.273  0.00  0.00    +0.000 C 
ATOM     19  C   UNL     1      -1.749  12.027  20.593  0.00  0.00    +0.000 C 
ATOM     20  C   UNL     1      -0.590  12.653  18.461  0.00  0.00    +0.000 C 
ENDBRANCH  15  18
ENDBRANCH  12  13
ENDBRANCH  10  12
ENDBRANCH   3   8
BRANCH   1  21
ATOM     21  C   UNL     1       4.073   2.845  17.658  0.00  0.00    +0.000 C 
BRANCH  21  22
ATOM     22  C   UNL     1       4.333   4.009  16.692  0.00  0.00    +0.000 C 
BRANCH  22  26
ATOM     23  C   UNL     1       7.432   6.724  18.041  0.00  0.00    +0.000 A 
ATOM     24  C   UNL     1       6.310   7.198  17.365  0.00  0.00    +0.000 A 
ATOM     25  C   UNL     1       5.314   6.316  16.939  0.00  0.00    +0.000 A 
ATOM     26  C   UNL     1       5.437   4.937  17.158  0.00  0.00    +0.000 A 
ATOM     27  C   UNL     1       6.574   4.466  17.831  0.00  0.00    +0.000 A 
ATOM     28  C   UNL     1       7.568   5.355  18.265  0.00  0.00    +0.000 A 
BRANCH  23  30
ATOM     29  C   UNL     1       8.139   8.965  17.832  0.00  0.00    +0.000 C 
ATOM     30  O   UNL     1       8.335   7.682  18.415  0.00  0.00    +0.000 OA
ENDBRANCH  23  30
ENDBRANCH  22  26
ENDBRANCH  21  22
ENDBRANCH   1  21
TORSDOF 8
ENDMDL
MODEL 6
REMARK VINA RESULT:      -8.2      1.234      1.712
REMARK  Name = 
REMARK  11 active torsions:
REMARK  status: ('A' for Active; 'I' for Inactive)
REMARK    1  A    between atoms: C_1  and  O_2
REMARK    2  A    between atoms: O_2  and  C_3
REMARK    3  A    between atoms: C_6  and  C_7
REMARK    4  A    between atoms: C_7  and  C_8
REMARK    5  A    between atoms: C_8  and  N_9
REMARK    6  A    between atoms: C_11  and  C_12
REMARK    7  A    between atoms: N_14  and  C_15
REMARK    8  A    between atoms: C_15  and  C_16
REMARK    9  A    between atoms: C_18  and  C_19
REMARK   10  A    between atoms: C_19  and  C_20
REMARK   11  A    between atoms: C_19  and  C_21
REMARK                            x       y       z     vdW  Elec       q    Type
REMARK                         _______ _______ _______ _____ _____    ______ ____
ROOT
ATOM      1  N   UNL     1       2.306   4.761  19.482  0.00  0.00    +0.000 N 
ATOM      2  C   UNL     1       3.160   3.988  20.392  0.00  0.00    +0.000 C 
ATOM      3  C   UNL     1       4.273   3.228  19.671  0.00  0.00    +0.000 C 
ATOM      4  C   UNL     1       3.615   2.372  18.594  0.00  0.00    +0.000 C 
ATOM      5  C   UNL     1       2.873   3.236  17.591  0.00  0.00    +0.000 C 
ATOM      6  C   UNL     1       2.024   4.337  18.190  0.00  0.00    +0.000 C 
ATOM      7  O   UNL     1       1.164   4.867  17.480  0.00  0.00    +0.000 OA
ENDROOT
BRANCH   3   8
ATOM      8  C   UNL     1       5.305   4.213  19.148  0.00  0.00    +0.000 C 
ATOM      9  O   UNL     1       5.543   5.287  19.695  0.00  0.00    +0.000 OA
ATOM     10  N   UNL     1       5.983   3.820  18.021  0.00  0.00    +0.000 N 
ATOM     11  H   UNL     1       5.921   2.866  17.685  0.00  0.00    +0.000 HD
BRANCH  10  12
ATOM     12  C   UNL     1       7.006   4.685  17.471  0.00  0.00    +0.000 C 
BRANCH  12  13
ATOM     13  C   UNL     1       6.980   4.581  16.010  0.00  0.00    +0.000 A 
ATOM     14  C   UNL     1       6.397   3.685  15.148  0.00  0.00    +0.000 A 
ATOM     15  C   UNL     1       6.747   4.152  13.864  0.00  0.00    +0.000 A 
ATOM     16  N   UNL     1       7.502   5.263  13.941  0.00  0.00    +0.000 NA
ATOM     17  O   UNL     1       7.640   5.527  15.295  0.00  0.00    +0.000 OA
BRANCH  15  18
ATOM     18  C   UNL     1       6.382   3.564  12.535  0.00  0.00    +0.000 C 
ATOM     19  C   UNL     1       4.879   3.667  12.267  0.00  0.00    +0.000 C 
ATOM     20  C   UNL     1       7.160   4.235  11.399  0.00  0.00    +0.000 C 
ENDBRANCH  15  18
ENDBRANCH  12  13
ENDBRANCH  10  12
ENDBRANCH   3   8
BRANCH   1  21
ATOM     21  C   UNL     1       1.444   5.812  20.048  0.00  0.00    +0.000 C 
BRANCH  21  22
ATOM     22  C   UNL     1       2.174   7.069  20.538  0.00  0.00    +0.000 C 
BRANCH  22  26
ATOM     23  C   UNL     1      -0.395  10.561  20.624  0.00  0.00    +0.000 A 
ATOM     24  C   UNL     1       0.370  10.262  19.498  0.00  0.00    +0.000 A 
ATOM     25  C   UNL     1       1.190   9.132  19.478  0.00  0.00    +0.000 A 
ATOM     26  C   UNL     1       1.281   8.294  20.597  0.00  0.00    +0.000 A 
ATOM     27  C   UNL     1       0.516   8.605  21.730  0.00  0.00    +0.000 A 
ATOM     28  C   UNL     1      -0.314   9.736  21.745  0.00  0.00    +0.000 A 
BRANCH  23  30
ATOM     29  C   UNL     1      -1.703  11.947  19.231  0.00  0.00    +0.000 C 
ATOM     30  O   UNL     1      -1.164  11.688  20.523  0.00  0.00    +0.000 OA
ENDBRANCH  23  30
ENDBRANCH  22  26
ENDBRANCH  21  22
ENDBRANCH   1  21
TORSDOF 8
ENDMDL
MODEL 7
REMARK VINA RESULT:      -8.1      2.531      7.373
REMARK  Name = 
REMARK  11 active torsions:
REMARK  status: ('A' for Active; 'I' for Inactive)
REMARK    1  A    between atoms: C_1  and  O_2
REMARK    2  A    between atoms: O_2  and  C_3
REMARK    3  A    between atoms: C_6  and  C_7
REMARK    4  A    between atoms: C_7  and  C_8
REMARK    5  A    between atoms: C_8  and  N_9
REMARK    6  A    between atoms: C_11  and  C_12
REMARK    7  A    between atoms: N_14  and  C_15
REMARK    8  A    between atoms: C_15  and  C_16
REMARK    9  A    between atoms: C_18  and  C_19
REMARK   10  A    between atoms: C_19  and  C_20
REMARK   11  A    between atoms: C_19  and  C_21
REMARK                            x       y       z     vdW  Elec       q    Type
REMARK                         _______ _______ _______ _____ _____    ______ ____
ROOT
ATOM      1  N   UNL     1       3.009   2.797  19.064  0.00  0.00    +0.000 N 
ATOM      2  C   UNL     1       1.629   3.284  18.949  0.00  0.00    +0.000 C 
ATOM      3  C   UNL     1       1.124   3.968  20.220  0.00  0.00    +0.000 C 
ATOM      4  C   UNL     1       1.321   2.989  21.372  0.00  0.00    +0.000 C 
ATOM      5  C   UNL     1       2.787   2.639  21.544  0.00  0.00    +0.000 C 
ATOM      6  C   UNL     1       3.534   2.332  20.263  0.00  0.00    +0.000 C 
ATOM      7  O   UNL     1       4.618   1.747  20.341  0.00  0.00    +0.000 OA
ENDROOT
BRANCH   3   8
ATOM      8  C   UNL     1       1.837   5.298  20.397  0.00  0.00    +0.000 C 
ATOM      9  O   UNL     1       2.424   5.613  21.429  0.00  0.00    +0.000 OA
ATOM     10  N   UNL     1       1.804   6.137  19.310  0.00  0.00    +0.000 N 
ATOM     11  H   UNL     1       1.487   5.804  18.407  0.00  0.00    +0.000 HD
BRANCH  10  12
ATOM     12  C   UNL     1       2.484   7.414  19.379  0.00  0.00    +0.000 C 
BRANCH  12  13
ATOM     13  C   UNL     1       1.529   8.436  19.816  0.00  0.00    +0.000 A 
ATOM     14  C   UNL     1       0.994   8.752  21.041  0.00  0.00    +0.000 A 
ATOM     15  C   UNL     1       0.140   9.844  20.780  0.00  0.00    +0.000 A 
ATOM     16  N   UNL     1       0.151  10.168  19.475  0.00  0.00    +0.000 NA
ATOM     17  O   UNL     1       1.030   9.280  18.877  0.00  0.00    +0.000 OA
BRANCH  15  18
ATOM     18  C   UNL     1      -0.709  10.605  21.752  0.00  0.00    +0.000 C 
ATOM     19  C   UNL     1      -0.663   9.981  23.149  0.00  0.00    +0.000 C 
ATOM     20  C   UNL     1      -0.285  12.075  21.826  0.00  0.00    +0.000 C 
ENDBRANCH  15  18
ENDBRANCH  12  13
ENDBRANCH  10  12
ENDBRANCH   3   8
BRANCH   1  21
ATOM     21  C   UNL     1       3.741   2.457  17.833  0.00  0.00    +0.000 C 
BRANCH  21  22
ATOM     22  C   UNL     1       3.619   3.475  16.692  0.00  0.00    +0.000 C 
BRANCH  22  26
ATOM     23  C   UNL     1       6.899   6.309  16.601  0.00  0.00    +0.000 A 
ATOM     24  C   UNL     1       5.624   6.702  17.003  0.00  0.00    +0.000 A 
ATOM     25  C   UNL     1       4.575   5.781  17.034  0.00  0.00    +0.000 A 
ATOM     26  C   UNL     1       4.777   4.453  16.636  0.00  0.00    +0.000 A 
ATOM     27  C   UNL     1       6.060   4.066  16.223  0.00  0.00    +0.000 A 
ATOM     28  C   UNL     1       7.114   4.991  16.201  0.00  0.00    +0.000 A 
BRANCH  23  30
ATOM     29  C   UNL     1       7.915   8.055  17.820  0.00  0.00    +0.000 C 
ATOM     30  O   UNL     1       7.845   7.297  16.618  0.00  0.00    +0.000 OA
ENDBRANCH  23  30
ENDBRANCH  22  26
ENDBRANCH  21  22
ENDBRANCH   1  21
TORSDOF 8
ENDMDL
MODEL 8
REMARK VINA RESULT:      -7.8      2.904      7.939
REMARK  Name = 
REMARK  11 active torsions:
REMARK  status: ('A' for Active; 'I' for Inactive)
REMARK    1  A    between atoms: C_1  and  O_2
REMARK    2  A    between atoms: O_2  and  C_3
REMARK    3  A    between atoms: C_6  and  C_7
REMARK    4  A    between atoms: C_7  and  C_8
REMARK    5  A    between atoms: C_8  and  N_9
REMARK    6  A    between atoms: C_11  and  C_12
REMARK    7  A    between atoms: N_14  and  C_15
REMARK    8  A    between atoms: C_15  and  C_16
REMARK    9  A    between atoms: C_18  and  C_19
REMARK   10  A    between atoms: C_19  and  C_20
REMARK   11  A    between atoms: C_19  and  C_21
REMARK                            x       y       z     vdW  Elec       q    Type
REMARK                         _______ _______ _______ _____ _____    ______ ____
ROOT
ATOM      1  N   UNL     1       3.158   3.331  18.771  0.00  0.00    +0.000 N 
ATOM      2  C   UNL     1       1.802   3.841  18.531  0.00  0.00    +0.000 C 
ATOM      3  C   UNL     1       1.211   4.571  19.737  0.00  0.00    +0.000 C 
ATOM      4  C   UNL     1       1.293   3.621  20.927  0.00  0.00    +0.000 C 
ATOM      5  C   UNL     1       2.732   3.248  21.228  0.00  0.00    +0.000 C 
ATOM      6  C   UNL     1       3.573   2.891  20.021  0.00  0.00    +0.000 C 
ATOM      7  O   UNL     1       4.634   2.286  20.203  0.00  0.00    +0.000 OA
ENDROOT
BRANCH   3   8
ATOM      8  C   UNL     1       1.936   5.892  19.936  0.00  0.00    +0.000 C 
ATOM      9  O   UNL     1       2.883   6.249  19.239  0.00  0.00    +0.000 OA
ATOM     10  N   UNL     1       1.450   6.689  20.943  0.00  0.00    +0.000 N 
ATOM     11  H   UNL     1       0.562   6.482  21.386  0.00  0.00    +0.000 HD
BRANCH  10  12
ATOM     12  C   UNL     1       2.061   7.980  21.183  0.00  0.00    +0.000 C 
BRANCH  12  13
ATOM     13  C   UNL     1       1.014   8.942  21.533  0.00  0.00    +0.000 A 
ATOM     14  C   UNL     1       0.621  10.138  20.982  0.00  0.00    +0.000 A 
ATOM     15  C   UNL     1      -0.452  10.563  21.792  0.00  0.00    +0.000 A 
ATOM     16  N   UNL     1      -0.694   9.682  22.780  0.00  0.00    +0.000 NA
ATOM     17  O   UNL     1       0.231   8.664  22.606  0.00  0.00    +0.000 OA
BRANCH  15  18
ATOM     18  C   UNL     1      -1.274  11.809  21.658  0.00  0.00    +0.000 C 
ATOM     19  C   UNL     1      -0.508  13.043  22.141  0.00  0.00    +0.000 C 
ATOM     20  C   UNL     1      -1.736  12.016  20.213  0.00  0.00    +0.000 C 
ENDBRANCH  15  18
ENDBRANCH  12  13
ENDBRANCH  10  12
ENDBRANCH   3   8
BRANCH   1  21
ATOM     21  C   UNL     1       3.979   2.942  17.613  0.00  0.00    +0.000 C 
BRANCH  21  22
ATOM     22  C   UNL     1       4.328   4.077  16.641  0.00  0.00    +0.000 C 
BRANCH  22  26
ATOM     23  C   UNL     1       7.458   6.707  18.086  0.00  0.00    +0.000 A 
ATOM     24  C   UNL     1       6.448   7.185  17.253  0.00  0.00    +0.000 A 
ATOM     25  C   UNL     1       5.442   6.331  16.797  0.00  0.00    +0.000 A 
ATOM     26  C   UNL     1       5.442   4.974  17.145  0.00  0.00    +0.000 A 
ATOM     27  C   UNL     1       6.466   4.497  17.976  0.00  0.00    +0.000 A 
ATOM     28  C   UNL     1       7.471   5.358  18.439  0.00  0.00    +0.000 A 
BRANCH  23  30
ATOM     29  C   UNL     1       8.187   8.947  17.954  0.00  0.00    +0.000 C 
ATOM     30  O   UNL     1       8.383   7.637  18.473  0.00  0.00    +0.000 OA
ENDBRANCH  23  30
ENDBRANCH  22  26
ENDBRANCH  21  22
ENDBRANCH   1  21
TORSDOF 8
ENDMDL
MODEL 9
REMARK VINA RESULT:      -7.8      2.734      7.300
REMARK  Name = 
REMARK  11 active torsions:
REMARK  status: ('A' for Active; 'I' for Inactive)
REMARK    1  A    between atoms: C_1  and  O_2
REMARK    2  A    between atoms: O_2  and  C_3
REMARK    3  A    between atoms: C_6  and  C_7
REMARK    4  A    between atoms: C_7  and  C_8
REMARK    5  A    between atoms: C_8  and  N_9
REMARK    6  A    between atoms: C_11  and  C_12
REMARK    7  A    between atoms: N_14  and  C_15
REMARK    8  A    between atoms: C_15  and  C_16
REMARK    9  A    between atoms: C_18  and  C_19
REMARK   10  A    between atoms: C_19  and  C_20
REMARK   11  A    between atoms: C_19  and  C_21
REMARK                            x       y       z     vdW  Elec       q    Type
REMARK                         _______ _______ _______ _____ _____    ______ ____
ROOT
ATOM      1  N   UNL     1       3.202   2.916  19.017  0.00  0.00    +0.000 N 
ATOM      2  C   UNL     1       1.844   3.393  18.725  0.00  0.00    +0.000 C 
ATOM      3  C   UNL     1       1.226   4.188  19.876  0.00  0.00    +0.000 C 
ATOM      4  C   UNL     1       1.298   3.313  21.122  0.00  0.00    +0.000 C 
ATOM      5  C   UNL     1       2.737   2.976  21.467  0.00  0.00    +0.000 C 
ATOM      6  C   UNL     1       3.602   2.557  20.298  0.00  0.00    +0.000 C 
ATOM      7  O   UNL     1       4.666   1.977  20.532  0.00  0.00    +0.000 OA
ENDROOT
BRANCH   3   8
ATOM      8  C   UNL     1       1.932   5.527  20.005  0.00  0.00    +0.000 C 
ATOM      9  O   UNL     1       2.866   5.866  19.282  0.00  0.00    +0.000 OA
ATOM     10  N   UNL     1       1.446   6.362  20.981  0.00  0.00    +0.000 N 
ATOM     11  H   UNL     1       0.567   6.162  21.443  0.00  0.00    +0.000 HD
BRANCH  10  12
ATOM     12  C   UNL     1       2.040   7.672  21.154  0.00  0.00    +0.000 C 
BRANCH  12  13
ATOM     13  C   UNL     1       1.046   8.692  20.812  0.00  0.00    +0.000 A 
ATOM     14  C   UNL     1       0.831   9.446  19.684  0.00  0.00    +0.000 A 
ATOM     15  C   UNL     1      -0.293  10.237  19.999  0.00  0.00    +0.000 A 
ATOM     16  N   UNL     1      -0.732   9.984  21.246  0.00  0.00    +0.000 NA
ATOM     17  O   UNL     1       0.115   9.008  21.747  0.00  0.00    +0.000 OA
BRANCH  15  18
ATOM     18  C   UNL     1      -0.979  11.252  19.137  0.00  0.00    +0.000 C 
ATOM     19  C   UNL     1      -0.024  12.373  18.718  0.00  0.00    +0.000 C 
ATOM     20  C   UNL     1      -1.593  10.601  17.894  0.00  0.00    +0.000 C 
ENDBRANCH  15  18
ENDBRANCH  12  13
ENDBRANCH  10  12
ENDBRANCH   3   8
BRANCH   1  21
ATOM     21  C   UNL     1       4.046   2.467  17.898  0.00  0.00    +0.000 C 
BRANCH  21  22
ATOM     22  C   UNL     1       4.079   3.402  16.682  0.00  0.00    +0.000 C 
BRANCH  22  26
ATOM     23  C   UNL     1       6.925   6.652  17.063  0.00  0.00    +0.000 A 
ATOM     24  C   UNL     1       5.731   6.823  16.365  0.00  0.00    +0.000 A 
ATOM     25  C   UNL     1       4.819   5.772  16.252  0.00  0.00    +0.000 A 
ATOM     26  C   UNL     1       5.097   4.519  16.813  0.00  0.00    +0.000 A 
ATOM     27  C   UNL     1       6.304   4.350  17.507  0.00  0.00    +0.000 A 
ATOM     28  C   UNL     1       7.215   5.410  17.626  0.00  0.00    +0.000 A 
BRANCH  23  30
ATOM     29  C   UNL     1       8.281   8.054  18.390  0.00  0.00    +0.000 C 
ATOM     30  O   UNL     1       7.734   7.753  17.112  0.00  0.00    +0.000 OA
ENDBRANCH  23  30
ENDBRANCH  22  26
ENDBRANCH  21  22
ENDBRANCH   1  21
TORSDOF 8
ENDMDL
