MODEL 1
REMARK VINA RESULT:      -7.6      0.000      0.000
REMARK  Name = 
REMARK  12 active torsions:
REMARK  status: ('A' for Active; 'I' for Inactive)
REMARK    1  A    between atoms: C_2  and  O_3
REMARK    2  A    between atoms: C_2  and  C_4
REMARK    3  A    between atoms: C_4  and  C_5
REMARK    4  A    between atoms: C_5  and  N_6
REMARK    5  A    between atoms: N_6  and  C_7
REMARK    6  A    between atoms: C_7  and  C_8
REMARK    7  A    between atoms: C_9  and  C_10
REMARK    8  A    between atoms: C_13  and  O_14
REMARK    9  A    between atoms: O_14  and  C_15
REMARK   10  A    between atoms: C_15  and  C_16
REMARK   11  A    between atoms: C_16  and  C_17
REMARK   12  A    between atoms: C_17  and  C_18
REMARK                            x       y       z     vdW  Elec       q    Type
REMARK                         _______ _______ _______ _____ _____    ______ ____
ROOT
ATOM      1  C   UNL     1       4.613   5.118  17.611  0.00  0.00    +0.000 A 
ATOM      2  C   UNL     1       5.888   4.582  17.444  0.00  0.00    +0.000 A 
ATOM      3  C   UNL     1       6.987   5.404  17.242  0.00  0.00    +0.000 A 
ATOM      4  C   UNL     1       6.841   6.791  17.175  0.00  0.00    +0.000 A 
ATOM      5  C   UNL     1       5.561   7.339  17.293  0.00  0.00    +0.000 A 
ATOM      6  C   UNL     1       4.449   6.506  17.506  0.00  0.00    +0.000 A 
ENDROOT
BRANCH   1   8
ATOM      7  C   UNL     1       3.544   2.903  17.614  0.00  0.00    +0.000 C 
ATOM      8  C   UNL     1       3.467   4.227  17.832  0.00  0.00    +0.000 C 
BRANCH   7   9
ATOM      9  C   UNL     1       2.389   1.958  17.699  0.00  0.00    +0.000 C 
BRANCH   9  10
ATOM     10  N   UNL     1       1.975   1.807  19.094  0.00  0.00    +0.000 NA
ATOM     11  H   UNL     1       1.922   0.813  19.312  0.00  0.00    +0.000 HD
BRANCH  10  12
ATOM     12  C   UNL     1       0.659   2.426  19.292  0.00  0.00    +0.000 C 
BRANCH  12  13
ATOM     13  C   UNL     1       0.797   3.716  20.089  0.00  0.00    +0.000 C 
BRANCH  13  15
ATOM     14  O   UNL     1       1.685   2.477  21.982  0.00  0.00    +0.000 OA
ATOM     15  C   UNL     1       1.662   3.493  21.306  0.00  0.00    +0.000 C 
BRANCH  15  16
ATOM     16  O   UNL     1       2.450   4.558  21.577  0.00  0.00    +0.000 OA
ATOM     17  H   UNL     1       2.289   5.326  20.996  0.00  0.00    +0.000 HD
ENDBRANCH  15  16
ENDBRANCH  13  15
ENDBRANCH  12  13
ENDBRANCH  10  12
ENDBRANCH   9  10
ENDBRANCH   7   9
ENDBRANCH   1   8
BRANCH   4  18
ATOM     18  O   UNL     1       7.882   7.675  16.992  0.00  0.00    +0.000 OA
BRANCH  18  19
ATOM     19  C   UNL     1       8.345   8.257  18.214  0.00  0.00    +0.000 C 
BRANCH  19  20
ATOM     20  C   UNL     1       8.581   9.749  18.085  0.00  0.00    +0.000 C 
BRANCH  20  21
ATOM     21  C   UNL     1       9.271  10.236  19.362  0.00  0.00    +0.000 C 
BRANCH  21  22
ATOM     22  C   UNL     1      10.303  11.287  19.073  0.00  0.00    +0.000 A 
ATOM     23  C   UNL     1      10.632  11.608  17.751  0.00  0.00    +0.000 A 
ATOM     24  C   UNL     1      11.625  12.547  17.485  0.00  0.00    +0.000 A 
ATOM     25  C   UNL     1      12.295  13.170  18.538  0.00  0.00    +0.000 A 
ATOM     26  C   UNL     1      11.965  12.862  19.857  0.00  0.00    +0.000 A 
ATOM     27  C   UNL     1      10.972  11.924  20.125  0.00  0.00    +0.000 A 
ENDBRANCH  21  22
ENDBRANCH  20  21
ENDBRANCH  19  20
ENDBRANCH  18  19
ENDBRANCH   4  18
TORSDOF 12
ENDMDL
MODEL 2
REMARK VINA RESULT:      -7.3      5.634      9.257
REMARK  Name = 
REMARK  12 active torsions:
REMARK  status: ('A' for Active; 'I' for Inactive)
REMARK    1  A    between atoms: C_2  and  O_3
REMARK    2  A    between atoms: C_2  and  C_4
REMARK    3  A    between atoms: C_4  and  C_5
REMARK    4  A    between atoms: C_5  and  N_6
REMARK    5  A    between atoms: N_6  and  C_7
REMARK    6  A    between atoms: C_7  and  C_8
REMARK    7  A    between atoms: C_9  and  C_10
REMARK    8  A    between atoms: C_13  and  O_14
REMARK    9  A    between atoms: O_14  and  C_15
REMARK   10  A    between atoms: C_15  and  C_16
REMARK   11  A    between atoms: C_16  and  C_17
REMARK   12  A    between atoms: C_17  and  C_18
REMARK                            x       y       z     vdW  Elec       q    Type
REMARK                         _______ _______ _______ _____ _____    ______ ____
ROOT
ATOM      1  C   UNL     1       2.509   6.831  18.937  0.00  0.00    +0.000 A 
ATOM      2  C   UNL     1       2.297   7.803  17.962  0.00  0.00    +0.000 A 
ATOM      3  C   UNL     1       1.693   9.011  18.279  0.00  0.00    +0.000 A 
ATOM      4  C   UNL     1       1.258   9.275  19.579  0.00  0.00    +0.000 A 
ATOM      5  C   UNL     1       1.422   8.289  20.555  0.00  0.00    +0.000 A 
ATOM      6  C   UNL     1       2.040   7.069  20.235  0.00  0.00    +0.000 A 
ENDROOT
BRANCH   1   8
ATOM      7  C   UNL     1       4.126   5.020  19.336  0.00  0.00    +0.000 C 
ATOM      8  C   UNL     1       3.158   5.564  18.577  0.00  0.00    +0.000 C 
BRANCH   7   9
ATOM      9  C   UNL     1       4.912   3.803  18.969  0.00  0.00    +0.000 C 
BRANCH   9  10
ATOM     10  N   UNL     1       6.231   4.196  18.475  0.00  0.00    +0.000 NA
ATOM     11  H   UNL     1       6.890   3.445  18.674  0.00  0.00    +0.000 HD
BRANCH  10  12
ATOM     12  C   UNL     1       6.668   5.425  19.148  0.00  0.00    +0.000 C 
BRANCH  12  13
ATOM     13  C   UNL     1       7.390   6.337  18.164  0.00  0.00    +0.000 C 
BRANCH  13  15
ATOM     14  O   UNL     1       7.642   5.116  16.078  0.00  0.00    +0.000 OA
ATOM     15  C   UNL     1       7.052   5.952  16.744  0.00  0.00    +0.000 C 
BRANCH  15  16
ATOM     16  O   UNL     1       5.985   6.632  16.268  0.00  0.00    +0.000 OA
ATOM     17  H   UNL     1       5.802   6.467  15.323  0.00  0.00    +0.000 HD
ENDBRANCH  15  16
ENDBRANCH  13  15
ENDBRANCH  12  13
ENDBRANCH  10  12
ENDBRANCH   9  10
ENDBRANCH   7   9
ENDBRANCH   1   8
BRANCH   4  18
ATOM     18  O   UNL     1       0.665  10.452  19.977  0.00  0.00    +0.000 OA
BRANCH  18  19
ATOM     19  C   UNL     1       0.912  11.537  19.078  0.00  0.00    +0.000 C 
BRANCH  19  20
ATOM     20  C   UNL     1      -0.361  12.265  18.692  0.00  0.00    +0.000 C 
BRANCH  20  21
ATOM     21  C   UNL     1      -1.552  11.391  19.093  0.00  0.00    +0.000 C 
BRANCH  21  22
ATOM     22  C   UNL     1      -2.398  11.022  17.909  0.00  0.00    +0.000 A 
ATOM     23  C   UNL     1      -1.911  10.133  16.944  0.00  0.00    +0.000 A 
ATOM     24  C   UNL     1      -2.677   9.832  15.820  0.00  0.00    +0.000 A 
ATOM     25  C   UNL     1      -3.932  10.417  15.655  0.00  0.00    +0.000 A 
ATOM     26  C   UNL     1      -4.427  11.296  16.617  0.00  0.00    +0.000 A 
ATOM     27  C   UNL     1      -3.663  11.598  17.742  0.00  0.00    +0.000 A 
ENDBRANCH  21  22
ENDBRANCH  20  21
ENDBRANCH  19  20
ENDBRANCH  18  19
ENDBRANCH   4  18
TORSDOF 12
ENDMDL
MODEL 3
REMARK VINA RESULT:      -7.2      5.469      9.075
REMARK  Name = 
REMARK  12 active torsions:
REMARK  status: ('A' for Active; 'I' for Inactive)
REMARK    1  A    between atoms: C_2  and  O_3
REMARK    2  A    between atoms: C_2  and  C_4
REMARK    3  A    between atoms: C_4  and  C_5
REMARK    4  A    between atoms: C_5  and  N_6
REMARK    5  A    between atoms: N_6  and  C_7
REMARK    6  A    between atoms: C_7  and  C_8
REMARK    7  A    between atoms: C_9  and  C_10
REMARK    8  A    between atoms: C_13  and  O_14
REMARK    9  A    between atoms: O_14  and  C_15
REMARK   10  A    between atoms: C_15  and  C_16
REMARK   11  A    between atoms: C_16  and  C_17
REMARK   12  A    between atoms: C_17  and  C_18
REMARK                            x       y       z     vdW  Elec       q    Type
REMARK                         _______ _______ _______ _____ _____    ______ ____
ROOT
ATOM      1  C   UNL     1       5.343   5.473  17.221  0.00  0.00    +0.000 A 
ATOM      2  C   UNL     1       5.453   5.015  18.532  0.00  0.00    +0.000 A 
ATOM      3  C   UNL     1       4.542   5.406  19.503  0.00  0.00    +0.000 A 
ATOM      4  C   UNL     1       3.504   6.288  19.198  0.00  0.00    +0.000 A 
ATOM      5  C   UNL     1       3.410   6.791  17.898  0.00  0.00    +0.000 A 
ATOM      6  C   UNL     1       4.329   6.390  16.913  0.00  0.00    +0.000 A 
ENDROOT
BRANCH   1   8
ATOM      7  C   UNL     1       5.933   4.591  15.002  0.00  0.00    +0.000 C 
ATOM      8  C   UNL     1       6.315   5.039  16.211  0.00  0.00    +0.000 C 
BRANCH   7   9
ATOM      9  C   UNL     1       6.856   4.020  13.974  0.00  0.00    +0.000 C 
BRANCH   9  10
ATOM     10  N   UNL     1       6.247   4.125  12.649  0.00  0.00    +0.000 NA
ATOM     11  H   UNL     1       5.923   5.082  12.514  0.00  0.00    +0.000 HD
BRANCH  10  12
ATOM     12  C   UNL     1       5.110   3.202  12.550  0.00  0.00    +0.000 C 
BRANCH  12  13
ATOM     13  C   UNL     1       5.184   2.413  11.248  0.00  0.00    +0.000 C 
BRANCH  13  15
ATOM     14  O   UNL     1       7.550   1.889  11.064  0.00  0.00    +0.000 OA
ATOM     15  C   UNL     1       6.400   1.519  11.241  0.00  0.00    +0.000 C 
BRANCH  15  16
ATOM     16  O   UNL     1       6.086   0.225  11.476  0.00  0.00    +0.000 OA
ATOM     17  H   UNL     1       5.307  -0.088  10.978  0.00  0.00    +0.000 HD
ENDBRANCH  15  16
ENDBRANCH  13  15
ENDBRANCH  12  13
ENDBRANCH  10  12
ENDBRANCH   9  10
ENDBRANCH   7   9
ENDBRANCH   1   8
BRANCH   4  18
ATOM     18  O   UNL     1       2.552   6.711  20.099  0.00  0.00    +0.000 OA
BRANCH  18  19
ATOM     19  C   UNL     1       2.041   5.652  20.914  0.00  0.00    +0.000 C 
BRANCH  19  20
ATOM     20  C   UNL     1       0.744   5.084  20.371  0.00  0.00    +0.000 C 
BRANCH  20  21
ATOM     21  C   UNL     1       0.854   3.558  20.370  0.00  0.00    +0.000 C 
BRANCH  21  22
ATOM     22  C   UNL     1       1.825   3.068  19.336  0.00  0.00    +0.000 A 
ATOM     23  C   UNL     1       1.693   3.466  18.001  0.00  0.00    +0.000 A 
ATOM     24  C   UNL     1       2.564   2.971  17.033  0.00  0.00    +0.000 A 
ATOM     25  C   UNL     1       3.571   2.075  17.395  0.00  0.00    +0.000 A 
ATOM     26  C   UNL     1       3.714   1.682  18.725  0.00  0.00    +0.000 A 
ATOM     27  C   UNL     1       2.844   2.177  19.694  0.00  0.00    +0.000 A 
ENDBRANCH  21  22
ENDBRANCH  20  21
ENDBRANCH  19  20
ENDBRANCH  18  19
ENDBRANCH   4  18
TORSDOF 12
ENDMDL
MODEL 4
REMARK VINA RESULT:      -7.2      0.957      1.676
REMARK  Name = 
REMARK  12 active torsions:
REMARK  status: ('A' for Active; 'I' for Inactive)
REMARK    1  A    between atoms: C_2  and  O_3
REMARK    2  A    between atoms: C_2  and  C_4
REMARK    3  A    between atoms: C_4  and  C_5
REMARK    4  A    between atoms: C_5  and  N_6
REMARK    5  A    between atoms: N_6  and  C_7
REMARK    6  A    between atoms: C_7  and  C_8
REMARK    7  A    between atoms: C_9  and  C_10
REMARK    8  A    between atoms: C_13  and  O_14
REMARK    9  A    between atoms: O_14  and  C_15
REMARK   10  A    between atoms: C_15  and  C_16
REMARK   11  A    between atoms: C_16  and  C_17
REMARK   12  A    between atoms: C_17  and  C_18
REMARK                            x       y       z     vdW  Elec       q    Type
REMARK                         _______ _______ _______ _____ _____    ______ ____
ROOT
ATOM      1  C   UNL     1       5.667   4.840  18.427  0.00  0.00    +0.000 A 
ATOM      2  C   UNL     1       5.072   5.632  17.447  0.00  0.00    +0.000 A 
ATOM      3  C   UNL     1       5.713   6.760  16.955  0.00  0.00    +0.000 A 
ATOM      4  C   UNL     1       6.962   7.146  17.447  0.00  0.00    +0.000 A 
ATOM      5  C   UNL     1       7.548   6.387  18.462  0.00  0.00    +0.000 A 
ATOM      6  C   UNL     1       6.902   5.240  18.955  0.00  0.00    +0.000 A 
ENDROOT
BRANCH   1   8
ATOM      7  C   UNL     1       4.070   2.985  18.179  0.00  0.00    +0.000 C 
ATOM      8  C   UNL     1       4.972   3.647  18.925  0.00  0.00    +0.000 C 
BRANCH   7   9
ATOM      9  C   UNL     1       3.239   1.842  18.664  0.00  0.00    +0.000 C 
BRANCH   9  10
ATOM     10  N   UNL     1       1.851   2.024  18.240  0.00  0.00    +0.000 NA
ATOM     11  H   UNL     1       1.821   2.035  17.222  0.00  0.00    +0.000 HD
BRANCH  10  12
ATOM     12  C   UNL     1       1.335   3.296  18.762  0.00  0.00    +0.000 C 
BRANCH  12  13
ATOM     13  C   UNL     1       0.847   3.119  20.194  0.00  0.00    +0.000 C 
BRANCH  13  15
ATOM     14  O   UNL     1       2.176   4.954  21.074  0.00  0.00    +0.000 OA
ATOM     15  C   UNL     1       1.788   3.799  21.159  0.00  0.00    +0.000 C 
BRANCH  15  16
ATOM     16  O   UNL     1       2.160   2.985  22.172  0.00  0.00    +0.000 OA
ATOM     17  H   UNL     1       2.186   3.426  23.043  0.00  0.00    +0.000 HD
ENDBRANCH  15  16
ENDBRANCH  13  15
ENDBRANCH  12  13
ENDBRANCH  10  12
ENDBRANCH   9  10
ENDBRANCH   7   9
ENDBRANCH   1   8
BRANCH   4  18
ATOM     18  O   UNL     1       7.668   8.241  17.001  0.00  0.00    +0.000 OA
BRANCH  18  19
ATOM     19  C   UNL     1       7.911   9.208  18.026  0.00  0.00    +0.000 C 
BRANCH  19  20
ATOM     20  C   UNL     1       9.140  10.049  17.742  0.00  0.00    +0.000 C 
BRANCH  20  21
ATOM     21  C   UNL     1       9.606  10.674  19.059  0.00  0.00    +0.000 C 
BRANCH  21  22
ATOM     22  C   UNL     1      10.585  11.790  18.832  0.00  0.00    +0.000 A 
ATOM     23  C   UNL     1      11.460  12.179  19.853  0.00  0.00    +0.000 A 
ATOM     24  C   UNL     1      12.332  13.247  19.658  0.00  0.00    +0.000 A 
ATOM     25  C   UNL     1      12.333  13.932  18.443  0.00  0.00    +0.000 A 
ATOM     26  C   UNL     1      11.471  13.544  17.419  0.00  0.00    +0.000 A 
ATOM     27  C   UNL     1      10.599  12.475  17.611  0.00  0.00    +0.000 A 
ENDBRANCH  21  22
ENDBRANCH  20  21
ENDBRANCH  19  20
ENDBRANCH  18  19
ENDBRANCH   4  18
TORSDOF 12
ENDMDL
MODEL 5
REMARK VINA RESULT:      -7.1      4.077      7.868
REMARK  Name = 
REMARK  12 active torsions:
REMARK  status: ('A' for Active; 'I' for Inactive)
REMARK    1  A    between atoms: C_2  and  O_3
REMARK    2  A    between atoms: C_2  and  C_4
REMARK    3  A    between atoms: C_4  and  C_5
REMARK    4  A    between atoms: C_5  and  N_6
REMARK    5  A    between atoms: N_6  and  C_7
REMARK    6  A    between atoms: C_7  and  C_8
REMARK    7  A    between atoms: C_9  and  C_10
REMARK    8  A    between atoms: C_13  and  O_14
REMARK    9  A    between atoms: O_14  and  C_15
REMARK   10  A    between atoms: C_15  and  C_16
REMARK   11  A    between atoms: C_16  and  C_17
REMARK   12  A    between atoms: C_17  and  C_18
REMARK                            x       y       z     vdW  Elec       q    Type
REMARK                         _______ _______ _______ _____ _____    ______ ____
ROOT
ATOM      1  C   UNL     1       3.774   3.397  16.741  0.00  0.00    +0.000 A 
ATOM      2  C   UNL     1       2.457   3.834  16.870  0.00  0.00    +0.000 A 
ATOM      3  C   UNL     1       1.608   3.273  17.813  0.00  0.00    +0.000 A 
ATOM      4  C   UNL     1       2.043   2.238  18.643  0.00  0.00    +0.000 A 
ATOM      5  C   UNL     1       3.346   1.759  18.492  0.00  0.00    +0.000 A 
ATOM      6  C   UNL     1       4.208   2.332  17.541  0.00  0.00    +0.000 A 
ENDROOT
BRANCH   1   8
ATOM      7  C   UNL     1       5.952   4.260  15.992  0.00  0.00    +0.000 C 
ATOM      8  C   UNL     1       4.655   4.012  15.741  0.00  0.00    +0.000 C 
BRANCH   7   9
ATOM      9  C   UNL     1       6.873   4.992  15.070  0.00  0.00    +0.000 C 
BRANCH   9  10
ATOM     10  N   UNL     1       7.615   6.007  15.815  0.00  0.00    +0.000 NA
ATOM     11  H   UNL     1       8.475   5.589  16.167  0.00  0.00    +0.000 HD
BRANCH  10  12
ATOM     12  C   UNL     1       6.806   6.490  16.941  0.00  0.00    +0.000 C 
BRANCH  12  13
ATOM     13  C   UNL     1       7.690   6.746  18.154  0.00  0.00    +0.000 C 
BRANCH  13  15
ATOM     14  O   UNL     1       8.165   4.380  18.443  0.00  0.00    +0.000 OA
ATOM     15  C   UNL     1       7.904   5.469  18.930  0.00  0.00    +0.000 C 
BRANCH  15  16
ATOM     16  O   UNL     1       7.794   5.655  20.265  0.00  0.00    +0.000 OA
ATOM     17  H   UNL     1       6.999   5.243  20.655  0.00  0.00    +0.000 HD
ENDBRANCH  15  16
ENDBRANCH  13  15
ENDBRANCH  12  13
ENDBRANCH  10  12
ENDBRANCH   9  10
ENDBRANCH   7   9
ENDBRANCH   1   8
BRANCH   4  18
ATOM     18  O   UNL     1       1.268   1.640  19.612  0.00  0.00    +0.000 OA
BRANCH  18  19
ATOM     19  C   UNL     1       1.077   2.465  20.765  0.00  0.00    +0.000 C 
BRANCH  19  20
ATOM     20  C   UNL     1       2.389   2.845  21.423  0.00  0.00    +0.000 C 
BRANCH  20  21
ATOM     21  C   UNL     1       2.323   4.327  21.799  0.00  0.00    +0.000 C 
BRANCH  21  22
ATOM     22  C   UNL     1       2.667   5.213  20.638  0.00  0.00    +0.000 A 
ATOM     23  C   UNL     1       3.903   5.085  19.994  0.00  0.00    +0.000 A 
ATOM     24  C   UNL     1       4.241   5.942  18.949  0.00  0.00    +0.000 A 
ATOM     25  C   UNL     1       3.345   6.931  18.543  0.00  0.00    +0.000 A 
ATOM     26  C   UNL     1       2.108   7.058  19.173  0.00  0.00    +0.000 A 
ATOM     27  C   UNL     1       1.768   6.201  20.217  0.00  0.00    +0.000 A 
ENDBRANCH  21  22
ENDBRANCH  20  21
ENDBRANCH  19  20
ENDBRANCH  18  19
ENDBRANCH   4  18
TORSDOF 12
ENDMDL
MODEL 6
REMARK VINA RESULT:      -7.1      0.940      1.007
REMARK  Name = 
REMARK  12 active torsions:
REMARK  status: ('A' for Active; 'I' for Inactive)
REMARK    1  A    between atoms: C_2  and  O_3
REMARK    2  A    between atoms: C_2  and  C_4
REMARK    3  A    between atoms: C_4  and  C_5
REMARK    4  A    between atoms: C_5  and  N_6
REMARK    5  A    between atoms: N_6  and  C_7
REMARK    6  A    between atoms: C_7  and  C_8
REMARK    7  A    between atoms: C_9  and  C_10
REMARK    8  A    between atoms: C_13  and  O_14
REMARK    9  A    between atoms: O_14  and  C_15
REMARK   10  A    between atoms: C_15  and  C_16
REMARK   11  A    between atoms: C_16  and  C_17
REMARK   12  A    between atoms: C_17  and  C_18
REMARK                            x       y       z     vdW  Elec       q    Type
REMARK                         _______ _______ _______ _____ _____    ______ ____
ROOT
ATOM      1  C   UNL     1       4.806   4.823  17.472  0.00  0.00    +0.000 A 
ATOM      2  C   UNL     1       5.681   5.053  18.531  0.00  0.00    +0.000 A 
ATOM      3  C   UNL     1       6.707   5.980  18.420  0.00  0.00    +0.000 A 
ATOM      4  C   UNL     1       6.906   6.690  17.234  0.00  0.00    +0.000 A 
ATOM      5  C   UNL     1       6.065   6.434  16.149  0.00  0.00    +0.000 A 
ATOM      6  C   UNL     1       5.021   5.500  16.264  0.00  0.00    +0.000 A 
ENDROOT
BRANCH   1   8
ATOM      7  C   UNL     1       2.439   4.159  17.373  0.00  0.00    +0.000 C 
ATOM      8  C   UNL     1       3.723   3.842  17.617  0.00  0.00    +0.000 C 
BRANCH   7   9
ATOM      9  C   UNL     1       1.277   3.252  17.618  0.00  0.00    +0.000 C 
BRANCH   9  10
ATOM     10  N   UNL     1       1.738   2.017  18.250  0.00  0.00    +0.000 NA
ATOM     11  H   UNL     1       1.520   1.235  17.635  0.00  0.00    +0.000 HD
BRANCH  10  12
ATOM     12  C   UNL     1       1.059   1.835  19.539  0.00  0.00    +0.000 C 
BRANCH  12  13
ATOM     13  C   UNL     1       1.172   3.102  20.378  0.00  0.00    +0.000 C 
BRANCH  13  15
ATOM     14  O   UNL     1       2.391   3.252  22.475  0.00  0.00    +0.000 OA
ATOM     15  C   UNL     1       2.385   3.035  21.274  0.00  0.00    +0.000 C 
BRANCH  15  16
ATOM     16  O   UNL     1       3.502   2.682  20.599  0.00  0.00    +0.000 OA
ATOM     17  H   UNL     1       4.106   2.110  21.109  0.00  0.00    +0.000 HD
ENDBRANCH  15  16
ENDBRANCH  13  15
ENDBRANCH  12  13
ENDBRANCH  10  12
ENDBRANCH   9  10
ENDBRANCH   7   9
ENDBRANCH   1   8
BRANCH   4  18
ATOM     18  O   UNL     1       7.890   7.636  17.050  0.00  0.00    +0.000 OA
BRANCH  18  19
ATOM     19  C   UNL     1       8.335   8.228  18.273  0.00  0.00    +0.000 C 
BRANCH  19  20
ATOM     20  C   UNL     1       8.428   9.739  18.179  0.00  0.00    +0.000 C 
BRANCH  20  21
ATOM     21  C   UNL     1       9.163  10.251  19.420  0.00  0.00    +0.000 C 
BRANCH  21  22
ATOM     22  C   UNL     1      10.249  11.224  19.064  0.00  0.00    +0.000 A 
ATOM     23  C   UNL     1      10.296  11.791  17.786  0.00  0.00    +0.000 A 
ATOM     24  C   UNL     1      11.333  12.655  17.441  0.00  0.00    +0.000 A 
ATOM     25  C   UNL     1      12.328  12.954  18.371  0.00  0.00    +0.000 A 
ATOM     26  C   UNL     1      12.282  12.399  19.649  0.00  0.00    +0.000 A 
ATOM     27  C   UNL     1      11.246  11.537  19.996  0.00  0.00    +0.000 A 
ENDBRANCH  21  22
ENDBRANCH  20  21
ENDBRANCH  19  20
ENDBRANCH  18  19
ENDBRANCH   4  18
TORSDOF 12
ENDMDL
MODEL 7
REMARK VINA RESULT:      -7.1      1.476      1.998
REMARK  Name = 
REMARK  12 active torsions:
REMARK  status: ('A' for Active; 'I' for Inactive)
REMARK    1  A    between atoms: C_2  and  O_3
REMARK    2  A    between atoms: C_2  and  C_4
REMARK    3  A    between atoms: C_4  and  C_5
REMARK    4  A    between atoms: C_5  and  N_6
REMARK    5  A    between atoms: N_6  and  C_7
REMARK    6  A    between atoms: C_7  and  C_8
REMARK    7  A    between atoms: C_9  and  C_10
REMARK    8  A    between atoms: C_13  and  O_14
REMARK    9  A    between atoms: O_14  and  C_15
REMARK   10  A    between atoms: C_15  and  C_16
REMARK   11  A    between atoms: C_16  and  C_17
REMARK   12  A    between atoms: C_17  and  C_18
REMARK                            x       y       z     vdW  Elec       q    Type
REMARK                         _______ _______ _______ _____ _____    ______ ____
ROOT
ATOM      1  C   UNL     1       5.757   5.039  18.002  0.00  0.00    +0.000 A 
ATOM      2  C   UNL     1       5.669   6.184  17.215  0.00  0.00    +0.000 A 
ATOM      3  C   UNL     1       6.609   7.199  17.323  0.00  0.00    +0.000 A 
ATOM      4  C   UNL     1       7.656   7.110  18.243  0.00  0.00    +0.000 A 
ATOM      5  C   UNL     1       7.729   5.987  19.072  0.00  0.00    +0.000 A 
ATOM      6  C   UNL     1       6.780   4.957  18.956  0.00  0.00    +0.000 A 
ENDROOT
BRANCH   1   8
ATOM      7  C   UNL     1       3.588   4.177  17.224  0.00  0.00    +0.000 C 
ATOM      8  C   UNL     1       4.754   3.976  17.863  0.00  0.00    +0.000 C 
BRANCH   7   9
ATOM      9  C   UNL     1       2.475   3.182  17.151  0.00  0.00    +0.000 C 
BRANCH   9  10
ATOM     10  N   UNL     1       1.329   3.664  17.921  0.00  0.00    +0.000 NA
ATOM     11  H   UNL     1       1.638   4.428  18.521  0.00  0.00    +0.000 HD
BRANCH  10  12
ATOM     12  C   UNL     1       0.792   2.576  18.748  0.00  0.00    +0.000 C 
BRANCH  12  13
ATOM     13  C   UNL     1       1.682   2.348  19.963  0.00  0.00    +0.000 C 
BRANCH  13  15
ATOM     14  O   UNL     1       1.023   4.575  20.679  0.00  0.00    +0.000 OA
ATOM     15  C   UNL     1       1.589   3.518  20.911  0.00  0.00    +0.000 C 
BRANCH  15  16
ATOM     16  O   UNL     1       2.197   3.270  22.093  0.00  0.00    +0.000 OA
ATOM     17  H   UNL     1       2.719   4.022  22.433  0.00  0.00    +0.000 HD
ENDBRANCH  15  16
ENDBRANCH  13  15
ENDBRANCH  12  13
ENDBRANCH  10  12
ENDBRANCH   9  10
ENDBRANCH   7   9
ENDBRANCH   1   8
BRANCH   4  18
ATOM     18  O   UNL     1       8.636   8.064  18.401  0.00  0.00    +0.000 OA
BRANCH  18  19
ATOM     19  C   UNL     1       8.220   9.369  17.989  0.00  0.00    +0.000 C 
BRANCH  19  20
ATOM     20  C   UNL     1       9.162  10.453  18.476  0.00  0.00    +0.000 C 
BRANCH  20  21
ATOM     21  C   UNL     1       8.664  11.797  17.940  0.00  0.00    +0.000 C 
BRANCH  21  22
ATOM     22  C   UNL     1       9.789  12.769  17.737  0.00  0.00    +0.000 A 
ATOM     23  C   UNL     1       9.577  14.140  17.917  0.00  0.00    +0.000 A 
ATOM     24  C   UNL     1      10.609  15.046  17.679  0.00  0.00    +0.000 A 
ATOM     25  C   UNL     1      11.856  14.585  17.260  0.00  0.00    +0.000 A 
ATOM     26  C   UNL     1      12.077  13.219  17.088  0.00  0.00    +0.000 A 
ATOM     27  C   UNL     1      11.048  12.313  17.326  0.00  0.00    +0.000 A 
ENDBRANCH  21  22
ENDBRANCH  20  21
ENDBRANCH  19  20
ENDBRANCH  18  19
ENDBRANCH   4  18
TORSDOF 12
ENDMDL
MODEL 8
REMARK VINA RESULT:      -7.0      6.089      9.703
REMARK  Name = 
REMARK  12 active torsions:
REMARK  status: ('A' for Active; 'I' for Inactive)
REMARK    1  A    between atoms: C_2  and  O_3
REMARK    2  A    between atoms: C_2  and  C_4
REMARK    3  A    between atoms: C_4  and  C_5
REMARK    4  A    between atoms: C_5  and  N_6
REMARK    5  A    between atoms: N_6  and  C_7
REMARK    6  A    between atoms: C_7  and  C_8
REMARK    7  A    between atoms: C_9  and  C_10
REMARK    8  A    between atoms: C_13  and  O_14
REMARK    9  A    between atoms: O_14  and  C_15
REMARK   10  A    between atoms: C_15  and  C_16
REMARK   11  A    between atoms: C_16  and  C_17
REMARK   12  A    between atoms: C_17  and  C_18
REMARK                            x       y       z     vdW  Elec       q    Type
REMARK                         _______ _______ _______ _____ _____    ______ ____
ROOT
ATOM      1  C   UNL     1       1.024   9.094  20.019  0.00  0.00    +0.000 A 
ATOM      2  C   UNL     1       1.296   9.467  18.705  0.00  0.00    +0.000 A 
ATOM      3  C   UNL     1       2.065   8.660  17.879  0.00  0.00    +0.000 A 
ATOM      4  C   UNL     1       2.608   7.464  18.351  0.00  0.00    +0.000 A 
ATOM      5  C   UNL     1       2.382   7.101  19.680  0.00  0.00    +0.000 A 
ATOM      6  C   UNL     1       1.597   7.915  20.515  0.00  0.00    +0.000 A 
ENDROOT
BRANCH   1   8
ATOM      7  C   UNL     1      -0.051   9.663  22.158  0.00  0.00    +0.000 C 
ATOM      8  C   UNL     1       0.200   9.961  20.871  0.00  0.00    +0.000 C 
BRANCH   7   9
ATOM      9  C   UNL     1      -0.976  10.432  23.044  0.00  0.00    +0.000 C 
BRANCH   9  10
ATOM     10  N   UNL     1      -0.535  11.823  23.133  0.00  0.00    +0.000 NA
ATOM     11  H   UNL     1      -0.235  12.009  24.089  0.00  0.00    +0.000 HD
BRANCH  10  12
ATOM     12  C   UNL     1      -1.643  12.720  22.781  0.00  0.00    +0.000 C 
BRANCH  12  13
ATOM     13  C   UNL     1      -2.977  12.008  22.968  0.00  0.00    +0.000 C 
BRANCH  13  15
ATOM     14  O   UNL     1      -4.651  12.057  24.729  0.00  0.00    +0.000 OA
ATOM     15  C   UNL     1      -3.728  12.595  24.137  0.00  0.00    +0.000 C 
BRANCH  15  16
ATOM     16  O   UNL     1      -3.255  13.811  24.493  0.00  0.00    +0.000 OA
ATOM     17  H   UNL     1      -2.789  13.818  25.350  0.00  0.00    +0.000 HD
ENDBRANCH  15  16
ENDBRANCH  13  15
ENDBRANCH  12  13
ENDBRANCH  10  12
ENDBRANCH   9  10
ENDBRANCH   7   9
ENDBRANCH   1   8
BRANCH   4  18
ATOM     18  O   UNL     1       3.368   6.602  17.591  0.00  0.00    +0.000 OA
BRANCH  18  19
ATOM     19  C   UNL     1       4.335   5.881  18.359  0.00  0.00    +0.000 C 
BRANCH  19  20
ATOM     20  C   UNL     1       4.682   4.543  17.735  0.00  0.00    +0.000 C 
BRANCH  20  21
ATOM     21  C   UNL     1       3.385   3.752  17.547  0.00  0.00    +0.000 C 
BRANCH  21  22
ATOM     22  C   UNL     1       2.697   3.489  18.854  0.00  0.00    +0.000 A 
ATOM     23  C   UNL     1       3.412   2.958  19.933  0.00  0.00    +0.000 A 
ATOM     24  C   UNL     1       2.761   2.667  21.130  0.00  0.00    +0.000 A 
ATOM     25  C   UNL     1       1.393   2.905  21.254  0.00  0.00    +0.000 A 
ATOM     26  C   UNL     1       0.676   3.444  20.186  0.00  0.00    +0.000 A 
ATOM     27  C   UNL     1       1.325   3.736  18.989  0.00  0.00    +0.000 A 
ENDBRANCH  21  22
ENDBRANCH  20  21
ENDBRANCH  19  20
ENDBRANCH  18  19
ENDBRANCH   4  18
TORSDOF 12
ENDMDL
MODEL 9
REMARK VINA RESULT:      -7.0      5.292      8.223
REMARK  Name = 
REMARK  12 active torsions:
REMARK  status: ('A' for Active; 'I' for Inactive)
REMARK    1  A    between atoms: C_2  and  O_3
REMARK    2  A    between atoms: C_2  and  C_4
REMARK    3  A    between atoms: C_4  and  C_5
REMARK    4  A    between atoms: C_5  and  N_6
REMARK    5  A    between atoms: N_6  and  C_7
REMARK    6  A    between atoms: C_7  and  C_8
REMARK    7  A    between atoms: C_9  and  C_10
REMARK    8  A    between atoms: C_13  and  O_14
REMARK    9  A    between atoms: O_14  and  C_15
REMARK   10  A    between atoms: C_15  and  C_16
REMARK   11  A    between atoms: C_16  and  C_17
REMARK   12  A    between atoms: C_17  and  C_18
REMARK                            x       y       z     vdW  Elec       q    Type
REMARK                         _______ _______ _______ _____ _____    ______ ____
ROOT
ATOM      1  C   UNL     1       4.083   3.024  16.975  0.00  0.00    +0.000 A 
ATOM      2  C   UNL     1       4.384   2.345  18.153  0.00  0.00    +0.000 A 
ATOM      3  C   UNL     1       3.426   2.171  19.141  0.00  0.00    +0.000 A 
ATOM      4  C   UNL     1       2.140   2.692  18.991  0.00  0.00    +0.000 A 
ATOM      5  C   UNL     1       1.839   3.415  17.834  0.00  0.00    +0.000 A 
ATOM      6  C   UNL     1       2.808   3.585  16.831  0.00  0.00    +0.000 A 
ENDROOT
BRANCH   1   8
ATOM      7  C   UNL     1       5.399   4.388  15.406  0.00  0.00    +0.000 C 
ATOM      8  C   UNL     1       5.113   3.188  15.941  0.00  0.00    +0.000 C 
BRANCH   7   9
ATOM      9  C   UNL     1       6.343   4.609  14.269  0.00  0.00    +0.000 C 
BRANCH   9  10
ATOM     10  N   UNL     1       6.381   3.421  13.419  0.00  0.00    +0.000 NA
ATOM     11  H   UNL     1       6.914   2.695  13.896  0.00  0.00    +0.000 HD
BRANCH  10  12
ATOM     12  C   UNL     1       7.026   3.744  12.140  0.00  0.00    +0.000 C 
BRANCH  12  13
ATOM     13  C   UNL     1       7.259   2.474  11.331  0.00  0.00    +0.000 C 
BRANCH  13  15
ATOM     14  O   UNL     1       4.861   2.082  11.262  0.00  0.00    +0.000 OA
ATOM     15  C   UNL     1       6.000   1.643  11.282  0.00  0.00    +0.000 C 
BRANCH  15  16
ATOM     16  O   UNL     1       6.263   0.316  11.244  0.00  0.00    +0.000 OA
ATOM     17  H   UNL     1       5.526  -0.221  10.896  0.00  0.00    +0.000 HD
ENDBRANCH  15  16
ENDBRANCH  13  15
ENDBRANCH  12  13
ENDBRANCH  10  12
ENDBRANCH   9  10
ENDBRANCH   7   9
ENDBRANCH   1   8
BRANCH   4  18
ATOM     18  O   UNL     1       1.130   2.550  19.916  0.00  0.00    +0.000 OA
BRANCH  18  19
ATOM     19  C   UNL     1       0.740   3.787  20.517  0.00  0.00    +0.000 C 
BRANCH  19  20
ATOM     20  C   UNL     1       1.927   4.570  21.043  0.00  0.00    +0.000 C 
BRANCH  20  21
ATOM     21  C   UNL     1       1.781   6.024  20.588  0.00  0.00    +0.000 C 
BRANCH  21  22
ATOM     22  C   UNL     1       2.782   6.382  19.530  0.00  0.00    +0.000 A 
ATOM     23  C   UNL     1       2.446   7.289  18.518  0.00  0.00    +0.000 A 
ATOM     24  C   UNL     1       3.359   7.581  17.507  0.00  0.00    +0.000 A 
ATOM     25  C   UNL     1       4.612   6.968  17.502  0.00  0.00    +0.000 A 
ATOM     26  C   UNL     1       4.957   6.071  18.513  0.00  0.00    +0.000 A 
ATOM     27  C   UNL     1       4.046   5.779  19.524  0.00  0.00    +0.000 A 
ENDBRANCH  21  22
ENDBRANCH  20  21
ENDBRANCH  19  20
ENDBRANCH  18  19
ENDBRANCH   4  18
TORSDOF 12
ENDMDL
