MODEL 1
REMARK VINA RESULT:      -7.6      0.000      0.000
REMARK  Name = 
REMARK  4 active torsions:
REMARK  status: ('A' for Active; 'I' for Inactive)
REMARK    1  A    between atoms: C_2  and  C_3
REMARK    2  A    between atoms: C_3  and  S_4
REMARK    3  A    between atoms: S_4  and  C_5
REMARK    4  A    between atoms: C_24  and  O_25
REMARK                            x       y       z     vdW  Elec       q    Type
REMARK                         _______ _______ _______ _____ _____    ______ ____
ROOT
ATOM      1  O   UNL     1       2.340   5.975  20.309  0.00  0.00    +0.000 OA
ATOM      2  C   UNL     1       2.437   6.736  19.344  0.00  0.00    +0.000 C 
ATOM      3  N   UNL     1       2.000   8.057  19.430  0.00  0.00    +0.000 N 
ATOM      4  C   UNL     1       2.157   9.085  18.405  0.00  0.00    +0.000 C 
ATOM      5  C   UNL     1       0.777   9.549  17.940  0.00  0.00    +0.000 C 
ATOM      6  C   UNL     1      -0.065  10.093  19.123  0.00  0.00    +0.000 C 
ATOM      7  C   UNL     1      -0.121   9.012  20.235  0.00  0.00    +0.000 C 
ATOM      8  C   UNL     1       1.274   8.504  20.620  0.00  0.00    +0.000 C 
ATOM      9  C   UNL     1      -1.464  10.470  18.675  0.00  0.00    +0.000 A 
ATOM     10  C   UNL     1      -2.420   9.657  18.073  0.00  0.00    +0.000 A 
ATOM     11  C   UNL     1      -3.671  10.196  17.753  0.00  0.00    +0.000 A 
ATOM     12  C   UNL     1      -3.959  11.538  18.029  0.00  0.00    +0.000 A 
ATOM     13  C   UNL     1      -3.007  12.349  18.644  0.00  0.00    +0.000 A 
ATOM     14  C   UNL     1      -1.772  11.800  18.968  0.00  0.00    +0.000 A 
ATOM     15  C   UNL     1      -0.675  12.494  19.700  0.00  0.00    +0.000 C 
ATOM     16  C   UNL     1       0.473  11.464  19.688  0.00  0.00    +0.000 C 
ENDROOT
BRANCH  16  17
ATOM     17  O   UNL     1       1.553  11.995  18.912  0.00  0.00    +0.000 OA
ATOM     18  H   UNL     1       2.387  11.698  19.321  0.00  0.00    +0.000 HD
ENDBRANCH  16  17
BRANCH   2  19
ATOM     19  C   UNL     1       3.062   6.284  18.020  0.00  0.00    +0.000 C 
BRANCH  19  20
ATOM     20  S   UNL     1       3.565   4.527  18.087  0.00  0.00    +0.000 S 
BRANCH  20  21
ATOM     21  C   UNL     1       5.189   4.544  17.341  0.00  0.00    +0.000 A 
ATOM     22  C   UNL     1       6.281   4.674  18.199  0.00  0.00    +0.000 A 
ATOM     23  C   UNL     1       7.559   4.658  17.665  0.00  0.00    +0.000 A 
ATOM     24  N   UNL     1       7.817   4.519  16.349  0.00  0.00    +0.000 NA
ATOM     25  C   UNL     1       6.748   4.381  15.538  0.00  0.00    +0.000 A 
ATOM     26  C   UNL     1       5.433   4.384  15.978  0.00  0.00    +0.000 A 
ENDBRANCH  20  21
ENDBRANCH  19  20
ENDBRANCH   2  19
TORSDOF 4
ENDMDL
MODEL 2
REMARK VINA RESULT:      -7.6      0.676      1.151
REMARK  Name = 
REMARK  4 active torsions:
REMARK  status: ('A' for Active; 'I' for Inactive)
REMARK    1  A    between atoms: C_2  and  C_3
REMARK    2  A    between atoms: C_3  and  S_4
REMARK    3  A    between atoms: S_4  and  C_5
REMARK    4  A    between atoms: C_24  and  O_25
REMARK                            x       y       z     vdW  Elec       q    Type
REMARK                         _______ _______ _______ _____ _____    ______ ____
ROOT
ATOM      1  O   UNL     1       2.426   5.649  20.358  0.00  0.00    +0.000 OA
ATOM      2  C   UNL     1       2.478   6.227  19.270  0.00  0.00    +0.000 C 
ATOM      3  N   UNL     1       2.244   7.599  19.179  0.00  0.00    +0.000 N 
ATOM      4  C   UNL     1       2.383   8.419  17.979  0.00  0.00    +0.000 C 
ATOM      5  C   UNL     1       1.025   9.022  17.619  0.00  0.00    +0.000 C 
ATOM      6  C   UNL     1       0.456   9.868  18.787  0.00  0.00    +0.000 C 
ATOM      7  C   UNL     1       0.421   8.994  20.068  0.00  0.00    +0.000 C 
ATOM      8  C   UNL     1       1.776   8.334  20.355  0.00  0.00    +0.000 C 
ATOM      9  C   UNL     1      -0.930  10.392  18.462  0.00  0.00    +0.000 A 
ATOM     10  C   UNL     1      -2.069   9.660  18.137  0.00  0.00    +0.000 A 
ATOM     11  C   UNL     1      -3.268  10.337  17.890  0.00  0.00    +0.000 A 
ATOM     12  C   UNL     1      -3.324  11.734  17.962  0.00  0.00    +0.000 A 
ATOM     13  C   UNL     1      -2.188  12.466  18.300  0.00  0.00    +0.000 A 
ATOM     14  C   UNL     1      -1.005  11.783  18.555  0.00  0.00    +0.000 A 
ATOM     15  C   UNL     1       0.276  12.396  19.009  0.00  0.00    +0.000 C 
ATOM     16  C   UNL     1       1.256  11.206  19.030  0.00  0.00    +0.000 C 
ENDROOT
BRANCH  16  17
ATOM     17  O   UNL     1       2.268  11.431  18.043  0.00  0.00    +0.000 OA
ATOM     18  H   UNL     1       2.613  10.562  17.766  0.00  0.00    +0.000 HD
ENDBRANCH  16  17
BRANCH   2  19
ATOM     19  C   UNL     1       2.825   5.483  17.977  0.00  0.00    +0.000 C 
BRANCH  19  20
ATOM     20  S   UNL     1       3.688   3.910  18.327  0.00  0.00    +0.000 S 
BRANCH  20  21
ATOM     21  C   UNL     1       5.302   4.164  17.599  0.00  0.00    +0.000 A 
ATOM     22  C   UNL     1       5.412   3.984  16.221  0.00  0.00    +0.000 A 
ATOM     23  C   UNL     1       6.636   4.204  15.611  0.00  0.00    +0.000 A 
ATOM     24  N   UNL     1       7.743   4.590  16.278  0.00  0.00    +0.000 NA
ATOM     25  C   UNL     1       7.612   4.771  17.608  0.00  0.00    +0.000 A 
ATOM     26  C   UNL     1       6.429   4.577  18.306  0.00  0.00    +0.000 A 
ENDBRANCH  20  21
ENDBRANCH  19  20
ENDBRANCH   2  19
TORSDOF 4
ENDMDL
MODEL 3
REMARK VINA RESULT:      -7.3      1.300      1.632
REMARK  Name = 
REMARK  4 active torsions:
REMARK  status: ('A' for Active; 'I' for Inactive)
REMARK    1  A    between atoms: C_2  and  C_3
REMARK    2  A    between atoms: C_3  and  S_4
REMARK    3  A    between atoms: S_4  and  C_5
REMARK    4  A    between atoms: C_24  and  O_25
REMARK                            x       y       z     vdW  Elec       q    Type
REMARK                         _______ _______ _______ _____ _____    ______ ____
ROOT
ATOM      1  O   UNL     1       2.526   5.573  20.247  0.00  0.00    +0.000 OA
ATOM      2  C   UNL     1       2.598   6.180  19.177  0.00  0.00    +0.000 C 
ATOM      3  N   UNL     1       2.350   7.551  19.115  0.00  0.00    +0.000 N 
ATOM      4  C   UNL     1       2.509   8.404  17.941  0.00  0.00    +0.000 C 
ATOM      5  C   UNL     1       1.154   9.000  17.562  0.00  0.00    +0.000 C 
ATOM      6  C   UNL     1       0.545   9.809  18.736  0.00  0.00    +0.000 C 
ATOM      7  C   UNL     1       0.488   8.900  19.993  0.00  0.00    +0.000 C 
ATOM      8  C   UNL     1       1.843   8.249  20.298  0.00  0.00    +0.000 C 
ATOM      9  C   UNL     1      -0.839  10.325  18.389  0.00  0.00    +0.000 A 
ATOM     10  C   UNL     1      -1.960   9.589  18.017  0.00  0.00    +0.000 A 
ATOM     11  C   UNL     1      -3.161  10.258  17.757  0.00  0.00    +0.000 A 
ATOM     12  C   UNL     1      -3.236  11.652  17.864  0.00  0.00    +0.000 A 
ATOM     13  C   UNL     1      -2.117  12.388  18.249  0.00  0.00    +0.000 A 
ATOM     14  C   UNL     1      -0.933  11.712  18.517  0.00  0.00    +0.000 A 
ATOM     15  C   UNL     1       0.328  12.327  19.020  0.00  0.00    +0.000 C 
ATOM     16  C   UNL     1       1.322  11.149  19.036  0.00  0.00    +0.000 C 
ENDROOT
BRANCH  16  17
ATOM     17  O   UNL     1       2.356  11.412  18.081  0.00  0.00    +0.000 OA
ATOM     18  H   UNL     1       3.072  11.887  18.541  0.00  0.00    +0.000 HD
ENDBRANCH  16  17
BRANCH   2  19
ATOM     19  C   UNL     1       2.988   5.475  17.874  0.00  0.00    +0.000 C 
BRANCH  19  20
ATOM     20  S   UNL     1       4.365   4.301  18.139  0.00  0.00    +0.000 S 
BRANCH  20  21
ATOM     21  C   UNL     1       5.799   5.368  18.192  0.00  0.00    +0.000 A 
ATOM     22  C   UNL     1       5.897   6.350  17.207  0.00  0.00    +0.000 A 
ATOM     23  C   UNL     1       6.974   7.220  17.230  0.00  0.00    +0.000 A 
ATOM     24  N   UNL     1       7.947   7.177  18.162  0.00  0.00    +0.000 NA
ATOM     25  C   UNL     1       7.829   6.228  19.113  0.00  0.00    +0.000 A 
ATOM     26  C   UNL     1       6.787   5.314  19.173  0.00  0.00    +0.000 A 
ENDBRANCH  20  21
ENDBRANCH  19  20
ENDBRANCH   2  19
TORSDOF 4
ENDMDL
MODEL 4
REMARK VINA RESULT:      -7.1      1.847      2.060
REMARK  Name = 
REMARK  4 active torsions:
REMARK  status: ('A' for Active; 'I' for Inactive)
REMARK    1  A    between atoms: C_2  and  C_3
REMARK    2  A    between atoms: C_3  and  S_4
REMARK    3  A    between atoms: S_4  and  C_5
REMARK    4  A    between atoms: C_24  and  O_25
REMARK                            x       y       z     vdW  Elec       q    Type
REMARK                         _______ _______ _______ _____ _____    ______ ____
ROOT
ATOM      1  O   UNL     1       2.415   6.436  20.132  0.00  0.00    +0.000 OA
ATOM      2  C   UNL     1       2.432   7.224  19.185  0.00  0.00    +0.000 C 
ATOM      3  N   UNL     1       1.865   8.493  19.300  0.00  0.00    +0.000 N 
ATOM      4  C   UNL     1       1.916   9.554  18.299  0.00  0.00    +0.000 C 
ATOM      5  C   UNL     1       0.496   9.889  17.845  0.00  0.00    +0.000 C 
ATOM      6  C   UNL     1      -0.392  10.320  19.041  0.00  0.00    +0.000 C 
ATOM      7  C   UNL     1      -0.337   9.214  20.129  0.00  0.00    +0.000 C 
ATOM      8  C   UNL     1       1.103   8.839  20.501  0.00  0.00    +0.000 C 
ATOM      9  C   UNL     1      -1.824  10.565  18.603  0.00  0.00    +0.000 A 
ATOM     10  C   UNL     1      -2.696   9.675  17.984  0.00  0.00    +0.000 A 
ATOM     11  C   UNL     1      -3.995  10.094  17.678  0.00  0.00    +0.000 A 
ATOM     12  C   UNL     1      -4.414  11.394  17.984  0.00  0.00    +0.000 A 
ATOM     13  C   UNL     1      -3.546  12.281  18.616  0.00  0.00    +0.000 A 
ATOM     14  C   UNL     1      -2.261  11.852  18.927  0.00  0.00    +0.000 A 
ATOM     15  C   UNL     1      -1.236  12.634  19.672  0.00  0.00    +0.000 C 
ATOM     16  C   UNL     1       0.008  11.725  19.636  0.00  0.00    +0.000 C 
ENDROOT
BRANCH  16  17
ATOM     17  O   UNL     1       1.027  12.378  18.871  0.00  0.00    +0.000 OA
ATOM     18  H   UNL     1       0.660  13.219  18.543  0.00  0.00    +0.000 HD
ENDBRANCH  16  17
BRANCH   2  19
ATOM     19  C   UNL     1       3.094   6.866  17.850  0.00  0.00    +0.000 C 
BRANCH  19  20
ATOM     20  S   UNL     1       4.626   5.902  18.106  0.00  0.00    +0.000 S 
BRANCH  20  21
ATOM     21  C   UNL     1       4.028   4.223  18.244  0.00  0.00    +0.000 A 
ATOM     22  C   UNL     1       4.535   3.452  19.291  0.00  0.00    +0.000 A 
ATOM     23  C   UNL     1       4.074   2.158  19.456  0.00  0.00    +0.000 A 
ATOM     24  N   UNL     1       3.149   1.588  18.657  0.00  0.00    +0.000 NA
ATOM     25  C   UNL     1       2.662   2.352  17.658  0.00  0.00    +0.000 A 
ATOM     26  C   UNL     1       3.061   3.658  17.415  0.00  0.00    +0.000 A 
ENDBRANCH  20  21
ENDBRANCH  19  20
ENDBRANCH   2  19
TORSDOF 4
ENDMDL
MODEL 5
REMARK VINA RESULT:      -7.0      1.190      1.284
REMARK  Name = 
REMARK  4 active torsions:
REMARK  status: ('A' for Active; 'I' for Inactive)
REMARK    1  A    between atoms: C_2  and  C_3
REMARK    2  A    between atoms: C_3  and  S_4
REMARK    3  A    between atoms: S_4  and  C_5
REMARK    4  A    between atoms: C_24  and  O_25
REMARK                            x       y       z     vdW  Elec       q    Type
REMARK                         _______ _______ _______ _____ _____    ______ ____
ROOT
ATOM      1  O   UNL     1       2.360   6.004  20.109  0.00  0.00    +0.000 OA
ATOM      2  C   UNL     1       2.409   6.753  19.130  0.00  0.00    +0.000 C 
ATOM      3  N   UNL     1       1.987   8.079  19.224  0.00  0.00    +0.000 N 
ATOM      4  C   UNL     1       2.096   9.093  18.179  0.00  0.00    +0.000 C 
ATOM      5  C   UNL     1       0.697   9.563  17.784  0.00  0.00    +0.000 C 
ATOM      6  C   UNL     1      -0.075  10.128  19.004  0.00  0.00    +0.000 C 
ATOM      7  C   UNL     1      -0.079   9.061  20.131  0.00  0.00    +0.000 C 
ATOM      8  C   UNL     1       1.331   8.546  20.446  0.00  0.00    +0.000 C 
ATOM      9  C   UNL     1      -1.494  10.511  18.629  0.00  0.00    +0.000 A 
ATOM     10  C   UNL     1      -2.488   9.699  18.090  0.00  0.00    +0.000 A 
ATOM     11  C   UNL     1      -3.750  10.244  17.832  0.00  0.00    +0.000 A 
ATOM     12  C   UNL     1      -4.012  11.592  18.107  0.00  0.00    +0.000 A 
ATOM     13  C   UNL     1      -3.022  12.402  18.659  0.00  0.00    +0.000 A 
ATOM     14  C   UNL     1      -1.775  11.847  18.922  0.00  0.00    +0.000 A 
ATOM     15  C   UNL     1      -0.634  12.540  19.584  0.00  0.00    +0.000 C 
ATOM     16  C   UNL     1       0.503  11.502  19.522  0.00  0.00    +0.000 C 
ENDROOT
BRANCH  16  17
ATOM     17  O   UNL     1       1.543  12.014  18.682  0.00  0.00    +0.000 OA
ATOM     18  H   UNL     1       1.453  12.985  18.655  0.00  0.00    +0.000 HD
ENDBRANCH  16  17
BRANCH   2  19
ATOM     19  C   UNL     1       2.957   6.280  17.780  0.00  0.00    +0.000 C 
BRANCH  19  20
ATOM     20  S   UNL     1       4.140   4.901  17.988  0.00  0.00    +0.000 S 
BRANCH  20  21
ATOM     21  C   UNL     1       5.708   5.740  18.177  0.00  0.00    +0.000 A 
ATOM     22  C   UNL     1       6.536   5.313  19.214  0.00  0.00    +0.000 A 
ATOM     23  C   UNL     1       7.774   5.912  19.375  0.00  0.00    +0.000 A 
ATOM     24  N   UNL     1       8.236   6.896  18.577  0.00  0.00    +0.000 NA
ATOM     25  C   UNL     1       7.426   7.286  17.572  0.00  0.00    +0.000 A 
ATOM     26  C   UNL     1       6.171   6.746  17.331  0.00  0.00    +0.000 A 
ENDBRANCH  20  21
ENDBRANCH  19  20
ENDBRANCH   2  19
TORSDOF 4
ENDMDL
MODEL 6
REMARK VINA RESULT:      -6.9      0.853      1.158
REMARK  Name = 
REMARK  4 active torsions:
REMARK  status: ('A' for Active; 'I' for Inactive)
REMARK    1  A    between atoms: C_2  and  C_3
REMARK    2  A    between atoms: C_3  and  S_4
REMARK    3  A    between atoms: S_4  and  C_5
REMARK    4  A    between atoms: C_24  and  O_25
REMARK                            x       y       z     vdW  Elec       q    Type
REMARK                         _______ _______ _______ _____ _____    ______ ____
ROOT
ATOM      1  O   UNL     1       2.179   6.496  20.889  0.00  0.00    +0.000 OA
ATOM      2  C   UNL     1       2.251   7.053  19.791  0.00  0.00    +0.000 C 
ATOM      3  N   UNL     1       1.773   8.351  19.617  0.00  0.00    +0.000 N 
ATOM      4  C   UNL     1       1.897   9.160  18.408  0.00  0.00    +0.000 C 
ATOM      5  C   UNL     1       0.504   9.481  17.869  0.00  0.00    +0.000 C 
ATOM      6  C   UNL     1      -0.353  10.223  18.927  0.00  0.00    +0.000 C 
ATOM      7  C   UNL     1      -0.376   9.383  20.231  0.00  0.00    +0.000 C 
ATOM      8  C   UNL     1       1.035   9.004  20.700  0.00  0.00    +0.000 C 
ATOM      9  C   UNL     1      -1.764  10.462  18.423  0.00  0.00    +0.000 A 
ATOM     10  C   UNL     1      -2.695   9.518  18.000  0.00  0.00    +0.000 A 
ATOM     11  C   UNL     1      -3.962   9.944  17.589  0.00  0.00    +0.000 A 
ATOM     12  C   UNL     1      -4.291  11.305  17.596  0.00  0.00    +0.000 A 
ATOM     13  C   UNL     1      -3.364  12.250  18.031  0.00  0.00    +0.000 A 
ATOM     14  C   UNL     1      -2.113  11.814  18.449  0.00  0.00    +0.000 A 
ATOM     15  C   UNL     1      -1.036  12.671  19.021  0.00  0.00    +0.000 C 
ATOM     16  C   UNL     1       0.142  11.695  19.205  0.00  0.00    +0.000 C 
ENDROOT
BRANCH  16  17
ATOM     17  O   UNL     1       1.205  12.094  18.331  0.00  0.00    +0.000 OA
ATOM     18  H   UNL     1       0.817  12.279  17.456  0.00  0.00    +0.000 HD
ENDBRANCH  16  17
BRANCH   2  19
ATOM     19  C   UNL     1       2.888   6.366  18.579  0.00  0.00    +0.000 C 
BRANCH  19  20
ATOM     20  S   UNL     1       4.296   5.312  19.076  0.00  0.00    +0.000 S 
BRANCH  20  21
ATOM     21  C   UNL     1       5.290   5.241  17.591  0.00  0.00    +0.000 A 
ATOM     22  C   UNL     1       4.802   5.908  16.468  0.00  0.00    +0.000 A 
ATOM     23  C   UNL     1       5.556   5.907  15.307  0.00  0.00    +0.000 A 
ATOM     24  N   UNL     1       6.752   5.295  15.194  0.00  0.00    +0.000 NA
ATOM     25  C   UNL     1       7.213   4.667  16.295  0.00  0.00    +0.000 A 
ATOM     26  C   UNL     1       6.532   4.614  17.502  0.00  0.00    +0.000 A 
ENDBRANCH  20  21
ENDBRANCH  19  20
ENDBRANCH   2  19
TORSDOF 4
ENDMDL
MODEL 7
REMARK VINA RESULT:      -6.9      2.454      3.020
REMARK  Name = 
REMARK  4 active torsions:
REMARK  status: ('A' for Active; 'I' for Inactive)
REMARK    1  A    between atoms: C_2  and  C_3
REMARK    2  A    between atoms: C_3  and  S_4
REMARK    3  A    between atoms: S_4  and  C_5
REMARK    4  A    between atoms: C_24  and  O_25
REMARK                            x       y       z     vdW  Elec       q    Type
REMARK                         _______ _______ _______ _____ _____    ______ ____
ROOT
ATOM      1  O   UNL     1       2.369   6.432  20.653  0.00  0.00    +0.000 OA
ATOM      2  C   UNL     1       2.373   6.962  19.540  0.00  0.00    +0.000 C 
ATOM      3  N   UNL     1       1.917   8.269  19.370  0.00  0.00    +0.000 N 
ATOM      4  C   UNL     1       1.970   9.046  18.135  0.00  0.00    +0.000 C 
ATOM      5  C   UNL     1       0.549   9.393  17.695  0.00  0.00    +0.000 C 
ATOM      6  C   UNL     1      -0.206  10.183  18.795  0.00  0.00    +0.000 C 
ATOM      7  C   UNL     1      -0.152   9.373  20.118  0.00  0.00    +0.000 C 
ATOM      8  C   UNL     1       1.280   8.966  20.488  0.00  0.00    +0.000 C 
ATOM      9  C   UNL     1      -1.645  10.449  18.393  0.00  0.00    +0.000 A 
ATOM     10  C   UNL     1      -2.629   9.521  18.065  0.00  0.00    +0.000 A 
ATOM     11  C   UNL     1      -3.912   9.973  17.739  0.00  0.00    +0.000 A 
ATOM     12  C   UNL     1      -4.204  11.343  17.737  0.00  0.00    +0.000 A 
ATOM     13  C   UNL     1      -3.223  12.271  18.078  0.00  0.00    +0.000 A 
ATOM     14  C   UNL     1      -1.955  11.810  18.412  0.00  0.00    +0.000 A 
ATOM     15  C   UNL     1      -0.817  12.650  18.880  0.00  0.00    +0.000 C 
ATOM     16  C   UNL     1       0.347  11.646  18.999  0.00  0.00    +0.000 C 
ENDROOT
BRANCH  16  17
ATOM     17  O   UNL     1       1.350  11.995  18.039  0.00  0.00    +0.000 OA
ATOM     18  H   UNL     1       1.108  11.580  17.191  0.00  0.00    +0.000 HD
ENDBRANCH  16  17
BRANCH   2  19
ATOM     19  C   UNL     1       2.898   6.231  18.300  0.00  0.00    +0.000 C 
BRANCH  19  20
ATOM     20  S   UNL     1       1.933   4.715  17.963  0.00  0.00    +0.000 S 
BRANCH  20  21
ATOM     21  C   UNL     1       2.167   3.749  19.449  0.00  0.00    +0.000 A 
ATOM     22  C   UNL     1       3.454   3.275  19.703  0.00  0.00    +0.000 A 
ATOM     23  C   UNL     1       3.687   2.552  20.860  0.00  0.00    +0.000 A 
ATOM     24  N   UNL     1       2.733   2.276  21.772  0.00  0.00    +0.000 NA
ATOM     25  C   UNL     1       1.498   2.753  21.516  0.00  0.00    +0.000 A 
ATOM     26  C   UNL     1       1.169   3.488  20.386  0.00  0.00    +0.000 A 
ENDBRANCH  20  21
ENDBRANCH  19  20
ENDBRANCH   2  19
TORSDOF 4
ENDMDL
MODEL 8
REMARK VINA RESULT:      -6.7      5.269      6.929
REMARK  Name = 
REMARK  4 active torsions:
REMARK  status: ('A' for Active; 'I' for Inactive)
REMARK    1  A    between atoms: C_2  and  C_3
REMARK    2  A    between atoms: C_3  and  S_4
REMARK    3  A    between atoms: S_4  and  C_5
REMARK    4  A    between atoms: C_24  and  O_25
REMARK                            x       y       z     vdW  Elec       q    Type
REMARK                         _______ _______ _______ _____ _____    ______ ____
ROOT
ATOM      1  O   UNL     1       7.906   4.458  15.982  0.00  0.00    +0.000 OA
ATOM      2  C   UNL     1       6.852   5.048  15.739  0.00  0.00    +0.000 C 
ATOM      3  N   UNL     1       5.970   5.386  16.764  0.00  0.00    +0.000 N 
ATOM      4  C   UNL     1       4.751   6.177  16.626  0.00  0.00    +0.000 C 
ATOM      5  C   UNL     1       3.547   5.323  17.021  0.00  0.00    +0.000 C 
ATOM      6  C   UNL     1       3.681   4.791  18.470  0.00  0.00    +0.000 C 
ATOM      7  C   UNL     1       5.036   4.046  18.606  0.00  0.00    +0.000 C 
ATOM      8  C   UNL     1       6.216   4.898  18.122  0.00  0.00    +0.000 C 
ATOM      9  C   UNL     1       2.530   3.870  18.828  0.00  0.00    +0.000 A 
ATOM     10  C   UNL     1       2.141   2.695  18.192  0.00  0.00    +0.000 A 
ATOM     11  C   UNL     1       1.054   1.973  18.696  0.00  0.00    +0.000 A 
ATOM     12  C   UNL     1       0.360   2.428  19.823  0.00  0.00    +0.000 A 
ATOM     13  C   UNL     1       0.756   3.597  20.468  0.00  0.00    +0.000 A 
ATOM     14  C   UNL     1       1.845   4.300  19.967  0.00  0.00    +0.000 A 
ATOM     15  C   UNL     1       2.454   5.516  20.576  0.00  0.00    +0.000 C 
ATOM     16  C   UNL     1       3.541   5.921  19.562  0.00  0.00    +0.000 C 
ENDROOT
BRANCH  16  17
ATOM     17  O   UNL     1       3.189   7.190  18.999  0.00  0.00    +0.000 OA
ATOM     18  H   UNL     1       2.800   7.733  19.709  0.00  0.00    +0.000 HD
ENDBRANCH  16  17
BRANCH   2  19
ATOM     19  C   UNL     1       6.470   5.462  14.314  0.00  0.00    +0.000 C 
BRANCH  19  20
ATOM     20  S   UNL     1       7.699   4.871  13.097  0.00  0.00    +0.000 S 
BRANCH  20  21
ATOM     21  C   UNL     1       6.838   3.541  12.268  0.00  0.00    +0.000 A 
ATOM     22  C   UNL     1       5.445   3.605  12.243  0.00  0.00    +0.000 A 
ATOM     23  C   UNL     1       4.740   2.614  11.582  0.00  0.00    +0.000 A 
ATOM     24  N   UNL     1       5.325   1.577  10.949  0.00  0.00    +0.000 NA
ATOM     25  C   UNL     1       6.673   1.540  10.973  0.00  0.00    +0.000 A 
ATOM     26  C   UNL     1       7.465   2.486  11.607  0.00  0.00    +0.000 A 
ENDBRANCH  20  21
ENDBRANCH  19  20
ENDBRANCH   2  19
TORSDOF 4
ENDMDL
MODEL 9
REMARK VINA RESULT:      -6.7      5.494      8.055
REMARK  Name = 
REMARK  4 active torsions:
REMARK  status: ('A' for Active; 'I' for Inactive)
REMARK    1  A    between atoms: C_2  and  C_3
REMARK    2  A    between atoms: C_3  and  S_4
REMARK    3  A    between atoms: S_4  and  C_5
REMARK    4  A    between atoms: C_24  and  O_25
REMARK                            x       y       z     vdW  Elec       q    Type
REMARK                         _______ _______ _______ _____ _____    ______ ____
ROOT
ATOM      1  O   UNL     1       7.436   9.710  17.124  0.00  0.00    +0.000 OA
ATOM      2  C   UNL     1       7.724   8.675  17.730  0.00  0.00    +0.000 C 
ATOM      3  N   UNL     1       7.052   7.483  17.465  0.00  0.00    +0.000 N 
ATOM      4  C   UNL     1       7.368   6.173  18.028  0.00  0.00    +0.000 C 
ATOM      5  C   UNL     1       6.179   5.674  18.847  0.00  0.00    +0.000 C 
ATOM      6  C   UNL     1       4.893   5.593  17.985  0.00  0.00    +0.000 C 
ATOM      7  C   UNL     1       4.648   6.975  17.321  0.00  0.00    +0.000 C 
ATOM      8  C   UNL     1       5.888   7.487  16.578  0.00  0.00    +0.000 C 
ATOM      9  C   UNL     1       3.695   5.184  18.821  0.00  0.00    +0.000 A 
ATOM     10  C   UNL     1       3.174   5.822  19.943  0.00  0.00    +0.000 A 
ATOM     11  C   UNL     1       2.038   5.291  20.564  0.00  0.00    +0.000 A 
ATOM     12  C   UNL     1       1.434   4.130  20.069  0.00  0.00    +0.000 A 
ATOM     13  C   UNL     1       1.947   3.499  18.938  0.00  0.00    +0.000 A 
ATOM     14  C   UNL     1       3.068   4.041  18.321  0.00  0.00    +0.000 A 
ATOM     15  C   UNL     1       3.695   3.548  17.062  0.00  0.00    +0.000 C 
ATOM     16  C   UNL     1       4.941   4.443  16.907  0.00  0.00    +0.000 C 
ENDROOT
BRANCH  16  17
ATOM     17  O   UNL     1       6.108   3.623  17.026  0.00  0.00    +0.000 OA
ATOM     18  H   UNL     1       5.971   3.017  17.778  0.00  0.00    +0.000 HD
ENDBRANCH  16  17
BRANCH   2  19
ATOM     19  C   UNL     1       8.843   8.639  18.776  0.00  0.00    +0.000 C 
BRANCH  19  20
ATOM     20  S   UNL     1       8.871  10.171  19.773  0.00  0.00    +0.000 S 
BRANCH  20  21
ATOM     21  C   UNL     1       9.889  11.269  18.797  0.00  0.00    +0.000 A 
ATOM     22  C   UNL     1       9.245  12.317  18.140  0.00  0.00    +0.000 A 
ATOM     23  C   UNL     1      10.000  13.212  17.401  0.00  0.00    +0.000 A 
ATOM     24  N   UNL     1      11.341  13.132  17.277  0.00  0.00    +0.000 NA
ATOM     25  C   UNL     1      11.947  12.119  17.929  0.00  0.00    +0.000 A 
ATOM     26  C   UNL     1      11.276  11.176  18.694  0.00  0.00    +0.000 A 
ENDBRANCH  20  21
ENDBRANCH  19  20
ENDBRANCH   2  19
TORSDOF 4
ENDMDL
