MODEL 1
REMARK VINA RESULT:      -7.7      0.000      0.000
REMARK  Name = 
REMARK  3 active torsions:
REMARK  status: ('A' for Active; 'I' for Inactive)
REMARK    1  A    between atoms: C_2  and  C_3
REMARK    2  A    between atoms: C_4  and  C_5
REMARK    3  A    between atoms: C_17  and  C_18
REMARK                            x       y       z     vdW  Elec       q    Type
REMARK                         _______ _______ _______ _____ _____    ______ ____
ROOT
ATOM      1  C   UNL     1       3.738   5.119  19.112  0.00  0.00    +0.000 A 
ATOM      2  C   UNL     1       4.010   5.831  17.918  0.00  0.00    +0.000 A 
ATOM      3  N   UNL     1       3.404   7.091  17.754  0.00  0.00    +0.000 N 
ATOM      4  O   UNL     1       3.583   7.787  16.696  0.00  0.00    +0.000 OA
ATOM      5  C   UNL     1       2.556   7.621  18.762  0.00  0.00    +0.000 A 
ATOM      6  C   UNL     1       1.960   8.899  18.635  0.00  0.00    +0.000 A 
ATOM      7  C   UNL     1       1.104   9.412  19.614  0.00  0.00    +0.000 A 
ATOM      8  C   UNL     1       0.809   8.665  20.755  0.00  0.00    +0.000 A 
ATOM      9  C   UNL     1       1.408   7.405  20.901  0.00  0.00    +0.000 A 
ATOM     10  C   UNL     1       2.284   6.875  19.922  0.00  0.00    +0.000 A 
ATOM     11  N   UNL     1       2.879   5.613  20.085  0.00  0.00    +0.000 N 
ATOM     12  O   UNL     1       2.625   4.938  21.139  0.00  0.00    +0.000 OA
ENDROOT
BRANCH   2  13
ATOM     13  C   UNL     1       4.920   5.321  16.843  0.00  0.00    +0.000 A 
ATOM     14  C   UNL     1       6.276   5.711  16.766  0.00  0.00    +0.000 A 
ATOM     15  C   UNL     1       7.101   5.315  15.706  0.00  0.00    +0.000 A 
ATOM     16  C   UNL     1       6.606   4.464  14.732  0.00  0.00    +0.000 A 
ATOM     17  F   UNL     1       7.396   4.079  13.723  0.00  0.00    +0.000 F 
ATOM     18  C   UNL     1       5.301   4.007  14.799  0.00  0.00    +0.000 A 
ATOM     19  C   UNL     1       4.464   4.448  15.833  0.00  0.00    +0.000 A 
ENDBRANCH   2  13
BRANCH   8  20
ATOM     20  C   UNL     1      -0.136   9.179  21.822  0.00  0.00    +0.000 C 
ATOM     21  F   UNL     1       0.496   9.538  22.973  0.00  0.00    +0.000 F 
ATOM     22  F   UNL     1      -0.824  10.276  21.411  0.00  0.00    +0.000 F 
ATOM     23  F   UNL     1      -1.068   8.255  22.177  0.00  0.00    +0.000 F 
ENDBRANCH   8  20
BRANCH   1  25
ATOM     24  N   UNL     1       4.848   2.851  19.695  0.00  0.00    +0.000 NA
ATOM     25  C   UNL     1       4.327   3.849  19.412  0.00  0.00    +0.000 C 
ENDBRANCH   1  25
TORSDOF 3
ENDMDL
MODEL 2
REMARK VINA RESULT:      -7.5      0.139      1.225
REMARK  Name = 
REMARK  3 active torsions:
REMARK  status: ('A' for Active; 'I' for Inactive)
REMARK    1  A    between atoms: C_2  and  C_3
REMARK    2  A    between atoms: C_4  and  C_5
REMARK    3  A    between atoms: C_17  and  C_18
REMARK                            x       y       z     vdW  Elec       q    Type
REMARK                         _______ _______ _______ _____ _____    ______ ____
ROOT
ATOM      1  C   UNL     1       3.676   5.202  19.107  0.00  0.00    +0.000 A 
ATOM      2  C   UNL     1       3.929   5.938  17.924  0.00  0.00    +0.000 A 
ATOM      3  N   UNL     1       3.314   7.198  17.792  0.00  0.00    +0.000 N 
ATOM      4  O   UNL     1       3.475   7.915  16.746  0.00  0.00    +0.000 OA
ATOM      5  C   UNL     1       2.478   7.704  18.822  0.00  0.00    +0.000 A 
ATOM      6  C   UNL     1       1.874   8.981  18.727  0.00  0.00    +0.000 A 
ATOM      7  C   UNL     1       1.029   9.471  19.728  0.00  0.00    +0.000 A 
ATOM      8  C   UNL     1       0.753   8.701  20.859  0.00  0.00    +0.000 A 
ATOM      9  C   UNL     1       1.360   7.442  20.972  0.00  0.00    +0.000 A 
ATOM     10  C   UNL     1       2.225   6.935  19.971  0.00  0.00    +0.000 A 
ATOM     11  N   UNL     1       2.828   5.673  20.101  0.00  0.00    +0.000 N 
ATOM     12  O   UNL     1       2.592   4.977  21.146  0.00  0.00    +0.000 OA
ENDROOT
BRANCH   2  13
ATOM     13  C   UNL     1       4.826   5.453  16.826  0.00  0.00    +0.000 A 
ATOM     14  C   UNL     1       4.396   4.497  15.879  0.00  0.00    +0.000 A 
ATOM     15  C   UNL     1       5.264   3.969  14.915  0.00  0.00    +0.000 A 
ATOM     16  C   UNL     1       6.565   4.436  14.834  0.00  0.00    +0.000 A 
ATOM     17  F   UNL     1       7.393   3.937  13.907  0.00  0.00    +0.000 F 
ATOM     18  C   UNL     1       7.013   5.417  15.702  0.00  0.00    +0.000 A 
ATOM     19  C   UNL     1       6.157   5.904  16.698  0.00  0.00    +0.000 A 
ENDBRANCH   2  13
BRANCH   8  20
ATOM     20  C   UNL     1      -0.179   9.190  21.948  0.00  0.00    +0.000 C 
ATOM     21  F   UNL     1      -0.876  10.306  21.600  0.00  0.00    +0.000 F 
ATOM     22  F   UNL     1      -1.105   8.256  22.287  0.00  0.00    +0.000 F 
ATOM     23  F   UNL     1       0.484   9.502  23.094  0.00  0.00    +0.000 F 
ENDBRANCH   8  20
BRANCH   1  25
ATOM     24  N   UNL     1       4.802   2.929  19.635  0.00  0.00    +0.000 NA
ATOM     25  C   UNL     1       4.276   3.930  19.375  0.00  0.00    +0.000 C 
ENDBRANCH   1  25
TORSDOF 3
ENDMDL
MODEL 3
REMARK VINA RESULT:      -6.9      3.676      8.128
REMARK  Name = 
REMARK  3 active torsions:
REMARK  status: ('A' for Active; 'I' for Inactive)
REMARK    1  A    between atoms: C_2  and  C_3
REMARK    2  A    between atoms: C_4  and  C_5
REMARK    3  A    between atoms: C_17  and  C_18
REMARK                            x       y       z     vdW  Elec       q    Type
REMARK                         _______ _______ _______ _____ _____    ______ ____
ROOT
ATOM      1  C   UNL     1       6.111   4.776  18.107  0.00  0.00    +0.000 A 
ATOM      2  C   UNL     1       4.820   4.199  18.039  0.00  0.00    +0.000 A 
ATOM      3  N   UNL     1       4.335   3.827  16.770  0.00  0.00    +0.000 N 
ATOM      4  O   UNL     1       3.171   3.319  16.622  0.00  0.00    +0.000 OA
ATOM      5  C   UNL     1       5.128   4.021  15.609  0.00  0.00    +0.000 A 
ATOM      6  C   UNL     1       4.676   3.626  14.327  0.00  0.00    +0.000 A 
ATOM      7  C   UNL     1       5.444   3.841  13.178  0.00  0.00    +0.000 A 
ATOM      8  C   UNL     1       6.690   4.462  13.268  0.00  0.00    +0.000 A 
ATOM      9  C   UNL     1       7.156   4.841  14.535  0.00  0.00    +0.000 A 
ATOM     10  C   UNL     1       6.394   4.623  15.710  0.00  0.00    +0.000 A 
ATOM     11  N   UNL     1       6.877   5.006  16.971  0.00  0.00    +0.000 N 
ATOM     12  O   UNL     1       8.027   5.556  17.056  0.00  0.00    +0.000 OA
ENDROOT
BRANCH   2  13
ATOM     13  C   UNL     1       3.963   3.951  19.242  0.00  0.00    +0.000 A 
ATOM     14  C   UNL     1       3.982   2.717  19.930  0.00  0.00    +0.000 A 
ATOM     15  C   UNL     1       3.110   2.448  20.992  0.00  0.00    +0.000 A 
ATOM     16  C   UNL     1       2.244   3.433  21.435  0.00  0.00    +0.000 A 
ATOM     17  F   UNL     1       1.416   3.180  22.456  0.00  0.00    +0.000 F 
ATOM     18  C   UNL     1       2.233   4.679  20.831  0.00  0.00    +0.000 A 
ATOM     19  C   UNL     1       3.069   4.925  19.735  0.00  0.00    +0.000 A 
ENDBRANCH   2  13
BRANCH   8  20
ATOM     20  C   UNL     1       7.535   4.734  12.040  0.00  0.00    +0.000 C 
ATOM     21  F   UNL     1       8.021   3.603  11.460  0.00  0.00    +0.000 F 
ATOM     22  F   UNL     1       6.838   5.386  11.073  0.00  0.00    +0.000 F 
ATOM     23  F   UNL     1       8.617   5.510  12.319  0.00  0.00    +0.000 F 
ENDBRANCH   8  20
BRANCH   1  25
ATOM     24  N   UNL     1       7.287   5.442  20.318  0.00  0.00    +0.000 NA
ATOM     25  C   UNL     1       6.729   5.157  19.342  0.00  0.00    +0.000 C 
ENDBRANCH   1  25
TORSDOF 3
ENDMDL
MODEL 4
REMARK VINA RESULT:      -6.9      2.915      7.498
REMARK  Name = 
REMARK  3 active torsions:
REMARK  status: ('A' for Active; 'I' for Inactive)
REMARK    1  A    between atoms: C_2  and  C_3
REMARK    2  A    between atoms: C_4  and  C_5
REMARK    3  A    between atoms: C_17  and  C_18
REMARK                            x       y       z     vdW  Elec       q    Type
REMARK                         _______ _______ _______ _____ _____    ______ ____
ROOT
ATOM      1  C   UNL     1       1.027   8.266  20.389  0.00  0.00    +0.000 A 
ATOM      2  C   UNL     1       1.190   9.291  19.425  0.00  0.00    +0.000 A 
ATOM      3  N   UNL     1       2.077   9.051  18.358  0.00  0.00    +0.000 N 
ATOM      4  O   UNL     1       2.295   9.933  17.458  0.00  0.00    +0.000 OA
ATOM      5  C   UNL     1       2.773   7.817  18.261  0.00  0.00    +0.000 A 
ATOM      6  C   UNL     1       3.646   7.540  17.182  0.00  0.00    +0.000 A 
ATOM      7  C   UNL     1       4.352   6.336  17.098  0.00  0.00    +0.000 A 
ATOM      8  C   UNL     1       4.215   5.366  18.092  0.00  0.00    +0.000 A 
ATOM      9  C   UNL     1       3.338   5.622  19.157  0.00  0.00    +0.000 A 
ATOM     10  C   UNL     1       2.609   6.833  19.252  0.00  0.00    +0.000 A 
ATOM     11  N   UNL     1       1.733   7.073  20.323  0.00  0.00    +0.000 N 
ATOM     12  O   UNL     1       1.591   6.176  21.222  0.00  0.00    +0.000 OA
ENDROOT
BRANCH   2  13
ATOM     13  C   UNL     1       0.455  10.595  19.474  0.00  0.00    +0.000 A 
ATOM     14  C   UNL     1       0.978  11.721  20.148  0.00  0.00    +0.000 A 
ATOM     15  C   UNL     1       0.248  12.910  20.280  0.00  0.00    +0.000 A 
ATOM     16  C   UNL     1      -0.996  13.021  19.683  0.00  0.00    +0.000 A 
ATOM     17  F   UNL     1      -1.691  14.159  19.803  0.00  0.00    +0.000 F 
ATOM     18  C   UNL     1      -1.523  11.964  18.961  0.00  0.00    +0.000 A 
ATOM     19  C   UNL     1      -0.813  10.760  18.876  0.00  0.00    +0.000 A 
ENDBRANCH   2  13
BRANCH   8  20
ATOM     20  C   UNL     1       4.985   4.062  18.046  0.00  0.00    +0.000 C 
ATOM     21  F   UNL     1       6.281   4.216  17.658  0.00  0.00    +0.000 F 
ATOM     22  F   UNL     1       5.024   3.447  19.257  0.00  0.00    +0.000 F 
ATOM     23  F   UNL     1       4.437   3.168  17.181  0.00  0.00    +0.000 F 
ENDBRANCH   8  20
BRANCH   1  25
ATOM     24  N   UNL     1      -0.649   8.503  22.352  0.00  0.00    +0.000 NA
ATOM     25  C   UNL     1       0.123   8.375  21.494  0.00  0.00    +0.000 C 
ENDBRANCH   1  25
TORSDOF 3
ENDMDL
MODEL 5
REMARK VINA RESULT:      -6.8      3.082      7.541
REMARK  Name = 
REMARK  3 active torsions:
REMARK  status: ('A' for Active; 'I' for Inactive)
REMARK    1  A    between atoms: C_2  and  C_3
REMARK    2  A    between atoms: C_4  and  C_5
REMARK    3  A    between atoms: C_17  and  C_18
REMARK                            x       y       z     vdW  Elec       q    Type
REMARK                         _______ _______ _______ _____ _____    ______ ____
ROOT
ATOM      1  C   UNL     1       1.008   8.481  20.444  0.00  0.00    +0.000 A 
ATOM      2  C   UNL     1       1.212   9.469  19.450  0.00  0.00    +0.000 A 
ATOM      3  N   UNL     1       2.065   9.150  18.376  0.00  0.00    +0.000 N 
ATOM      4  O   UNL     1       2.316   9.995  17.449  0.00  0.00    +0.000 OA
ATOM      5  C   UNL     1       2.686   7.876  18.301  0.00  0.00    +0.000 A 
ATOM      6  C   UNL     1       3.522   7.521  17.215  0.00  0.00    +0.000 A 
ATOM      7  C   UNL     1       4.157   6.276  17.152  0.00  0.00    +0.000 A 
ATOM      8  C   UNL     1       3.982   5.342  18.173  0.00  0.00    +0.000 A 
ATOM      9  C   UNL     1       3.141   5.675  19.245  0.00  0.00    +0.000 A 
ATOM     10  C   UNL     1       2.484   6.929  19.320  0.00  0.00    +0.000 A 
ATOM     11  N   UNL     1       1.643   7.247  20.399  0.00  0.00    +0.000 N 
ATOM     12  O   UNL     1       1.466   6.384  21.324  0.00  0.00    +0.000 OA
ENDROOT
BRANCH   2  13
ATOM     13  C   UNL     1       0.554  10.814  19.477  0.00  0.00    +0.000 A 
ATOM     14  C   UNL     1      -0.664  11.062  18.805  0.00  0.00    +0.000 A 
ATOM     15  C   UNL     1      -1.229  12.343  18.746  0.00  0.00    +0.000 A 
ATOM     16  C   UNL     1      -0.622  13.392  19.415  0.00  0.00    +0.000 A 
ATOM     17  F   UNL     1      -1.165  14.615  19.364  0.00  0.00    +0.000 F 
ATOM     18  C   UNL     1       0.541  13.183  20.137  0.00  0.00    +0.000 A 
ATOM     19  C   UNL     1       1.130  11.912  20.150  0.00  0.00    +0.000 A 
ENDBRANCH   2  13
BRANCH   8  20
ATOM     20  C   UNL     1       4.675   3.995  18.149  0.00  0.00    +0.000 C 
ATOM     21  F   UNL     1       3.889   2.993  17.670  0.00  0.00    +0.000 F 
ATOM     22  F   UNL     1       5.789   4.007  17.371  0.00  0.00    +0.000 F 
ATOM     23  F   UNL     1       5.078   3.600  19.386  0.00  0.00    +0.000 F 
ENDBRANCH   8  20
BRANCH   1  25
ATOM     24  N   UNL     1      -0.582   8.888  22.450  0.00  0.00    +0.000 NA
ATOM     25  C   UNL     1       0.131   8.670  21.561  0.00  0.00    +0.000 C 
ENDBRANCH   1  25
TORSDOF 3
ENDMDL
MODEL 6
REMARK VINA RESULT:      -6.8      4.101      7.593
REMARK  Name = 
REMARK  3 active torsions:
REMARK  status: ('A' for Active; 'I' for Inactive)
REMARK    1  A    between atoms: C_2  and  C_3
REMARK    2  A    between atoms: C_4  and  C_5
REMARK    3  A    between atoms: C_17  and  C_18
REMARK                            x       y       z     vdW  Elec       q    Type
REMARK                         _______ _______ _______ _____ _____    ______ ____
ROOT
ATOM      1  C   UNL     1       0.672  10.295  20.939  0.00  0.00    +0.000 A 
ATOM      2  C   UNL     1       1.104  10.823  19.698  0.00  0.00    +0.000 A 
ATOM      3  N   UNL     1       1.700   9.936  18.781  0.00  0.00    +0.000 N 
ATOM      4  O   UNL     1       2.135  10.338  17.648  0.00  0.00    +0.000 OA
ATOM      5  C   UNL     1       1.849   8.561  19.100  0.00  0.00    +0.000 A 
ATOM      6  C   UNL     1       2.416   7.643  18.182  0.00  0.00    +0.000 A 
ATOM      7  C   UNL     1       2.589   6.293  18.504  0.00  0.00    +0.000 A 
ATOM      8  C   UNL     1       2.204   5.811  19.756  0.00  0.00    +0.000 A 
ATOM      9  C   UNL     1       1.625   6.706  20.666  0.00  0.00    +0.000 A 
ATOM     10  C   UNL     1       1.435   8.076  20.353  0.00  0.00    +0.000 A 
ATOM     11  N   UNL     1       0.850   8.959  21.274  0.00  0.00    +0.000 N 
ATOM     12  O   UNL     1       0.480   8.513  22.412  0.00  0.00    +0.000 OA
ENDROOT
BRANCH   2  13
ATOM     13  C   UNL     1       0.940  12.261  19.311  0.00  0.00    +0.000 A 
ATOM     14  C   UNL     1       1.961  13.213  19.527  0.00  0.00    +0.000 A 
ATOM     15  C   UNL     1       1.772  14.574  19.258  0.00  0.00    +0.000 A 
ATOM     16  C   UNL     1       0.579  15.005  18.703  0.00  0.00    +0.000 A 
ATOM     17  F   UNL     1       0.401  16.305  18.439  0.00  0.00    +0.000 F 
ATOM     18  C   UNL     1      -0.428  14.099  18.417  0.00  0.00    +0.000 A 
ATOM     19  C   UNL     1      -0.254  12.746  18.736  0.00  0.00    +0.000 A 
ENDBRANCH   2  13
BRANCH   8  20
ATOM     20  C   UNL     1       2.402   4.361  20.146  0.00  0.00    +0.000 C 
ATOM     21  F   UNL     1       1.451   3.531  19.636  0.00  0.00    +0.000 F 
ATOM     22  F   UNL     1       3.596   3.873  19.719  0.00  0.00    +0.000 F 
ATOM     23  F   UNL     1       2.377   4.180  21.494  0.00  0.00    +0.000 F 
ENDBRANCH   8  20
BRANCH   1  25
ATOM     24  N   UNL     1      -0.462  11.727  22.778  0.00  0.00    +0.000 NA
ATOM     25  C   UNL     1       0.015  11.087  21.935  0.00  0.00    +0.000 C 
ENDBRANCH   1  25
TORSDOF 3
ENDMDL
MODEL 7
REMARK VINA RESULT:      -6.7      3.597      7.453
REMARK  Name = 
REMARK  3 active torsions:
REMARK  status: ('A' for Active; 'I' for Inactive)
REMARK    1  A    between atoms: C_2  and  C_3
REMARK    2  A    between atoms: C_4  and  C_5
REMARK    3  A    between atoms: C_17  and  C_18
REMARK                            x       y       z     vdW  Elec       q    Type
REMARK                         _______ _______ _______ _____ _____    ______ ____
ROOT
ATOM      1  C   UNL     1       0.883   9.389  20.512  0.00  0.00    +0.000 A 
ATOM      2  C   UNL     1       1.209  10.105  19.334  0.00  0.00    +0.000 A 
ATOM      3  N   UNL     1       1.966   9.438  18.351  0.00  0.00    +0.000 N 
ATOM      4  O   UNL     1       2.318  10.021  17.270  0.00  0.00    +0.000 OA
ATOM      5  C   UNL     1       2.374   8.093  18.544  0.00  0.00    +0.000 A 
ATOM      6  C   UNL     1       3.107   7.391  17.557  0.00  0.00    +0.000 A 
ATOM      7  C   UNL     1       3.533   6.073  17.756  0.00  0.00    +0.000 A 
ATOM      8  C   UNL     1       3.245   5.410  18.949  0.00  0.00    +0.000 A 
ATOM      9  C   UNL     1       2.503   6.089  19.927  0.00  0.00    +0.000 A 
ATOM     10  C   UNL     1       2.057   7.421  19.738  0.00  0.00    +0.000 A 
ATOM     11  N   UNL     1       1.312   8.086  20.726  0.00  0.00    +0.000 N 
ATOM     12  O   UNL     1       1.031   7.472  21.810  0.00  0.00    +0.000 OA
ENDROOT
BRANCH   2  13
ATOM     13  C   UNL     1       0.775  11.516  19.079  0.00  0.00    +0.000 A 
ATOM     14  C   UNL     1       1.587  12.620  19.422  0.00  0.00    +0.000 A 
ATOM     15  C   UNL     1       1.141  13.940  19.277  0.00  0.00    +0.000 A 
ATOM     16  C   UNL     1      -0.103  14.187  18.721  0.00  0.00    +0.000 A 
ATOM     17  F   UNL     1      -0.526  15.448  18.575  0.00  0.00    +0.000 F 
ATOM     18  C   UNL     1      -0.909  13.137  18.314  0.00  0.00    +0.000 A 
ATOM     19  C   UNL     1      -0.480  11.818  18.510  0.00  0.00    +0.000 A 
ENDBRANCH   2  13
BRANCH   8  20
ATOM     20  C   UNL     1       3.714   3.993  19.208  0.00  0.00    +0.000 C 
ATOM     21  F   UNL     1       3.533   3.164  18.144  0.00  0.00    +0.000 F 
ATOM     22  F   UNL     1       5.039   3.939  19.507  0.00  0.00    +0.000 F 
ATOM     23  F   UNL     1       3.063   3.415  20.252  0.00  0.00    +0.000 F 
ENDBRANCH   8  20
BRANCH   1  25
ATOM     24  N   UNL     1      -0.545  10.455  22.394  0.00  0.00    +0.000 NA
ATOM     25  C   UNL     1       0.085   9.944  21.564  0.00  0.00    +0.000 C 
ENDBRANCH   1  25
TORSDOF 3
ENDMDL
MODEL 8
REMARK VINA RESULT:      -6.7      3.608      7.528
REMARK  Name = 
REMARK  3 active torsions:
REMARK  status: ('A' for Active; 'I' for Inactive)
REMARK    1  A    between atoms: C_2  and  C_3
REMARK    2  A    between atoms: C_4  and  C_5
REMARK    3  A    between atoms: C_17  and  C_18
REMARK                            x       y       z     vdW  Elec       q    Type
REMARK                         _______ _______ _______ _____ _____    ______ ____
ROOT
ATOM      1  C   UNL     1       0.855   9.399  20.575  0.00  0.00    +0.000 A 
ATOM      2  C   UNL     1       1.174  10.155  19.421  0.00  0.00    +0.000 A 
ATOM      3  N   UNL     1       1.939   9.527  18.419  0.00  0.00    +0.000 N 
ATOM      4  O   UNL     1       2.286  10.147  17.356  0.00  0.00    +0.000 OA
ATOM      5  C   UNL     1       2.363   8.181  18.571  0.00  0.00    +0.000 A 
ATOM      6  C   UNL     1       3.105   7.518  17.564  0.00  0.00    +0.000 A 
ATOM      7  C   UNL     1       3.546   6.200  17.722  0.00  0.00    +0.000 A 
ATOM      8  C   UNL     1       3.264   5.497  18.895  0.00  0.00    +0.000 A 
ATOM      9  C   UNL     1       2.514   6.137  19.891  0.00  0.00    +0.000 A 
ATOM     10  C   UNL     1       2.052   7.469  19.743  0.00  0.00    +0.000 A 
ATOM     11  N   UNL     1       1.299   8.095  20.750  0.00  0.00    +0.000 N 
ATOM     12  O   UNL     1       1.023   7.445  21.814  0.00  0.00    +0.000 OA
ENDROOT
BRANCH   2  13
ATOM     13  C   UNL     1       0.724  11.567  19.208  0.00  0.00    +0.000 A 
ATOM     14  C   UNL     1      -0.522  11.872  18.616  0.00  0.00    +0.000 A 
ATOM     15  C   UNL     1      -0.901  13.189  18.325  0.00  0.00    +0.000 A 
ATOM     16  C   UNL     1      -0.069  14.237  18.683  0.00  0.00    +0.000 A 
ATOM     17  F   UNL     1      -0.434  15.496  18.413  0.00  0.00    +0.000 F 
ATOM     18  C   UNL     1       1.134  13.990  19.322  0.00  0.00    +0.000 A 
ATOM     19  C   UNL     1       1.532  12.669  19.562  0.00  0.00    +0.000 A 
ENDBRANCH   2  13
BRANCH   8  20
ATOM     20  C   UNL     1       3.749   4.079  19.110  0.00  0.00    +0.000 C 
ATOM     21  F   UNL     1       3.286   3.520  20.261  0.00  0.00    +0.000 F 
ATOM     22  F   UNL     1       3.365   3.248  18.105  0.00  0.00    +0.000 F 
ATOM     23  F   UNL     1       5.106   4.000  19.171  0.00  0.00    +0.000 F 
ENDBRANCH   8  20
BRANCH   1  25
ATOM     24  N   UNL     1      -0.548  10.338  22.542  0.00  0.00    +0.000 NA
ATOM     25  C   UNL     1       0.050   9.913  21.642  0.00  0.00    +0.000 C 
ENDBRANCH   1  25
TORSDOF 3
ENDMDL
MODEL 9
REMARK VINA RESULT:      -6.7      4.091      7.666
REMARK  Name = 
REMARK  3 active torsions:
REMARK  status: ('A' for Active; 'I' for Inactive)
REMARK    1  A    between atoms: C_2  and  C_3
REMARK    2  A    between atoms: C_4  and  C_5
REMARK    3  A    between atoms: C_17  and  C_18
REMARK                            x       y       z     vdW  Elec       q    Type
REMARK                         _______ _______ _______ _____ _____    ______ ____
ROOT
ATOM      1  C   UNL     1       0.678  10.319  20.983  0.00  0.00    +0.000 A 
ATOM      2  C   UNL     1       1.095  10.895  19.758  0.00  0.00    +0.000 A 
ATOM      3  N   UNL     1       1.690  10.047  18.805  0.00  0.00    +0.000 N 
ATOM      4  O   UNL     1       2.112  10.493  17.684  0.00  0.00    +0.000 OA
ATOM      5  C   UNL     1       1.852   8.662  19.072  0.00  0.00    +0.000 A 
ATOM      6  C   UNL     1       2.418   7.783  18.118  0.00  0.00    +0.000 A 
ATOM      7  C   UNL     1       2.603   6.423  18.389  0.00  0.00    +0.000 A 
ATOM      8  C   UNL     1       2.233   5.893  19.625  0.00  0.00    +0.000 A 
ATOM      9  C   UNL     1       1.655   6.751  20.572  0.00  0.00    +0.000 A 
ATOM     10  C   UNL     1       1.453   8.129  20.310  0.00  0.00    +0.000 A 
ATOM     11  N   UNL     1       0.869   8.974  21.268  0.00  0.00    +0.000 N 
ATOM     12  O   UNL     1       0.512   8.484  22.393  0.00  0.00    +0.000 OA
ENDROOT
BRANCH   2  13
ATOM     13  C   UNL     1       0.917  12.345  19.425  0.00  0.00    +0.000 A 
ATOM     14  C   UNL     1      -0.267  12.833  18.829  0.00  0.00    +0.000 A 
ATOM     15  C   UNL     1      -0.397  14.168  18.426  0.00  0.00    +0.000 A 
ATOM     16  C   UNL     1       0.632  15.062  18.672  0.00  0.00    +0.000 A 
ATOM     17  F   UNL     1       0.506  16.340  18.293  0.00  0.00    +0.000 F 
ATOM     18  C   UNL     1       1.788  14.642  19.309  0.00  0.00    +0.000 A 
ATOM     19  C   UNL     1       1.933  13.295  19.663  0.00  0.00    +0.000 A 
ENDBRANCH   2  13
BRANCH   8  20
ATOM     20  C   UNL     1       2.445   4.431  19.961  0.00  0.00    +0.000 C 
ATOM     21  F   UNL     1       2.351   4.166  21.293  0.00  0.00    +0.000 F 
ATOM     22  F   UNL     1       1.534   3.629  19.351  0.00  0.00    +0.000 F 
ATOM     23  F   UNL     1       3.669   3.983  19.572  0.00  0.00    +0.000 F 
ENDBRANCH   8  20
BRANCH   1  25
ATOM     24  N   UNL     1      -0.510  11.729  22.805  0.00  0.00    +0.000 NA
ATOM     25  C   UNL     1       0.023  11.070  22.013  0.00  0.00    +0.000 C 
ENDBRANCH   1  25
TORSDOF 3
ENDMDL
