MODEL 1
REMARK VINA RESULT:      -7.2      0.000      0.000
REMARK  Name = 
REMARK  7 active torsions:
REMARK  status: ('A' for Active; 'I' for Inactive)
REMARK    1  A    between atoms: C_6  and  C_7
REMARK    2  A    between atoms: N_13  and  C_14
REMARK    3  A    between atoms: C_14  and  C_15
REMARK    4  A    between atoms: C_15  and  C_16
REMARK    5  A    between atoms: C_16  and  C_17
REMARK    6  A    between atoms: C_17  and  S_18
REMARK    7  A    between atoms: S_18  and  C_19
REMARK                            x       y       z     vdW  Elec       q    Type
REMARK                         _______ _______ _______ _____ _____    ______ ____
ROOT
ATOM      1 CL   UNL     1       1.133  16.765  20.343  0.00  0.00    +0.000 Cl
ATOM      2  C   UNL     1       0.884  15.081  20.024  0.00  0.00    +0.000 A 
ATOM      3  C   UNL     1      -0.204  14.728  19.210  0.00  0.00    +0.000 A 
ATOM      4  C   UNL     1      -0.467  13.368  18.974  0.00  0.00    +0.000 A 
ATOM      5  N   UNL     1      -1.492  12.783  18.265  0.00  0.00    +0.000 NA
ATOM      6  C   UNL     1      -1.362  11.480  18.429  0.00  0.00    +0.000 A 
ATOM      7  N   UNL     1      -0.218  11.197  19.163  0.00  0.00    +0.000 N 
ATOM      8  C   UNL     1       0.355  12.401  19.534  0.00  0.00    +0.000 A 
ATOM      9  C   UNL     1       1.462  12.737  20.332  0.00  0.00    +0.000 A 
ATOM     10  C   UNL     1       1.713  14.096  20.572  0.00  0.00    +0.000 A 
ATOM     11 CL   UNL     1       3.061  14.480  21.590  0.00  0.00    +0.000 Cl
ENDROOT
BRANCH   6  12
ATOM     12  C   UNL     1      -2.356  10.426  17.990  0.00  0.00    +0.000 C 
ATOM     13  C   UNL     1      -2.074   9.869  16.585  0.00  0.00    +0.000 C 
ATOM     14  C   UNL     1      -2.806  10.589  15.456  0.00  0.00    +0.000 C 
ATOM     15  N   UNL     1      -4.230  10.759  15.738  0.00  0.00    +0.000 NA
ATOM     16  C   UNL     1      -4.406  11.560  16.949  0.00  0.00    +0.000 C 
ATOM     17  C   UNL     1      -3.813  10.866  18.169  0.00  0.00    +0.000 C 
ATOM     18  H   UNL     1      -4.673   9.848  15.858  0.00  0.00    +0.000 HD
ENDBRANCH   6  12
BRANCH   7  19
ATOM     19  C   UNL     1       0.178   9.899  19.681  0.00  0.00    +0.000 C 
BRANCH  19  20
ATOM     20  C   UNL     1       0.729   8.880  18.670  0.00  0.00    +0.000 C 
BRANCH  20  21
ATOM     21  C   UNL     1       1.962   9.327  17.879  0.00  0.00    +0.000 C 
BRANCH  21  22
ATOM     22  C   UNL     1       3.031   8.241  17.875  0.00  0.00    +0.000 C 
BRANCH  22  23
ATOM     23  S   UNL     1       2.326   6.589  18.058  0.00  0.00    +0.000 S 
BRANCH  23  24
ATOM     24  C   UNL     1       3.733   5.603  18.409  0.00  0.00    +0.000 A 
ATOM     25  N   UNL     1       4.993   6.090  18.095  0.00  0.00    +0.000 N 
ATOM     26  C   UNL     1       6.129   5.389  18.379  0.00  0.00    +0.000 A 
ATOM     27  N   UNL     1       6.176   4.227  18.945  0.00  0.00    +0.000 NA
ATOM     28  C   UNL     1       4.959   3.712  19.278  0.00  0.00    +0.000 A 
ATOM     29  N   UNL     1       4.735   2.580  19.865  0.00  0.00    +0.000 NA
ATOM     30  C   UNL     1       3.356   2.560  19.971  0.00  0.00    +0.000 A 
ATOM     31  N   UNL     1       2.697   3.580  19.486  0.00  0.00    +0.000 NA
ATOM     32  C   UNL     1       3.687   4.400  19.010  0.00  0.00    +0.000 A 
ATOM     33  H   UNL     1       5.018   7.017  17.689  0.00  0.00    +0.000 HD
ENDBRANCH  23  24
ENDBRANCH  22  23
ENDBRANCH  21  22
ENDBRANCH  20  21
ENDBRANCH  19  20
ENDBRANCH   7  19
TORSDOF 7
ENDMDL
MODEL 2
REMARK VINA RESULT:      -7.2      7.336     10.624
REMARK  Name = 
REMARK  7 active torsions:
REMARK  status: ('A' for Active; 'I' for Inactive)
REMARK    1  A    between atoms: C_6  and  C_7
REMARK    2  A    between atoms: N_13  and  C_14
REMARK    3  A    between atoms: C_14  and  C_15
REMARK    4  A    between atoms: C_15  and  C_16
REMARK    5  A    between atoms: C_16  and  C_17
REMARK    6  A    between atoms: C_17  and  S_18
REMARK    7  A    between atoms: S_18  and  C_19
REMARK                            x       y       z     vdW  Elec       q    Type
REMARK                         _______ _______ _______ _____ _____    ______ ____
ROOT
ATOM      1 CL   UNL     1       6.587   3.556  11.897  0.00  0.00    +0.000 Cl
ATOM      2  C   UNL     1       6.539   4.103  13.540  0.00  0.00    +0.000 A 
ATOM      3  C   UNL     1       5.594   3.514  14.394  0.00  0.00    +0.000 A 
ATOM      4  C   UNL     1       5.491   3.971  15.719  0.00  0.00    +0.000 A 
ATOM      5  N   UNL     1       4.618   3.590  16.713  0.00  0.00    +0.000 NA
ATOM      6  C   UNL     1       4.851   4.388  17.739  0.00  0.00    +0.000 A 
ATOM      7  N   UNL     1       5.923   5.227  17.464  0.00  0.00    +0.000 N 
ATOM      8  C   UNL     1       6.330   4.982  16.164  0.00  0.00    +0.000 A 
ATOM      9  C   UNL     1       7.298   5.567  15.331  0.00  0.00    +0.000 A 
ATOM     10  C   UNL     1       7.388   5.113  14.007  0.00  0.00    +0.000 A 
ATOM     11 CL   UNL     1       8.564   5.878  12.989  0.00  0.00    +0.000 Cl
ENDROOT
BRANCH   6  12
ATOM     12  C   UNL     1       4.021   4.476  19.002  0.00  0.00    +0.000 C 
ATOM     13  C   UNL     1       3.866   3.129  19.725  0.00  0.00    +0.000 C 
ATOM     14  C   UNL     1       2.622   2.336  19.332  0.00  0.00    +0.000 C 
ATOM     15  N   UNL     1       1.411   3.153  19.359  0.00  0.00    +0.000 NA
ATOM     16  C   UNL     1       1.536   4.261  18.413  0.00  0.00    +0.000 C 
ATOM     17  C   UNL     1       2.682   5.191  18.789  0.00  0.00    +0.000 C 
ATOM     18  H   UNL     1       1.258   3.517  20.299  0.00  0.00    +0.000 HD
ENDBRANCH   6  12
BRANCH   7  19
ATOM     19  C   UNL     1       6.377   6.343  18.276  0.00  0.00    +0.000 C 
BRANCH  19  20
ATOM     20  C   UNL     1       7.762   6.927  17.951  0.00  0.00    +0.000 C 
BRANCH  20  21
ATOM     21  C   UNL     1       7.796   8.428  17.646  0.00  0.00    +0.000 C 
BRANCH  21  22
ATOM     22  C   UNL     1       8.636   9.175  18.675  0.00  0.00    +0.000 C 
BRANCH  22  23
ATOM     23  S   UNL     1       9.311  10.715  18.015  0.00  0.00    +0.000 S 
BRANCH  23  24
ATOM     24  C   UNL     1       9.471  11.713  19.448  0.00  0.00    +0.000 A 
ATOM     25  N   UNL     1       9.018  11.227  20.663  0.00  0.00    +0.000 N 
ATOM     26  C   UNL     1       9.150  11.937  21.821  0.00  0.00    +0.000 A 
ATOM     27  N   UNL     1       9.684  13.110  21.928  0.00  0.00    +0.000 NA
ATOM     28  C   UNL     1      10.153  13.626  20.756  0.00  0.00    +0.000 A 
ATOM     29  N   UNL     1      10.741  14.768  20.597  0.00  0.00    +0.000 NA
ATOM     30  C   UNL     1      11.012  14.783  19.240  0.00  0.00    +0.000 A 
ATOM     31  N   UNL     1      10.628  13.752  18.534  0.00  0.00    +0.000 NA
ATOM     32  C   UNL     1      10.051  12.927  19.465  0.00  0.00    +0.000 A 
ATOM     33  H   UNL     1       8.628  10.292  20.646  0.00  0.00    +0.000 HD
ENDBRANCH  23  24
ENDBRANCH  22  23
ENDBRANCH  21  22
ENDBRANCH  20  21
ENDBRANCH  19  20
ENDBRANCH   7  19
TORSDOF 7
ENDMDL
MODEL 3
REMARK VINA RESULT:      -7.2      7.248     10.680
REMARK  Name = 
REMARK  7 active torsions:
REMARK  status: ('A' for Active; 'I' for Inactive)
REMARK    1  A    between atoms: C_6  and  C_7
REMARK    2  A    between atoms: N_13  and  C_14
REMARK    3  A    between atoms: C_14  and  C_15
REMARK    4  A    between atoms: C_15  and  C_16
REMARK    5  A    between atoms: C_16  and  C_17
REMARK    6  A    between atoms: C_17  and  S_18
REMARK    7  A    between atoms: S_18  and  C_19
REMARK                            x       y       z     vdW  Elec       q    Type
REMARK                         _______ _______ _______ _____ _____    ______ ____
ROOT
ATOM      1 CL   UNL     1       5.638   3.649  11.882  0.00  0.00    +0.000 Cl
ATOM      2  C   UNL     1       6.019   4.021  13.530  0.00  0.00    +0.000 A 
ATOM      3  C   UNL     1       5.166   3.516  14.524  0.00  0.00    +0.000 A 
ATOM      4  C   UNL     1       5.415   3.843  15.868  0.00  0.00    +0.000 A 
ATOM      5  N   UNL     1       4.698   3.515  16.997  0.00  0.00    +0.000 NA
ATOM      6  C   UNL     1       5.275   4.149  18.001  0.00  0.00    +0.000 A 
ATOM      7  N   UNL     1       6.411   4.817  17.562  0.00  0.00    +0.000 N 
ATOM      8  C   UNL     1       6.500   4.644  16.192  0.00  0.00    +0.000 A 
ATOM      9  C   UNL     1       7.378   5.138  15.212  0.00  0.00    +0.000 A 
ATOM     10  C   UNL     1       7.118   4.817  13.872  0.00  0.00    +0.000 A 
ATOM     11 CL   UNL     1       8.194   5.472  12.682  0.00  0.00    +0.000 Cl
ENDROOT
BRANCH   6  12
ATOM     12  C   UNL     1       4.742   4.245  19.415  0.00  0.00    +0.000 C 
ATOM     13  C   UNL     1       4.172   2.919  19.943  0.00  0.00    +0.000 C 
ATOM     14  C   UNL     1       2.673   2.737  19.719  0.00  0.00    +0.000 C 
ATOM     15  N   UNL     1       1.903   3.907  20.136  0.00  0.00    +0.000 NA
ATOM     16  C   UNL     1       2.318   5.077  19.363  0.00  0.00    +0.000 C 
ATOM     17  C   UNL     1       3.781   5.422  19.612  0.00  0.00    +0.000 C 
ATOM     18  H   UNL     1       2.045   4.081  21.130  0.00  0.00    +0.000 HD
ENDBRANCH   6  12
BRANCH   7  19
ATOM     19  C   UNL     1       7.218   5.748  18.331  0.00  0.00    +0.000 C 
BRANCH  19  20
ATOM     20  C   UNL     1       6.925   7.246  18.147  0.00  0.00    +0.000 C 
BRANCH  20  21
ATOM     21  C   UNL     1       8.038   8.065  17.485  0.00  0.00    +0.000 C 
BRANCH  21  22
ATOM     22  C   UNL     1       8.530   9.169  18.413  0.00  0.00    +0.000 C 
BRANCH  22  23
ATOM     23  S   UNL     1       8.353  10.808  17.676  0.00  0.00    +0.000 S 
BRANCH  23  24
ATOM     24  C   UNL     1       9.241  11.831  18.790  0.00  0.00    +0.000 A 
ATOM     25  N   UNL     1      10.105  11.246  19.701  0.00  0.00    +0.000 N 
ATOM     26  C   UNL     1      10.855  11.989  20.567  0.00  0.00    +0.000 A 
ATOM     27  N   UNL     1      10.849  13.279  20.652  0.00  0.00    +0.000 NA
ATOM     28  C   UNL     1      10.017  13.899  19.768  0.00  0.00    +0.000 A 
ATOM     29  N   UNL     1       9.842  15.176  19.638  0.00  0.00    +0.000 NA
ATOM     30  C   UNL     1       8.920  15.253  18.610  0.00  0.00    +0.000 A 
ATOM     31  N   UNL     1       8.493  14.130  18.094  0.00  0.00    +0.000 NA
ATOM     32  C   UNL     1       9.176  13.175  18.801  0.00  0.00    +0.000 A 
ATOM     33  H   UNL     1      10.182  10.238  19.650  0.00  0.00    +0.000 HD
ENDBRANCH  23  24
ENDBRANCH  22  23
ENDBRANCH  21  22
ENDBRANCH  20  21
ENDBRANCH  19  20
ENDBRANCH   7  19
TORSDOF 7
ENDMDL
MODEL 4
REMARK VINA RESULT:      -7.1      3.093      4.796
REMARK  Name = 
REMARK  7 active torsions:
REMARK  status: ('A' for Active; 'I' for Inactive)
REMARK    1  A    between atoms: C_6  and  C_7
REMARK    2  A    between atoms: N_13  and  C_14
REMARK    3  A    between atoms: C_14  and  C_15
REMARK    4  A    between atoms: C_15  and  C_16
REMARK    5  A    between atoms: C_16  and  C_17
REMARK    6  A    between atoms: C_17  and  S_18
REMARK    7  A    between atoms: S_18  and  C_19
REMARK                            x       y       z     vdW  Elec       q    Type
REMARK                         _______ _______ _______ _____ _____    ______ ____
ROOT
ATOM      1 CL   UNL     1      -5.619  11.844  16.521  0.00  0.00    +0.000 Cl
ATOM      2  C   UNL     1      -4.106  11.572  17.321  0.00  0.00    +0.000 A 
ATOM      3  C   UNL     1      -3.988  12.002  18.652  0.00  0.00    +0.000 A 
ATOM      4  C   UNL     1      -2.759  11.846  19.314  0.00  0.00    +0.000 A 
ATOM      5  N   UNL     1      -2.391  12.233  20.583  0.00  0.00    +0.000 NA
ATOM      6  C   UNL     1      -1.104  11.962  20.696  0.00  0.00    +0.000 A 
ATOM      7  N   UNL     1      -0.642  11.323  19.552  0.00  0.00    +0.000 N 
ATOM      8  C   UNL     1      -1.690  11.260  18.651  0.00  0.00    +0.000 A 
ATOM      9  C   UNL     1      -1.797  10.802  17.327  0.00  0.00    +0.000 A 
ATOM     10  C   UNL     1      -3.024  10.970  16.669  0.00  0.00    +0.000 A 
ATOM     11 CL   UNL     1      -3.117  10.432  15.024  0.00  0.00    +0.000 Cl
ENDROOT
BRANCH   6  12
ATOM     12  C   UNL     1      -0.207  12.373  21.844  0.00  0.00    +0.000 C 
ATOM     13  C   UNL     1      -0.941  12.455  23.192  0.00  0.00    +0.000 C 
ATOM     14  C   UNL     1      -1.493  13.836  23.534  0.00  0.00    +0.000 C 
ATOM     15  N   UNL     1      -0.499  14.892  23.349  0.00  0.00    +0.000 NA
ATOM     16  C   UNL     1      -0.067  14.930  21.952  0.00  0.00    +0.000 C 
ATOM     17  C   UNL     1       0.615  13.631  21.541  0.00  0.00    +0.000 C 
ATOM     18  H   UNL     1       0.304  14.724  23.954  0.00  0.00    +0.000 HD
ENDBRANCH   6  12
BRANCH   7  19
ATOM     19  C   UNL     1       0.741  11.011  19.235  0.00  0.00    +0.000 C 
BRANCH  19  20
ATOM     20  C   UNL     1       1.131   9.524  19.195  0.00  0.00    +0.000 C 
BRANCH  20  21
ATOM     21  C   UNL     1       1.524   8.977  17.819  0.00  0.00    +0.000 C 
BRANCH  21  22
ATOM     22  C   UNL     1       2.783   8.123  17.910  0.00  0.00    +0.000 C 
BRANCH  22  23
ATOM     23  S   UNL     1       2.585   6.737  19.051  0.00  0.00    +0.000 S 
BRANCH  23  24
ATOM     24  C   UNL     1       3.335   5.410  18.183  0.00  0.00    +0.000 A 
ATOM     25  N   UNL     1       4.321   5.687  17.249  0.00  0.00    +0.000 N 
ATOM     26  C   UNL     1       4.971   4.698  16.570  0.00  0.00    +0.000 A 
ATOM     27  N   UNL     1       4.756   3.430  16.697  0.00  0.00    +0.000 NA
ATOM     28  C   UNL     1       3.798   3.109  17.612  0.00  0.00    +0.000 A 
ATOM     29  N   UNL     1       3.408   1.917  17.937  0.00  0.00    +0.000 NA
ATOM     30  C   UNL     1       2.445   2.164  18.899  0.00  0.00    +0.000 A 
ATOM     31  N   UNL     1       2.189   3.412  19.193  0.00  0.00    +0.000 NA
ATOM     32  C   UNL     1       3.050   4.111  18.387  0.00  0.00    +0.000 A 
ATOM     33  H   UNL     1       4.562   6.664  17.139  0.00  0.00    +0.000 HD
ENDBRANCH  23  24
ENDBRANCH  22  23
ENDBRANCH  21  22
ENDBRANCH  20  21
ENDBRANCH  19  20
ENDBRANCH   7  19
TORSDOF 7
ENDMDL
MODEL 5
REMARK VINA RESULT:      -7.0      3.120      5.082
REMARK  Name = 
REMARK  7 active torsions:
REMARK  status: ('A' for Active; 'I' for Inactive)
REMARK    1  A    between atoms: C_6  and  C_7
REMARK    2  A    between atoms: N_13  and  C_14
REMARK    3  A    between atoms: C_14  and  C_15
REMARK    4  A    between atoms: C_15  and  C_16
REMARK    5  A    between atoms: C_16  and  C_17
REMARK    6  A    between atoms: C_17  and  S_18
REMARK    7  A    between atoms: S_18  and  C_19
REMARK                            x       y       z     vdW  Elec       q    Type
REMARK                         _______ _______ _______ _____ _____    ______ ____
ROOT
ATOM      1 CL   UNL     1      -5.832  11.895  16.629  0.00  0.00    +0.000 Cl
ATOM      2  C   UNL     1      -4.291  11.601  17.363  0.00  0.00    +0.000 A 
ATOM      3  C   UNL     1      -4.115  12.016  18.692  0.00  0.00    +0.000 A 
ATOM      4  C   UNL     1      -2.861  11.841  19.302  0.00  0.00    +0.000 A 
ATOM      5  N   UNL     1      -2.437  12.211  20.559  0.00  0.00    +0.000 NA
ATOM      6  C   UNL     1      -1.150  11.927  20.616  0.00  0.00    +0.000 A 
ATOM      7  N   UNL     1      -0.742  11.295  19.448  0.00  0.00    +0.000 N 
ATOM      8  C   UNL     1      -1.826  11.252  18.590  0.00  0.00    +0.000 A 
ATOM      9  C   UNL     1      -1.992  10.809  17.267  0.00  0.00    +0.000 A 
ATOM     10  C   UNL     1      -3.243  10.996  16.661  0.00  0.00    +0.000 A 
ATOM     11 CL   UNL     1      -3.408  10.475  15.016  0.00  0.00    +0.000 Cl
ENDROOT
BRANCH   6  12
ATOM     12  C   UNL     1      -0.202  12.317  21.731  0.00  0.00    +0.000 C 
ATOM     13  C   UNL     1      -0.885  12.411  23.105  0.00  0.00    +0.000 C 
ATOM     14  C   UNL     1      -1.394  13.804  23.468  0.00  0.00    +0.000 C 
ATOM     15  N   UNL     1      -0.386  14.838  23.248  0.00  0.00    +0.000 NA
ATOM     16  C   UNL     1      -0.006  14.870  21.836  0.00  0.00    +0.000 C 
ATOM     17  C   UNL     1       0.633  13.558  21.399  0.00  0.00    +0.000 C 
ATOM     18  H   UNL     1       0.435  14.653  23.823  0.00  0.00    +0.000 HD
ENDBRANCH   6  12
BRANCH   7  19
ATOM     19  C   UNL     1       0.624  10.974  19.071  0.00  0.00    +0.000 C 
BRANCH  19  20
ATOM     20  C   UNL     1       1.010   9.485  19.043  0.00  0.00    +0.000 C 
BRANCH  20  21
ATOM     21  C   UNL     1       1.906   9.053  17.878  0.00  0.00    +0.000 C 
BRANCH  21  22
ATOM     22  C   UNL     1       2.210   7.561  17.947  0.00  0.00    +0.000 C 
BRANCH  22  23
ATOM     23  S   UNL     1       2.478   6.999  19.642  0.00  0.00    +0.000 S 
BRANCH  23  24
ATOM     24  C   UNL     1       2.254   5.264  19.514  0.00  0.00    +0.000 A 
ATOM     25  N   UNL     1       1.247   4.658  20.248  0.00  0.00    +0.000 N 
ATOM     26  C   UNL     1       0.995   3.319  20.162  0.00  0.00    +0.000 A 
ATOM     27  N   UNL     1       1.642   2.477  19.425  0.00  0.00    +0.000 NA
ATOM     28  C   UNL     1       2.639   3.030  18.678  0.00  0.00    +0.000 A 
ATOM     29  N   UNL     1       3.419   2.410  17.851  0.00  0.00    +0.000 NA
ATOM     30  C   UNL     1       4.221   3.429  17.367  0.00  0.00    +0.000 A 
ATOM     31  N   UNL     1       4.017   4.633  17.834  0.00  0.00    +0.000 NA
ATOM     32  C   UNL     1       2.976   4.462  18.710  0.00  0.00    +0.000 A 
ATOM     33  H   UNL     1       0.679   5.278  20.812  0.00  0.00    +0.000 HD
ENDBRANCH  23  24
ENDBRANCH  22  23
ENDBRANCH  21  22
ENDBRANCH  20  21
ENDBRANCH  19  20
ENDBRANCH   7  19
TORSDOF 7
ENDMDL
MODEL 6
REMARK VINA RESULT:      -7.0      6.949     10.543
REMARK  Name = 
REMARK  7 active torsions:
REMARK  status: ('A' for Active; 'I' for Inactive)
REMARK    1  A    between atoms: C_6  and  C_7
REMARK    2  A    between atoms: N_13  and  C_14
REMARK    3  A    between atoms: C_14  and  C_15
REMARK    4  A    between atoms: C_15  and  C_16
REMARK    5  A    between atoms: C_16  and  C_17
REMARK    6  A    between atoms: C_17  and  S_18
REMARK    7  A    between atoms: S_18  and  C_19
REMARK                            x       y       z     vdW  Elec       q    Type
REMARK                         _______ _______ _______ _____ _____    ______ ____
ROOT
ATOM      1 CL   UNL     1       6.523   2.922  11.957  0.00  0.00    +0.000 Cl
ATOM      2  C   UNL     1       6.441   3.835  13.427  0.00  0.00    +0.000 A 
ATOM      3  C   UNL     1       5.586   3.366  14.436  0.00  0.00    +0.000 A 
ATOM      4  C   UNL     1       5.454   4.111  15.621  0.00  0.00    +0.000 A 
ATOM      5  N   UNL     1       4.648   3.885  16.714  0.00  0.00    +0.000 NA
ATOM      6  C   UNL     1       4.806   4.924  17.513  0.00  0.00    +0.000 A 
ATOM      7  N   UNL     1       5.768   5.785  17.003  0.00  0.00    +0.000 N 
ATOM      8  C   UNL     1       6.178   5.284  15.779  0.00  0.00    +0.000 A 
ATOM      9  C   UNL     1       7.056   5.755  14.789  0.00  0.00    +0.000 A 
ATOM     10  C   UNL     1       7.175   5.013  13.606  0.00  0.00    +0.000 A 
ATOM     11 CL   UNL     1       8.237   5.637  12.387  0.00  0.00    +0.000 Cl
ENDROOT
BRANCH   6  12
ATOM     12  C   UNL     1       3.993   5.219  18.756  0.00  0.00    +0.000 C 
ATOM     13  C   UNL     1       4.075   4.109  19.816  0.00  0.00    +0.000 C 
ATOM     14  C   UNL     1       2.974   3.056  19.721  0.00  0.00    +0.000 C 
ATOM     15  N   UNL     1       1.645   3.652  19.606  0.00  0.00    +0.000 NA
ATOM     16  C   UNL     1       1.569   4.469  18.395  0.00  0.00    +0.000 C 
ATOM     17  C   UNL     1       2.551   5.633  18.444  0.00  0.00    +0.000 C 
ATOM     18  H   UNL     1       1.449   4.227  20.424  0.00  0.00    +0.000 HD
ENDBRANCH   6  12
BRANCH   7  19
ATOM     19  C   UNL     1       6.104   7.104  17.509  0.00  0.00    +0.000 C 
BRANCH  19  20
ATOM     20  C   UNL     1       7.580   7.368  17.851  0.00  0.00    +0.000 C 
BRANCH  20  21
ATOM     21  C   UNL     1       8.122   8.742  17.442  0.00  0.00    +0.000 C 
BRANCH  21  22
ATOM     22  C   UNL     1       8.586   9.531  18.660  0.00  0.00    +0.000 C 
BRANCH  22  23
ATOM     23  S   UNL     1       9.875  10.725  18.247  0.00  0.00    +0.000 S 
BRANCH  23  24
ATOM     24  C   UNL     1       9.034  12.260  18.364  0.00  0.00    +0.000 A 
ATOM     25  N   UNL     1       8.036  12.554  17.449  0.00  0.00    +0.000 N 
ATOM     26  C   UNL     1       7.317  13.712  17.511  0.00  0.00    +0.000 A 
ATOM     27  N   UNL     1       7.473  14.649  18.388  0.00  0.00    +0.000 NA
ATOM     28  C   UNL     1       8.440  14.400  19.315  0.00  0.00    +0.000 A 
ATOM     29  N   UNL     1       8.780  15.166  20.302  0.00  0.00    +0.000 NA
ATOM     30  C   UNL     1       9.782  14.440  20.920  0.00  0.00    +0.000 A 
ATOM     31  N   UNL     1      10.108  13.289  20.393  0.00  0.00    +0.000 NA
ATOM     32  C   UNL     1       9.260  13.178  19.322  0.00  0.00    +0.000 A 
ATOM     33  H   UNL     1       7.841  11.834  16.764  0.00  0.00    +0.000 HD
ENDBRANCH  23  24
ENDBRANCH  22  23
ENDBRANCH  21  22
ENDBRANCH  20  21
ENDBRANCH  19  20
ENDBRANCH   7  19
TORSDOF 7
ENDMDL
MODEL 7
REMARK VINA RESULT:      -6.9      5.036      9.099
REMARK  Name = 
REMARK  7 active torsions:
REMARK  status: ('A' for Active; 'I' for Inactive)
REMARK    1  A    between atoms: C_6  and  C_7
REMARK    2  A    between atoms: N_13  and  C_14
REMARK    3  A    between atoms: C_14  and  C_15
REMARK    4  A    between atoms: C_15  and  C_16
REMARK    5  A    between atoms: C_16  and  C_17
REMARK    6  A    between atoms: C_17  and  S_18
REMARK    7  A    between atoms: S_18  and  C_19
REMARK                            x       y       z     vdW  Elec       q    Type
REMARK                         _______ _______ _______ _____ _____    ______ ____
ROOT
ATOM      1 CL   UNL     1       2.457   6.778  20.367  0.00  0.00    +0.000 Cl
ATOM      2  C   UNL     1       1.591   8.229  19.984  0.00  0.00    +0.000 A 
ATOM      3  C   UNL     1       0.882   8.855  21.021  0.00  0.00    +0.000 A 
ATOM      4  C   UNL     1       0.125  10.004  20.734  0.00  0.00    +0.000 A 
ATOM      5  N   UNL     1      -0.685  10.750  21.561  0.00  0.00    +0.000 NA
ATOM      6  C   UNL     1      -1.260  11.659  20.796  0.00  0.00    +0.000 A 
ATOM      7  N   UNL     1      -0.774  11.577  19.498  0.00  0.00    +0.000 N 
ATOM      8  C   UNL     1       0.101  10.506  19.441  0.00  0.00    +0.000 A 
ATOM      9  C   UNL     1       0.824   9.906  18.397  0.00  0.00    +0.000 A 
ATOM     10  C   UNL     1       1.569   8.754  18.688  0.00  0.00    +0.000 A 
ATOM     11 CL   UNL     1       2.420   8.013  17.373  0.00  0.00    +0.000 Cl
ENDROOT
BRANCH   6  12
ATOM     12  C   UNL     1      -2.372  12.597  21.216  0.00  0.00    +0.000 C 
ATOM     13  C   UNL     1      -2.163  14.042  20.736  0.00  0.00    +0.000 C 
ATOM     14  C   UNL     1      -1.443  14.946  21.733  0.00  0.00    +0.000 C 
ATOM     15  N   UNL     1      -2.013  14.857  23.075  0.00  0.00    +0.000 NA
ATOM     16  C   UNL     1      -1.902  13.487  23.573  0.00  0.00    +0.000 C 
ATOM     17  C   UNL     1      -2.695  12.512  22.711  0.00  0.00    +0.000 C 
ATOM     18  H   UNL     1      -2.993  15.140  23.057  0.00  0.00    +0.000 HD
ENDBRANCH   6  12
BRANCH   7  19
ATOM     19  C   UNL     1      -1.275  12.297  18.340  0.00  0.00    +0.000 C 
BRANCH  19  20
ATOM     20  C   UNL     1      -2.206  11.529  17.387  0.00  0.00    +0.000 C 
BRANCH  20  21
ATOM     21  C   UNL     1      -3.496  10.987  18.010  0.00  0.00    +0.000 C 
BRANCH  21  22
ATOM     22  C   UNL     1      -4.692  11.244  17.101  0.00  0.00    +0.000 C 
BRANCH  22  23
ATOM     23  S   UNL     1      -5.920  12.316  17.877  0.00  0.00    +0.000 S 
BRANCH  23  24
ATOM     24  C   UNL     1      -6.643  11.268  19.083  0.00  0.00    +0.000 A 
ATOM     25  N   UNL     1      -6.789   9.919  18.804  0.00  0.00    +0.000 N 
ATOM     26  C   UNL     1      -7.306   9.044  19.714  0.00  0.00    +0.000 A 
ATOM     27  N   UNL     1      -7.719   9.349  20.901  0.00  0.00    +0.000 NA
ATOM     28  C   UNL     1      -7.589  10.667  21.223  0.00  0.00    +0.000 A 
ATOM     29  N   UNL     1      -7.911  11.222  22.348  0.00  0.00    +0.000 NA
ATOM     30  C   UNL     1      -7.564  12.546  22.143  0.00  0.00    +0.000 A 
ATOM     31  N   UNL     1      -7.066  12.868  20.977  0.00  0.00    +0.000 NA
ATOM     32  C   UNL     1      -7.040  11.675  20.303  0.00  0.00    +0.000 A 
ATOM     33  H   UNL     1      -6.441   9.616  17.903  0.00  0.00    +0.000 HD
ENDBRANCH  23  24
ENDBRANCH  22  23
ENDBRANCH  21  22
ENDBRANCH  20  21
ENDBRANCH  19  20
ENDBRANCH   7  19
TORSDOF 7
ENDMDL
MODEL 8
REMARK VINA RESULT:      -6.9      3.914      9.897
REMARK  Name = 
REMARK  7 active torsions:
REMARK  status: ('A' for Active; 'I' for Inactive)
REMARK    1  A    between atoms: C_6  and  C_7
REMARK    2  A    between atoms: N_13  and  C_14
REMARK    3  A    between atoms: C_14  and  C_15
REMARK    4  A    between atoms: C_15  and  C_16
REMARK    5  A    between atoms: C_16  and  C_17
REMARK    6  A    between atoms: C_17  and  S_18
REMARK    7  A    between atoms: S_18  and  C_19
REMARK                            x       y       z     vdW  Elec       q    Type
REMARK                         _______ _______ _______ _____ _____    ______ ____
ROOT
ATOM      1 CL   UNL     1       3.946   0.984  22.179  0.00  0.00    +0.000 Cl
ATOM      2  C   UNL     1       3.529   2.175  20.993  0.00  0.00    +0.000 A 
ATOM      3  C   UNL     1       4.475   2.458  19.996  0.00  0.00    +0.000 A 
ATOM      4  C   UNL     1       4.192   3.457  19.049  0.00  0.00    +0.000 A 
ATOM      5  N   UNL     1       4.974   3.941  18.024  0.00  0.00    +0.000 NA
ATOM      6  C   UNL     1       4.306   4.946  17.490  0.00  0.00    +0.000 A 
ATOM      7  N   UNL     1       3.061   5.073  18.091  0.00  0.00    +0.000 N 
ATOM      8  C   UNL     1       2.983   4.136  19.106  0.00  0.00    +0.000 A 
ATOM      9  C   UNL     1       2.015   3.850  20.083  0.00  0.00    +0.000 A 
ATOM     10  C   UNL     1       2.308   2.858  21.031  0.00  0.00    +0.000 A 
ATOM     11 CL   UNL     1       1.113   2.553  22.247  0.00  0.00    +0.000 Cl
ENDROOT
BRANCH   6  12
ATOM     12  C   UNL     1       4.835   5.910  16.449  0.00  0.00    +0.000 C 
ATOM     13  C   UNL     1       5.272   5.221  15.146  0.00  0.00    +0.000 C 
ATOM     14  C   UNL     1       6.748   4.837  15.094  0.00  0.00    +0.000 C 
ATOM     15  N   UNL     1       7.623   5.940  15.489  0.00  0.00    +0.000 NA
ATOM     16  C   UNL     1       7.327   6.341  16.864  0.00  0.00    +0.000 C 
ATOM     17  C   UNL     1       5.902   6.862  17.001  0.00  0.00    +0.000 C 
ATOM     18  H   UNL     1       7.489   6.732  14.861  0.00  0.00    +0.000 HD
ENDBRANCH   6  12
BRANCH   7  19
ATOM     19  C   UNL     1       2.109   6.152  17.889  0.00  0.00    +0.000 C 
BRANCH  19  20
ATOM     20  C   UNL     1       2.397   7.483  18.604  0.00  0.00    +0.000 C 
BRANCH  20  21
ATOM     21  C   UNL     1       2.542   8.708  17.697  0.00  0.00    +0.000 C 
BRANCH  21  22
ATOM     22  C   UNL     1       1.827   9.916  18.291  0.00  0.00    +0.000 C 
BRANCH  22  23
ATOM     23  S   UNL     1       0.811   9.472  19.716  0.00  0.00    +0.000 S 
BRANCH  23  24
ATOM     24  C   UNL     1      -0.564  10.551  19.563  0.00  0.00    +0.000 A 
ATOM     25  N   UNL     1      -0.797  11.491  20.554  0.00  0.00    +0.000 N 
ATOM     26  C   UNL     1      -1.825  12.385  20.474  0.00  0.00    +0.000 A 
ATOM     27  N   UNL     1      -2.683  12.462  19.510  0.00  0.00    +0.000 NA
ATOM     28  C   UNL     1      -2.488  11.560  18.508  0.00  0.00    +0.000 A 
ATOM     29  N   UNL     1      -3.194  11.440  17.429  0.00  0.00    +0.000 NA
ATOM     30  C   UNL     1      -2.565  10.400  16.768  0.00  0.00    +0.000 A 
ATOM     31  N   UNL     1      -1.533   9.848  17.351  0.00  0.00    +0.000 NA
ATOM     32  C   UNL     1      -1.406  10.563  18.513  0.00  0.00    +0.000 A 
ATOM     33  H   UNL     1      -0.128  11.505  21.314  0.00  0.00    +0.000 HD
ENDBRANCH  23  24
ENDBRANCH  22  23
ENDBRANCH  21  22
ENDBRANCH  20  21
ENDBRANCH  19  20
ENDBRANCH   7  19
TORSDOF 7
ENDMDL
MODEL 9
REMARK VINA RESULT:      -6.7      3.002      4.695
REMARK  Name = 
REMARK  7 active torsions:
REMARK  status: ('A' for Active; 'I' for Inactive)
REMARK    1  A    between atoms: C_6  and  C_7
REMARK    2  A    between atoms: N_13  and  C_14
REMARK    3  A    between atoms: C_14  and  C_15
REMARK    4  A    between atoms: C_15  and  C_16
REMARK    5  A    between atoms: C_16  and  C_17
REMARK    6  A    between atoms: C_17  and  S_18
REMARK    7  A    between atoms: S_18  and  C_19
REMARK                            x       y       z     vdW  Elec       q    Type
REMARK                         _______ _______ _______ _____ _____    ______ ____
ROOT
ATOM      1 CL   UNL     1      -4.979  11.643  15.880  0.00  0.00    +0.000 Cl
ATOM      2  C   UNL     1      -3.658  11.200  16.908  0.00  0.00    +0.000 A 
ATOM      3  C   UNL     1      -3.575  11.821  18.164  0.00  0.00    +0.000 A 
ATOM      4  C   UNL     1      -2.487  11.525  19.003  0.00  0.00    +0.000 A 
ATOM      5  N   UNL     1      -2.166  12.041  20.238  0.00  0.00    +0.000 NA
ATOM      6  C   UNL     1      -0.995  11.525  20.563  0.00  0.00    +0.000 A 
ATOM      7  N   UNL     1      -0.585  10.612  19.601  0.00  0.00    +0.000 N 
ATOM      8  C   UNL     1      -1.525  10.617  18.585  0.00  0.00    +0.000 A 
ATOM      9  C   UNL     1      -1.605   9.968  17.342  0.00  0.00    +0.000 A 
ATOM     10  C   UNL     1      -2.687  10.276  16.506  0.00  0.00    +0.000 A 
ATOM     11 CL   UNL     1      -2.740   9.489  14.963  0.00  0.00    +0.000 Cl
ENDROOT
BRANCH   6  12
ATOM     12  C   UNL     1      -0.145  11.930  21.749  0.00  0.00    +0.000 C 
ATOM     13  C   UNL     1      -0.938  12.032  23.061  0.00  0.00    +0.000 C 
ATOM     14  C   UNL     1      -1.483  13.425  23.369  0.00  0.00    +0.000 C 
ATOM     15  N   UNL     1      -0.465  14.463  23.223  0.00  0.00    +0.000 NA
ATOM     16  C   UNL     1       0.030  14.486  21.847  0.00  0.00    +0.000 C 
ATOM     17  C   UNL     1       0.709  13.173  21.476  0.00  0.00    +0.000 C 
ATOM     18  H   UNL     1       0.307  14.288  23.866  0.00  0.00    +0.000 HD
ENDBRANCH   6  12
BRANCH   7  19
ATOM     19  C   UNL     1       0.712   9.961  19.524  0.00  0.00    +0.000 C 
BRANCH  19  20
ATOM     20  C   UNL     1       1.563  10.244  18.275  0.00  0.00    +0.000 C 
BRANCH  20  21
ATOM     21  C   UNL     1       2.259   9.028  17.655  0.00  0.00    +0.000 C 
BRANCH  21  22
ATOM     22  C   UNL     1       2.399   7.901  18.672  0.00  0.00    +0.000 C 
BRANCH  22  23
ATOM     23  S   UNL     1       1.905   6.304  17.991  0.00  0.00    +0.000 S 
BRANCH  23  24
ATOM     24  C   UNL     1       3.224   5.252  18.473  0.00  0.00    +0.000 A 
ATOM     25  N   UNL     1       4.457   5.810  18.769  0.00  0.00    +0.000 N 
ATOM     26  C   UNL     1       5.512   5.052  19.188  0.00  0.00    +0.000 A 
ATOM     27  N   UNL     1       5.500   3.769  19.347  0.00  0.00    +0.000 NA
ATOM     28  C   UNL     1       4.303   3.177  19.074  0.00  0.00    +0.000 A 
ATOM     29  N   UNL     1       4.026   1.915  19.170  0.00  0.00    +0.000 NA
ATOM     30  C   UNL     1       2.695   1.867  18.794  0.00  0.00    +0.000 A 
ATOM     31  N   UNL     1       2.121   2.992  18.455  0.00  0.00    +0.000 NA
ATOM     32  C   UNL     1       3.117   3.919  18.619  0.00  0.00    +0.000 A 
ATOM     33  H   UNL     1       4.512   6.819  18.703  0.00  0.00    +0.000 HD
ENDBRANCH  23  24
ENDBRANCH  22  23
ENDBRANCH  21  22
ENDBRANCH  20  21
ENDBRANCH  19  20
ENDBRANCH   7  19
TORSDOF 7
ENDMDL
