MODEL 1
REMARK VINA RESULT:      -7.8      0.000      0.000
REMARK  Name = 
REMARK  5 active torsions:
REMARK  status: ('A' for Active; 'I' for Inactive)
REMARK    1  A    between atoms: C_1  and  C_2
REMARK    2  A    between atoms: C_2  and  N_3
REMARK    3  A    between atoms: C_2  and  C_12
REMARK    4  A    between atoms: N_3  and  C_4
REMARK    5  A    between atoms: C_4  and  C_5
REMARK                            x       y       z     vdW  Elec       q    Type
REMARK                         _______ _______ _______ _____ _____    ______ ____
ROOT
ATOM      1  C   UNL     1       2.289   3.040  21.637  0.00  0.00    +0.000 C 
ATOM      2  C   UNL     1       1.700   3.481  20.292  0.00  0.00    +0.000 C 
ENDROOT
BRANCH   2   3
ATOM      3  C   UNL     1       2.780   3.508  19.219  0.00  0.00    +0.000 A 
ATOM      4  C   UNL     1       2.402   3.379  17.852  0.00  0.00    +0.000 A 
ATOM      5  C   UNL     1       3.333   3.512  16.815  0.00  0.00    +0.000 A 
ATOM      6  C   UNL     1       4.630   3.772  17.185  0.00  0.00    +0.000 A 
ATOM      7  N   UNL     1       5.752   3.991  16.396  0.00  0.00    +0.000 N 
ATOM      8  C   UNL     1       6.849   4.243  17.232  0.00  0.00    +0.000 A 
ATOM      9  O   UNL     1       7.988   4.490  16.882  0.00  0.00    +0.000 OA
ATOM     10  N   UNL     1       6.376   4.164  18.549  0.00  0.00    +0.000 N 
ATOM     11  C   UNL     1       5.016   3.881  18.518  0.00  0.00    +0.000 A 
ATOM     12  C   UNL     1       4.126   3.747  19.555  0.00  0.00    +0.000 A 
ATOM     13  H   UNL     1       5.801   4.001  15.391  0.00  0.00    +0.000 HD
ATOM     14  H   UNL     1       6.952   4.315  19.362  0.00  0.00    +0.000 HD
ENDBRANCH   2   3
BRANCH   2  15
ATOM     15  N   UNL     1       1.026   4.781  20.444  0.00  0.00    +0.000 NA
ATOM     16  H   UNL     1       0.268   4.703  21.120  0.00  0.00    +0.000 HD
BRANCH  15  17
ATOM     17  C   UNL     1       1.946   5.835  20.884  0.00  0.00    +0.000 C 
BRANCH  17  18
ATOM     18  C   UNL     1       1.920   7.031  19.959  0.00  0.00    +0.000 A 
ATOM     19  C   UNL     1       1.304   8.229  20.362  0.00  0.00    +0.000 A 
ATOM     20  C   UNL     1       1.326   9.351  19.531  0.00  0.00    +0.000 A 
ATOM     21  C   UNL     1       1.958   9.275  18.297  0.00  0.00    +0.000 A 
ATOM     22  F   UNL     1       1.990  10.356  17.505  0.00  0.00    +0.000 F 
ATOM     23  C   UNL     1       2.564   8.097  17.873  0.00  0.00    +0.000 A 
ATOM     24  C   UNL     1       2.545   6.975  18.704  0.00  0.00    +0.000 A 
ENDBRANCH  17  18
ENDBRANCH  15  17
ENDBRANCH   2  15
TORSDOF 4
ENDMDL
MODEL 2
REMARK VINA RESULT:      -7.7      0.211      1.075
REMARK  Name = 
REMARK  5 active torsions:
REMARK  status: ('A' for Active; 'I' for Inactive)
REMARK    1  A    between atoms: C_1  and  C_2
REMARK    2  A    between atoms: C_2  and  N_3
REMARK    3  A    between atoms: C_2  and  C_12
REMARK    4  A    between atoms: N_3  and  C_4
REMARK    5  A    between atoms: C_4  and  C_5
REMARK                            x       y       z     vdW  Elec       q    Type
REMARK                         _______ _______ _______ _____ _____    ______ ____
ROOT
ATOM      1  C   UNL     1       2.262   3.009  21.585  0.00  0.00    +0.000 C 
ATOM      2  C   UNL     1       1.670   3.525  20.269  0.00  0.00    +0.000 C 
ENDROOT
BRANCH   2   3
ATOM      3  C   UNL     1       2.743   3.594  19.191  0.00  0.00    +0.000 A 
ATOM      4  C   UNL     1       2.352   3.598  17.822  0.00  0.00    +0.000 A 
ATOM      5  C   UNL     1       3.282   3.775  16.791  0.00  0.00    +0.000 A 
ATOM      6  C   UNL     1       4.592   3.944  17.169  0.00  0.00    +0.000 A 
ATOM      7  N   UNL     1       5.718   4.178  16.390  0.00  0.00    +0.000 N 
ATOM      8  C   UNL     1       6.830   4.308  17.233  0.00  0.00    +0.000 A 
ATOM      9  O   UNL     1       7.978   4.532  16.894  0.00  0.00    +0.000 OA
ATOM     10  N   UNL     1       6.362   4.141  18.544  0.00  0.00    +0.000 N 
ATOM     11  C   UNL     1       4.990   3.923  18.502  0.00  0.00    +0.000 A 
ATOM     12  C   UNL     1       4.102   3.743  19.533  0.00  0.00    +0.000 A 
ATOM     13  H   UNL     1       5.761   4.270  15.388  0.00  0.00    +0.000 HD
ATOM     14  H   UNL     1       6.949   4.197  19.360  0.00  0.00    +0.000 HD
ENDBRANCH   2   3
BRANCH   2  15
ATOM     15  N   UNL     1       1.014   4.825  20.492  0.00  0.00    +0.000 NA
ATOM     16  H   UNL     1       0.267   4.724  21.177  0.00  0.00    +0.000 HD
BRANCH  15  17
ATOM     17  C   UNL     1       1.953   5.848  20.963  0.00  0.00    +0.000 C 
BRANCH  17  18
ATOM     18  C   UNL     1       1.892   7.102  20.121  0.00  0.00    +0.000 A 
ATOM     19  C   UNL     1       2.511   7.143  18.859  0.00  0.00    +0.000 A 
ATOM     20  C   UNL     1       2.410   8.281  18.057  0.00  0.00    +0.000 A 
ATOM     21  C   UNL     1       1.697   9.381  18.517  0.00  0.00    +0.000 A 
ATOM     22  F   UNL     1       1.590  10.468  17.743  0.00  0.00    +0.000 F 
ATOM     23  C   UNL     1       1.087   9.366  19.767  0.00  0.00    +0.000 A 
ATOM     24  C   UNL     1       1.184   8.228  20.569  0.00  0.00    +0.000 A 
ENDBRANCH  17  18
ENDBRANCH  15  17
ENDBRANCH   2  15
TORSDOF 4
ENDMDL
MODEL 3
REMARK VINA RESULT:      -7.7      3.075      5.612
REMARK  Name = 
REMARK  5 active torsions:
REMARK  status: ('A' for Active; 'I' for Inactive)
REMARK    1  A    between atoms: C_1  and  C_2
REMARK    2  A    between atoms: C_2  and  N_3
REMARK    3  A    between atoms: C_2  and  C_12
REMARK    4  A    between atoms: N_3  and  C_4
REMARK    5  A    between atoms: C_4  and  C_5
REMARK                            x       y       z     vdW  Elec       q    Type
REMARK                         _______ _______ _______ _____ _____    ______ ____
ROOT
ATOM      1  C   UNL     1       3.164   2.063  17.850  0.00  0.00    +0.000 C 
ATOM      2  C   UNL     1       3.923   3.393  17.922  0.00  0.00    +0.000 C 
ENDROOT
BRANCH   2   3
ATOM      3  C   UNL     1       3.156   4.400  18.770  0.00  0.00    +0.000 A 
ATOM      4  C   UNL     1       2.700   4.012  20.063  0.00  0.00    +0.000 A 
ATOM      5  C   UNL     1       2.092   4.926  20.932  0.00  0.00    +0.000 A 
ATOM      6  C   UNL     1       1.959   6.214  20.475  0.00  0.00    +0.000 A 
ATOM      7  N   UNL     1       1.442   7.335  21.113  0.00  0.00    +0.000 N 
ATOM      8  C   UNL     1       1.543   8.432  20.247  0.00  0.00    +0.000 A 
ATOM      9  O   UNL     1       1.201   9.577  20.481  0.00  0.00    +0.000 OA
ATOM     10  N   UNL     1       2.125   7.958  19.063  0.00  0.00    +0.000 N 
ATOM     11  C   UNL     1       2.383   6.600  19.207  0.00  0.00    +0.000 A 
ATOM     12  C   UNL     1       2.974   5.725  18.330  0.00  0.00    +0.000 A 
ATOM     13  H   UNL     1       1.073   7.391  22.047  0.00  0.00    +0.000 HD
ATOM     14  H   UNL     1       2.328   8.539  18.265  0.00  0.00    +0.000 HD
ENDBRANCH   2   3
BRANCH   2  15
ATOM     15  N   UNL     1       4.190   3.892  16.562  0.00  0.00    +0.000 NA
ATOM     16  H   UNL     1       3.874   4.856  16.478  0.00  0.00    +0.000 HD
BRANCH  15  17
ATOM     17  C   UNL     1       5.613   3.827  16.217  0.00  0.00    +0.000 C 
BRANCH  17  18
ATOM     18  C   UNL     1       6.412   4.915  16.899  0.00  0.00    +0.000 A 
ATOM     19  C   UNL     1       6.235   6.261  16.535  0.00  0.00    +0.000 A 
ATOM     20  C   UNL     1       6.931   7.272  17.201  0.00  0.00    +0.000 A 
ATOM     21  C   UNL     1       7.807   6.938  18.226  0.00  0.00    +0.000 A 
ATOM     22  F   UNL     1       8.465   7.909  18.872  0.00  0.00    +0.000 F 
ATOM     23  C   UNL     1       8.006   5.612  18.594  0.00  0.00    +0.000 A 
ATOM     24  C   UNL     1       7.309   4.600  17.931  0.00  0.00    +0.000 A 
ENDBRANCH  17  18
ENDBRANCH  15  17
ENDBRANCH   2  15
TORSDOF 4
ENDMDL
MODEL 4
REMARK VINA RESULT:      -7.6      2.963      4.827
REMARK  Name = 
REMARK  5 active torsions:
REMARK  status: ('A' for Active; 'I' for Inactive)
REMARK    1  A    between atoms: C_1  and  C_2
REMARK    2  A    between atoms: C_2  and  N_3
REMARK    3  A    between atoms: C_2  and  C_12
REMARK    4  A    between atoms: N_3  and  C_4
REMARK    5  A    between atoms: C_4  and  C_5
REMARK                            x       y       z     vdW  Elec       q    Type
REMARK                         _______ _______ _______ _____ _____    ______ ____
ROOT
ATOM      1  C   UNL     1       6.196   3.689  15.203  0.00  0.00    +0.000 C 
ATOM      2  C   UNL     1       5.345   4.362  16.285  0.00  0.00    +0.000 C 
ENDROOT
BRANCH   2   3
ATOM      3  C   UNL     1       6.192   5.319  17.113  0.00  0.00    +0.000 A 
ATOM      4  C   UNL     1       6.958   4.805  18.198  0.00  0.00    +0.000 A 
ATOM      5  C   UNL     1       7.843   5.613  18.922  0.00  0.00    +0.000 A 
ATOM      6  C   UNL     1       7.934   6.927  18.531  0.00  0.00    +0.000 A 
ATOM      7  N   UNL     1       8.742   7.946  19.021  0.00  0.00    +0.000 N 
ATOM      8  C   UNL     1       8.497   9.110  18.281  0.00  0.00    +0.000 A 
ATOM      9  O   UNL     1       9.036  10.192  18.427  0.00  0.00    +0.000 OA
ATOM     10  N   UNL     1       7.517   8.785  17.333  0.00  0.00    +0.000 N 
ATOM     11  C   UNL     1       7.178   7.445  17.485  0.00  0.00    +0.000 A 
ATOM     12  C   UNL     1       6.296   6.680  16.764  0.00  0.00    +0.000 A 
ATOM     13  H   UNL     1       9.418   7.887  19.764  0.00  0.00    +0.000 HD
ATOM     14  H   UNL     1       7.155   9.435  16.654  0.00  0.00    +0.000 HD
ENDBRANCH   2   3
BRANCH   2  15
ATOM     15  N   UNL     1       4.684   3.338  17.112  0.00  0.00    +0.000 NA
ATOM     16  H   UNL     1       5.010   3.405  18.074  0.00  0.00    +0.000 HD
BRANCH  15  17
ATOM     17  C   UNL     1       3.224   3.468  17.096  0.00  0.00    +0.000 C 
BRANCH  17  18
ATOM     18  C   UNL     1       2.725   4.380  18.194  0.00  0.00    +0.000 A 
ATOM     19  C   UNL     1       2.232   3.842  19.395  0.00  0.00    +0.000 A 
ATOM     20  C   UNL     1       1.822   4.683  20.432  0.00  0.00    +0.000 A 
ATOM     21  C   UNL     1       1.898   6.060  20.266  0.00  0.00    +0.000 A 
ATOM     22  F   UNL     1       1.515   6.867  21.265  0.00  0.00    +0.000 F 
ATOM     23  C   UNL     1       2.370   6.613  19.081  0.00  0.00    +0.000 A 
ATOM     24  C   UNL     1       2.784   5.774  18.045  0.00  0.00    +0.000 A 
ENDBRANCH  17  18
ENDBRANCH  15  17
ENDBRANCH   2  15
TORSDOF 4
ENDMDL
MODEL 5
REMARK VINA RESULT:      -7.5      3.571      6.389
REMARK  Name = 
REMARK  5 active torsions:
REMARK  status: ('A' for Active; 'I' for Inactive)
REMARK    1  A    between atoms: C_1  and  C_2
REMARK    2  A    between atoms: C_2  and  N_3
REMARK    3  A    between atoms: C_2  and  C_12
REMARK    4  A    between atoms: N_3  and  C_4
REMARK    5  A    between atoms: C_4  and  C_5
REMARK                            x       y       z     vdW  Elec       q    Type
REMARK                         _______ _______ _______ _____ _____    ______ ____
ROOT
ATOM      1  C   UNL     1       4.883   6.677  16.395  0.00  0.00    +0.000 C 
ATOM      2  C   UNL     1       3.862   5.990  17.308  0.00  0.00    +0.000 C 
ENDROOT
BRANCH   2   3
ATOM      3  C   UNL     1       3.089   7.023  18.117  0.00  0.00    +0.000 A 
ATOM      4  C   UNL     1       2.609   8.196  17.467  0.00  0.00    +0.000 A 
ATOM      5  C   UNL     1       1.796   9.123  18.130  0.00  0.00    +0.000 A 
ATOM      6  C   UNL     1       1.485   8.843  19.438  0.00  0.00    +0.000 A 
ATOM      7  N   UNL     1       0.679   9.541  20.329  0.00  0.00    +0.000 N 
ATOM      8  C   UNL     1       0.645   8.846  21.545  0.00  0.00    +0.000 A 
ATOM      9  O   UNL     1       0.027   9.161  22.546  0.00  0.00    +0.000 OA
ATOM     10  N   UNL     1       1.454   7.712  21.383  0.00  0.00    +0.000 N 
ATOM     11  C   UNL     1       1.963   7.710  20.090  0.00  0.00    +0.000 A 
ATOM     12  C   UNL     1       2.768   6.789  19.469  0.00  0.00    +0.000 A 
ATOM     13  H   UNL     1       0.170  10.392  20.156  0.00  0.00    +0.000 HD
ATOM     14  H   UNL     1       1.602   7.022  22.101  0.00  0.00    +0.000 HD
ENDBRANCH   2   3
BRANCH   2  15
ATOM     15  N   UNL     1       4.540   5.000  18.161  0.00  0.00    +0.000 NA
ATOM     16  H   UNL     1       4.466   5.276  19.139  0.00  0.00    +0.000 HD
BRANCH  15  17
ATOM     17  C   UNL     1       3.979   3.654  18.005  0.00  0.00    +0.000 C 
BRANCH  17  18
ATOM     18  C   UNL     1       3.085   3.275  19.164  0.00  0.00    +0.000 A 
ATOM     19  C   UNL     1       3.643   2.835  20.377  0.00  0.00    +0.000 A 
ATOM     20  C   UNL     1       2.822   2.537  21.466  0.00  0.00    +0.000 A 
ATOM     21  C   UNL     1       1.445   2.672  21.343  0.00  0.00    +0.000 A 
ATOM     22  F   UNL     1       0.658   2.397  22.391  0.00  0.00    +0.000 F 
ATOM     23  C   UNL     1       0.872   3.095  20.148  0.00  0.00    +0.000 A 
ATOM     24  C   UNL     1       1.691   3.396  19.059  0.00  0.00    +0.000 A 
ENDBRANCH  17  18
ENDBRANCH  15  17
ENDBRANCH   2  15
TORSDOF 4
ENDMDL
MODEL 6
REMARK VINA RESULT:      -7.5      1.536      2.280
REMARK  Name = 
REMARK  5 active torsions:
REMARK  status: ('A' for Active; 'I' for Inactive)
REMARK    1  A    between atoms: C_1  and  C_2
REMARK    2  A    between atoms: C_2  and  N_3
REMARK    3  A    between atoms: C_2  and  C_12
REMARK    4  A    between atoms: N_3  and  C_4
REMARK    5  A    between atoms: C_4  and  C_5
REMARK                            x       y       z     vdW  Elec       q    Type
REMARK                         _______ _______ _______ _____ _____    ______ ____
ROOT
ATOM      1  C   UNL     1       3.694   2.708  20.141  0.00  0.00    +0.000 C 
ATOM      2  C   UNL     1       3.191   3.357  18.847  0.00  0.00    +0.000 C 
ENDROOT
BRANCH   2   3
ATOM      3  C   UNL     1       4.355   3.937  18.053  0.00  0.00    +0.000 A 
ATOM      4  C   UNL     1       5.558   4.277  18.735  0.00  0.00    +0.000 A 
ATOM      5  C   UNL     1       6.699   4.704  18.045  0.00  0.00    +0.000 A 
ATOM      6  C   UNL     1       6.598   4.778  16.678  0.00  0.00    +0.000 A 
ATOM      7  N   UNL     1       7.557   5.123  15.733  0.00  0.00    +0.000 N 
ATOM      8  C   UNL     1       6.986   5.027  14.457  0.00  0.00    +0.000 A 
ATOM      9  O   UNL     1       7.540   5.243  13.394  0.00  0.00    +0.000 OA
ATOM     10  N   UNL     1       5.656   4.623  14.640  0.00  0.00    +0.000 N 
ATOM     11  C   UNL     1       5.422   4.467  16.001  0.00  0.00    +0.000 A 
ATOM     12  C   UNL     1       4.286   4.054  16.651  0.00  0.00    +0.000 A 
ATOM     13  H   UNL     1       8.515   5.380  15.900  0.00  0.00    +0.000 HD
ATOM     14  H   UNL     1       5.009   4.463  13.885  0.00  0.00    +0.000 HD
ENDBRANCH   2   3
BRANCH   2  15
ATOM     15  N   UNL     1       2.166   4.368  19.159  0.00  0.00    +0.000 NA
ATOM     16  H   UNL     1       1.378   3.928  19.631  0.00  0.00    +0.000 HD
BRANCH  15  17
ATOM     17  C   UNL     1       2.688   5.444  20.008  0.00  0.00    +0.000 C 
BRANCH  17  18
ATOM     18  C   UNL     1       2.249   6.808  19.526  0.00  0.00    +0.000 A 
ATOM     19  C   UNL     1       1.606   7.699  20.403  0.00  0.00    +0.000 A 
ATOM     20  C   UNL     1       1.249   8.979  19.976  0.00  0.00    +0.000 A 
ATOM     21  C   UNL     1       1.529   9.368  18.672  0.00  0.00    +0.000 A 
ATOM     22  F   UNL     1       1.197  10.600  18.265  0.00  0.00    +0.000 F 
ATOM     23  C   UNL     1       2.154   8.498  17.784  0.00  0.00    +0.000 A 
ATOM     24  C   UNL     1       2.514   7.219  18.211  0.00  0.00    +0.000 A 
ENDBRANCH  17  18
ENDBRANCH  15  17
ENDBRANCH   2  15
TORSDOF 4
ENDMDL
MODEL 7
REMARK VINA RESULT:      -7.5      1.396      2.355
REMARK  Name = 
REMARK  5 active torsions:
REMARK  status: ('A' for Active; 'I' for Inactive)
REMARK    1  A    between atoms: C_1  and  C_2
REMARK    2  A    between atoms: C_2  and  N_3
REMARK    3  A    between atoms: C_2  and  C_12
REMARK    4  A    between atoms: N_3  and  C_4
REMARK    5  A    between atoms: C_4  and  C_5
REMARK                            x       y       z     vdW  Elec       q    Type
REMARK                         _______ _______ _______ _____ _____    ______ ____
ROOT
ATOM      1  C   UNL     1       3.342   2.903  20.326  0.00  0.00    +0.000 C 
ATOM      2  C   UNL     1       2.924   3.502  18.979  0.00  0.00    +0.000 C 
ENDROOT
BRANCH   2   3
ATOM      3  C   UNL     1       4.143   4.001  18.214  0.00  0.00    +0.000 A 
ATOM      4  C   UNL     1       5.370   4.187  18.912  0.00  0.00    +0.000 A 
ATOM      5  C   UNL     1       6.551   4.532  18.244  0.00  0.00    +0.000 A 
ATOM      6  C   UNL     1       6.465   4.682  16.882  0.00  0.00    +0.000 A 
ATOM      7  N   UNL     1       7.457   4.976  15.955  0.00  0.00    +0.000 N 
ATOM      8  C   UNL     1       6.887   4.998  14.676  0.00  0.00    +0.000 A 
ATOM      9  O   UNL     1       7.465   5.210  13.625  0.00  0.00    +0.000 OA
ATOM     10  N   UNL     1       5.522   4.720  14.839  0.00  0.00    +0.000 N 
ATOM     11  C   UNL     1       5.267   4.522  16.191  0.00  0.00    +0.000 A 
ATOM     12  C   UNL     1       4.093   4.192  16.820  0.00  0.00    +0.000 A 
ATOM     13  H   UNL     1       8.436   5.128  16.134  0.00  0.00    +0.000 HD
ATOM     14  H   UNL     1       4.867   4.661  14.076  0.00  0.00    +0.000 HD
ENDBRANCH   2   3
BRANCH   2  15
ATOM     15  N   UNL     1       1.922   4.561  19.192  0.00  0.00    +0.000 NA
ATOM     16  H   UNL     1       1.057   4.155  19.542  0.00  0.00    +0.000 HD
BRANCH  15  17
ATOM     17  C   UNL     1       2.385   5.581  20.139  0.00  0.00    +0.000 C 
BRANCH  17  18
ATOM     18  C   UNL     1       2.114   6.982  19.640  0.00  0.00    +0.000 A 
ATOM     19  C   UNL     1       2.478   7.355  18.335  0.00  0.00    +0.000 A 
ATOM     20  C   UNL     1       2.180   8.631  17.853  0.00  0.00    +0.000 A 
ATOM     21  C   UNL     1       1.523   9.536  18.677  0.00  0.00    +0.000 A 
ATOM     22  F   UNL     1       1.226  10.757  18.211  0.00  0.00    +0.000 F 
ATOM     23  C   UNL     1       1.164   9.192  19.976  0.00  0.00    +0.000 A 
ATOM     24  C   UNL     1       1.459   7.916  20.457  0.00  0.00    +0.000 A 
ENDBRANCH  17  18
ENDBRANCH  15  17
ENDBRANCH   2  15
TORSDOF 4
ENDMDL
MODEL 8
REMARK VINA RESULT:      -7.5      3.708      6.355
REMARK  Name = 
REMARK  5 active torsions:
REMARK  status: ('A' for Active; 'I' for Inactive)
REMARK    1  A    between atoms: C_1  and  C_2
REMARK    2  A    between atoms: C_2  and  N_3
REMARK    3  A    between atoms: C_2  and  C_12
REMARK    4  A    between atoms: N_3  and  C_4
REMARK    5  A    between atoms: C_4  and  C_5
REMARK                            x       y       z     vdW  Elec       q    Type
REMARK                         _______ _______ _______ _____ _____    ______ ____
ROOT
ATOM      1  C   UNL     1       5.329   5.506  18.642  0.00  0.00    +0.000 C 
ATOM      2  C   UNL     1       4.236   5.844  17.622  0.00  0.00    +0.000 C 
ENDROOT
BRANCH   2   3
ATOM      3  C   UNL     1       3.228   6.816  18.221  0.00  0.00    +0.000 A 
ATOM      4  C   UNL     1       2.770   6.606  19.553  0.00  0.00    +0.000 A 
ATOM      5  C   UNL     1       1.934   7.527  20.197  0.00  0.00    +0.000 A 
ATOM      6  C   UNL     1       1.579   8.641  19.478  0.00  0.00    +0.000 A 
ATOM      7  N   UNL     1       0.808   9.734  19.854  0.00  0.00    +0.000 N 
ATOM      8  C   UNL     1       0.748  10.634  18.782  0.00  0.00    +0.000 A 
ATOM      9  O   UNL     1       0.169  11.705  18.764  0.00  0.00    +0.000 OA
ATOM     10  N   UNL     1       1.492  10.067  17.739  0.00  0.00    +0.000 N 
ATOM     11  C   UNL     1       2.005   8.849  18.169  0.00  0.00    +0.000 A 
ATOM     12  C   UNL     1       2.817   7.960  17.509  0.00  0.00    +0.000 A 
ATOM     13  H   UNL     1       0.371   9.896  20.747  0.00  0.00    +0.000 HD
ATOM     14  H   UNL     1       1.629  10.508  16.843  0.00  0.00    +0.000 HD
ENDBRANCH   2   3
BRANCH   2  15
ATOM     15  N   UNL     1       3.603   4.605  17.138  0.00  0.00    +0.000 NA
ATOM     16  H   UNL     1       3.822   4.465  16.154  0.00  0.00    +0.000 HD
BRANCH  15  17
ATOM     17  C   UNL     1       4.040   3.427  17.894  0.00  0.00    +0.000 C 
BRANCH  17  18
ATOM     18  C   UNL     1       3.130   3.136  19.066  0.00  0.00    +0.000 A 
ATOM     19  C   UNL     1       3.670   2.771  20.311  0.00  0.00    +0.000 A 
ATOM     20  C   UNL     1       2.834   2.555  21.409  0.00  0.00    +0.000 A 
ATOM     21  C   UNL     1       1.461   2.698  21.261  0.00  0.00    +0.000 A 
ATOM     22  F   UNL     1       0.660   2.502  22.317  0.00  0.00    +0.000 F 
ATOM     23  C   UNL     1       0.905   3.047  20.035  0.00  0.00    +0.000 A 
ATOM     24  C   UNL     1       1.739   3.266  18.938  0.00  0.00    +0.000 A 
ENDBRANCH  17  18
ENDBRANCH  15  17
ENDBRANCH   2  15
TORSDOF 4
ENDMDL
MODEL 9
REMARK VINA RESULT:      -7.5      2.500      3.385
REMARK  Name = 
REMARK  5 active torsions:
REMARK  status: ('A' for Active; 'I' for Inactive)
REMARK    1  A    between atoms: C_1  and  C_2
REMARK    2  A    between atoms: C_2  and  N_3
REMARK    3  A    between atoms: C_2  and  C_12
REMARK    4  A    between atoms: N_3  and  C_4
REMARK    5  A    between atoms: C_4  and  C_5
REMARK                            x       y       z     vdW  Elec       q    Type
REMARK                         _______ _______ _______ _____ _____    ______ ____
ROOT
ATOM      1  C   UNL     1       1.610   5.029  20.479  0.00  0.00    +0.000 C 
ATOM      2  C   UNL     1       2.181   6.125  19.572  0.00  0.00    +0.000 C 
ENDROOT
BRANCH   2   3
ATOM      3  C   UNL     1       3.485   5.664  18.934  0.00  0.00    +0.000 A 
ATOM      4  C   UNL     1       4.115   4.484  19.421  0.00  0.00    +0.000 A 
ATOM      5  C   UNL     1       5.251   3.948  18.801  0.00  0.00    +0.000 A 
ATOM      6  C   UNL     1       5.725   4.620  17.702  0.00  0.00    +0.000 A 
ATOM      7  N   UNL     1       6.792   4.315  16.865  0.00  0.00    +0.000 N 
ATOM      8  C   UNL     1       6.868   5.288  15.860  0.00  0.00    +0.000 A 
ATOM      9  O   UNL     1       7.674   5.329  14.947  0.00  0.00    +0.000 OA
ATOM     10  N   UNL     1       5.831   6.199  16.102  0.00  0.00    +0.000 N 
ATOM     11  C   UNL     1       5.129   5.785  17.228  0.00  0.00    +0.000 A 
ATOM     12  C   UNL     1       4.021   6.338  17.820  0.00  0.00    +0.000 A 
ATOM     13  H   UNL     1       7.411   3.524  16.927  0.00  0.00    +0.000 HD
ATOM     14  H   UNL     1       5.641   7.001  15.522  0.00  0.00    +0.000 HD
ENDBRANCH   2   3
BRANCH   2  15
ATOM     15  N   UNL     1       2.339   7.374  20.336  0.00  0.00    +0.000 NA
ATOM     16  H   UNL     1       3.325   7.620  20.398  0.00  0.00    +0.000 HD
BRANCH  15  17
ATOM     17  C   UNL     1       1.609   8.492  19.730  0.00  0.00    +0.000 C 
BRANCH  17  18
ATOM     18  C   UNL     1       0.809   9.266  20.754  0.00  0.00    +0.000 A 
ATOM     19  C   UNL     1       0.037  10.374  20.362  0.00  0.00    +0.000 A 
ATOM     20  C   UNL     1      -0.745  11.057  21.296  0.00  0.00    +0.000 A 
ATOM     21  C   UNL     1      -0.752  10.638  22.620  0.00  0.00    +0.000 A 
ATOM     22  F   UNL     1      -1.512  11.286  23.513  0.00  0.00    +0.000 F 
ATOM     23  C   UNL     1       0.013   9.552  23.031  0.00  0.00    +0.000 A 
ATOM     24  C   UNL     1       0.793   8.866  22.098  0.00  0.00    +0.000 A 
ENDBRANCH  17  18
ENDBRANCH  15  17
ENDBRANCH   2  15
TORSDOF 4
ENDMDL
