MODEL 1
REMARK VINA RESULT:      -8.2      0.000      0.000
REMARK  Name = 
REMARK  4 active torsions:
REMARK  status: ('A' for Active; 'I' for Inactive)
REMARK    1  A    between atoms: C_1  and  C_2
REMARK    2  A    between atoms: C_5  and  C_6
REMARK    3  A    between atoms: N_10  and  C_11
REMARK    4  A    between atoms: C_11  and  C_12
REMARK                            x       y       z     vdW  Elec       q    Type
REMARK                         _______ _______ _______ _____ _____    ______ ____
ROOT
ATOM      1  C   UNL     1       6.614   5.115  15.691  0.00  0.00    +0.000 C 
ATOM      2  C   UNL     1       7.597   6.231  16.053  0.00  0.00    +0.000 C 
ATOM      3  C   UNL     1       7.355   6.699  17.479  0.00  0.00    +0.000 C 
ATOM      4  C   UNL     1       5.895   7.112  17.683  0.00  0.00    +0.000 C 
ATOM      5  N   UNL     1       4.957   6.017  17.360  0.00  0.00    +0.000 NA
ATOM      6  C   UNL     1       5.175   5.515  15.991  0.00  0.00    +0.000 C 
ENDROOT
BRANCH   1  11
ATOM      7  C   UNL     1       5.766   2.530  11.776  0.00  0.00    +0.000 C 
ATOM      8  C   UNL     1       6.343   3.654  12.512  0.00  0.00    +0.000 A 
ATOM      9  N   UNL     1       7.343   4.461  12.208  0.00  0.00    +0.000 NA
ATOM     10  N   UNL     1       7.598   5.196  13.349  0.00  0.00    +0.000 NA
ATOM     11  C   UNL     1       6.735   4.776  14.254  0.00  0.00    +0.000 A 
ATOM     12  O   UNL     1       5.874   3.836  13.777  0.00  0.00    +0.000 OA
ENDBRANCH   1  11
BRANCH   5  13
ATOM     13  C   UNL     1       3.549   6.496  17.404  0.00  0.00    +0.000 C 
BRANCH  13  14
ATOM     14  C   UNL     1       2.742   6.027  18.592  0.00  0.00    +0.000 A 
ATOM     15  N   UNL     1       2.543   6.979  19.548  0.00  0.00    +0.000 NA
ATOM     16  C   UNL     1       1.864   6.624  20.649  0.00  0.00    +0.000 A 
ATOM     17  C   UNL     1       1.336   5.365  20.844  0.00  0.00    +0.000 A 
ATOM     18  C   UNL     1       1.499   4.401  19.844  0.00  0.00    +0.000 A 
ATOM     19  C   UNL     1       2.257   4.716  18.702  0.00  0.00    +0.000 A 
ATOM     20  C   UNL     1       2.476   3.700  17.606  0.00  0.00    +0.000 C 
ATOM     21  C   UNL     1       2.117   2.268  18.006  0.00  0.00    +0.000 C 
ATOM     22  C   UNL     1       0.787   2.243  18.744  0.00  0.00    +0.000 C 
ATOM     23  C   UNL     1       0.901   3.033  20.045  0.00  0.00    +0.000 C 
ENDBRANCH  13  14
ENDBRANCH   5  13
TORSDOF 3
ENDMDL
MODEL 2
REMARK VINA RESULT:      -8.0      3.045      6.926
REMARK  Name = 
REMARK  4 active torsions:
REMARK  status: ('A' for Active; 'I' for Inactive)
REMARK    1  A    between atoms: C_1  and  C_2
REMARK    2  A    between atoms: C_5  and  C_6
REMARK    3  A    between atoms: N_10  and  C_11
REMARK    4  A    between atoms: C_11  and  C_12
REMARK                            x       y       z     vdW  Elec       q    Type
REMARK                         _______ _______ _______ _____ _____    ______ ____
ROOT
ATOM      1  C   UNL     1       2.174   5.299  20.596  0.00  0.00    +0.000 C 
ATOM      2  C   UNL     1       0.927   4.412  20.580  0.00  0.00    +0.000 C 
ATOM      3  C   UNL     1       1.315   2.959  20.801  0.00  0.00    +0.000 C 
ATOM      4  C   UNL     1       2.369   2.511  19.785  0.00  0.00    +0.000 C 
ATOM      5  N   UNL     1       3.581   3.354  19.831  0.00  0.00    +0.000 NA
ATOM      6  C   UNL     1       3.245   4.778  19.647  0.00  0.00    +0.000 C 
ENDROOT
BRANCH   1  11
ATOM      7  C   UNL     1       2.186   9.141  17.774  0.00  0.00    +0.000 C 
ATOM      8  C   UNL     1       1.795   8.380  18.960  0.00  0.00    +0.000 A 
ATOM      9  N   UNL     1       1.317   8.782  20.124  0.00  0.00    +0.000 NA
ATOM     10  N   UNL     1       1.331   7.672  20.944  0.00  0.00    +0.000 NA
ATOM     11  C   UNL     1       1.819   6.686  20.215  0.00  0.00    +0.000 A 
ATOM     12  O   UNL     1       2.086   7.050  18.932  0.00  0.00    +0.000 OA
ENDBRANCH   1  11
BRANCH   5  13
ATOM     13  C   UNL     1       4.512   3.004  18.725  0.00  0.00    +0.000 C 
BRANCH  13  14
ATOM     14  C   UNL     1       5.563   4.043  18.410  0.00  0.00    +0.000 A 
ATOM     15  N   UNL     1       6.160   4.591  19.507  0.00  0.00    +0.000 NA
ATOM     16  C   UNL     1       7.079   5.546  19.304  0.00  0.00    +0.000 A 
ATOM     17  C   UNL     1       7.468   5.974  18.053  0.00  0.00    +0.000 A 
ATOM     18  C   UNL     1       6.891   5.380  16.926  0.00  0.00    +0.000 A 
ATOM     19  C   UNL     1       5.880   4.418  17.096  0.00  0.00    +0.000 A 
ATOM     20  C   UNL     1       5.215   3.765  15.908  0.00  0.00    +0.000 C 
ATOM     21  C   UNL     1       5.481   4.475  14.580  0.00  0.00    +0.000 C 
ATOM     22  C   UNL     1       6.953   4.838  14.461  0.00  0.00    +0.000 C 
ATOM     23  C   UNL     1       7.334   5.829  15.557  0.00  0.00    +0.000 C 
ENDBRANCH  13  14
ENDBRANCH   5  13
TORSDOF 3
ENDMDL
MODEL 3
REMARK VINA RESULT:      -7.9      3.043      4.535
REMARK  Name = 
REMARK  4 active torsions:
REMARK  status: ('A' for Active; 'I' for Inactive)
REMARK    1  A    between atoms: C_1  and  C_2
REMARK    2  A    between atoms: C_5  and  C_6
REMARK    3  A    between atoms: N_10  and  C_11
REMARK    4  A    between atoms: C_11  and  C_12
REMARK                            x       y       z     vdW  Elec       q    Type
REMARK                         _______ _______ _______ _____ _____    ______ ____
ROOT
ATOM      1  C   UNL     1       7.631   7.100  17.692  0.00  0.00    +0.000 C 
ATOM      2  C   UNL     1       7.876   6.273  18.956  0.00  0.00    +0.000 C 
ATOM      3  C   UNL     1       7.258   4.892  18.805  0.00  0.00    +0.000 C 
ATOM      4  C   UNL     1       5.774   4.990  18.444  0.00  0.00    +0.000 C 
ATOM      5  N   UNL     1       5.552   5.764  17.205  0.00  0.00    +0.000 NA
ATOM      6  C   UNL     1       6.160   7.104  17.300  0.00  0.00    +0.000 C 
ENDROOT
BRANCH   1  11
ATOM      7  C   UNL     1       9.702  10.657  20.099  0.00  0.00    +0.000 C 
ATOM      8  C   UNL     1       9.021  10.069  18.946  0.00  0.00    +0.000 A 
ATOM      9  N   UNL     1       8.354  10.636  17.957  0.00  0.00    +0.000 NA
ATOM     10  N   UNL     1       7.741   9.605  17.273  0.00  0.00    +0.000 NA
ATOM     11  C   UNL     1       8.082   8.496  17.901  0.00  0.00    +0.000 A 
ATOM     12  O   UNL     1       8.934   8.710  18.940  0.00  0.00    +0.000 OA
ENDBRANCH   1  11
BRANCH   5  13
ATOM     13  C   UNL     1       4.100   5.985  16.971  0.00  0.00    +0.000 C 
BRANCH  13  14
ATOM     14  C   UNL     1       3.211   5.784  18.177  0.00  0.00    +0.000 A 
ATOM     15  N   UNL     1       3.093   6.881  18.978  0.00  0.00    +0.000 NA
ATOM     16  C   UNL     1       2.346   6.765  20.087  0.00  0.00    +0.000 A 
ATOM     17  C   UNL     1       1.676   5.612  20.435  0.00  0.00    +0.000 A 
ATOM     18  C   UNL     1       1.759   4.500  19.590  0.00  0.00    +0.000 A 
ATOM     19  C   UNL     1       2.579   4.562  18.450  0.00  0.00    +0.000 A 
ATOM     20  C   UNL     1       2.715   3.379  17.521  0.00  0.00    +0.000 C 
ATOM     21  C   UNL     1       2.187   2.068  18.104  0.00  0.00    +0.000 C 
ATOM     22  C   UNL     1       0.842   2.293  18.778  0.00  0.00    +0.000 C 
ATOM     23  C   UNL     1       1.006   3.248  19.957  0.00  0.00    +0.000 C 
ENDBRANCH  13  14
ENDBRANCH   5  13
TORSDOF 3
ENDMDL
MODEL 4
REMARK VINA RESULT:      -7.9      3.322      7.107
REMARK  Name = 
REMARK  4 active torsions:
REMARK  status: ('A' for Active; 'I' for Inactive)
REMARK    1  A    between atoms: C_1  and  C_2
REMARK    2  A    between atoms: C_5  and  C_6
REMARK    3  A    between atoms: N_10  and  C_11
REMARK    4  A    between atoms: C_11  and  C_12
REMARK                            x       y       z     vdW  Elec       q    Type
REMARK                         _______ _______ _______ _____ _____    ______ ____
ROOT
ATOM      1  C   UNL     1       2.229   5.629  20.544  0.00  0.00    +0.000 C 
ATOM      2  C   UNL     1       0.943   4.804  20.464  0.00  0.00    +0.000 C 
ATOM      3  C   UNL     1       1.232   3.351  20.804  0.00  0.00    +0.000 C 
ATOM      4  C   UNL     1       2.347   2.790  19.918  0.00  0.00    +0.000 C 
ATOM      5  N   UNL     1       3.593   3.575  20.027  0.00  0.00    +0.000 NA
ATOM      6  C   UNL     1       3.352   4.999  19.730  0.00  0.00    +0.000 C 
ENDROOT
BRANCH   1  11
ATOM      7  C   UNL     1       0.211   9.948  20.611  0.00  0.00    +0.000 C 
ATOM      8  C   UNL     1       1.118   8.927  20.088  0.00  0.00    +0.000 A 
ATOM      9  N   UNL     1       1.701   8.814  18.908  0.00  0.00    +0.000 NA
ATOM     10  N   UNL     1       2.269   7.556  18.885  0.00  0.00    +0.000 NA
ATOM     11  C   UNL     1       1.984   7.005  20.050  0.00  0.00    +0.000 A 
ATOM     12  O   UNL     1       1.301   7.836  20.883  0.00  0.00    +0.000 OA
ENDBRANCH   1  11
BRANCH   5  13
ATOM     13  C   UNL     1       4.600   3.112  19.035  0.00  0.00    +0.000 C 
BRANCH  13  14
ATOM     14  C   UNL     1       5.636   4.138  18.636  0.00  0.00    +0.000 A 
ATOM     15  N   UNL     1       6.286   4.719  19.684  0.00  0.00    +0.000 NA
ATOM     16  C   UNL     1       7.195   5.665  19.405  0.00  0.00    +0.000 A 
ATOM     17  C   UNL     1       7.522   6.051  18.123  0.00  0.00    +0.000 A 
ATOM     18  C   UNL     1       6.890   5.424  17.046  0.00  0.00    +0.000 A 
ATOM     19  C   UNL     1       5.887   4.470  17.297  0.00  0.00    +0.000 A 
ATOM     20  C   UNL     1       5.163   3.782  16.164  0.00  0.00    +0.000 C 
ATOM     21  C   UNL     1       5.364   4.448  14.803  0.00  0.00    +0.000 C 
ATOM     22  C   UNL     1       6.829   4.803  14.599  0.00  0.00    +0.000 C 
ATOM     23  C   UNL     1       7.265   5.828  15.644  0.00  0.00    +0.000 C 
ENDBRANCH  13  14
ENDBRANCH   5  13
TORSDOF 3
ENDMDL
MODEL 5
REMARK VINA RESULT:      -7.9      4.069      8.149
REMARK  Name = 
REMARK  4 active torsions:
REMARK  status: ('A' for Active; 'I' for Inactive)
REMARK    1  A    between atoms: C_1  and  C_2
REMARK    2  A    between atoms: C_5  and  C_6
REMARK    3  A    between atoms: N_10  and  C_11
REMARK    4  A    between atoms: C_11  and  C_12
REMARK                            x       y       z     vdW  Elec       q    Type
REMARK                         _______ _______ _______ _____ _____    ______ ____
ROOT
ATOM      1  C   UNL     1       0.189   9.260  20.113  0.00  0.00    +0.000 C 
ATOM      2  C   UNL     1       0.543  10.379  19.131  0.00  0.00    +0.000 C 
ATOM      3  C   UNL     1       1.083   9.790  17.838  0.00  0.00    +0.000 C 
ATOM      4  C   UNL     1       2.262   8.852  18.111  0.00  0.00    +0.000 C 
ATOM      5  N   UNL     1       1.900   7.758  19.035  0.00  0.00    +0.000 NA
ATOM      6  C   UNL     1       1.346   8.287  20.295  0.00  0.00    +0.000 C 
ENDROOT
BRANCH   1  11
ATOM      7  C   UNL     1      -1.352  12.675  23.060  0.00  0.00    +0.000 C 
ATOM      8  C   UNL     1      -0.883  11.329  22.737  0.00  0.00    +0.000 A 
ATOM      9  N   UNL     1      -0.364  10.388  23.505  0.00  0.00    +0.000 NA
ATOM     10  N   UNL     1       0.098   9.409  22.649  0.00  0.00    +0.000 NA
ATOM     11  C   UNL     1      -0.176   9.833  21.429  0.00  0.00    +0.000 A 
ATOM     12  O   UNL     1      -0.844  11.018  21.411  0.00  0.00    +0.000 OA
ENDBRANCH   1  11
BRANCH   5  13
ATOM     13  C   UNL     1       3.100   6.965  19.413  0.00  0.00    +0.000 C 
BRANCH  13  14
ATOM     14  C   UNL     1       3.400   5.779  18.525  0.00  0.00    +0.000 A 
ATOM     15  N   UNL     1       4.375   6.002  17.598  0.00  0.00    +0.000 NA
ATOM     16  C   UNL     1       4.669   5.004  16.752  0.00  0.00    +0.000 A 
ATOM     17  C   UNL     1       4.062   3.767  16.794  0.00  0.00    +0.000 A 
ATOM     18  C   UNL     1       3.094   3.521  17.773  0.00  0.00    +0.000 A 
ATOM     19  C   UNL     1       2.714   4.561  18.641  0.00  0.00    +0.000 A 
ATOM     20  C   UNL     1       1.659   4.347  19.700  0.00  0.00    +0.000 C 
ATOM     21  C   UNL     1       0.839   3.071  19.510  0.00  0.00    +0.000 C 
ATOM     22  C   UNL     1       1.750   1.902  19.168  0.00  0.00    +0.000 C 
ATOM     23  C   UNL     1       2.448   2.162  17.836  0.00  0.00    +0.000 C 
ENDBRANCH  13  14
ENDBRANCH   5  13
TORSDOF 3
ENDMDL
MODEL 6
REMARK VINA RESULT:      -7.8      2.562      4.900
REMARK  Name = 
REMARK  4 active torsions:
REMARK  status: ('A' for Active; 'I' for Inactive)
REMARK    1  A    between atoms: C_1  and  C_2
REMARK    2  A    between atoms: C_5  and  C_6
REMARK    3  A    between atoms: N_10  and  C_11
REMARK    4  A    between atoms: C_11  and  C_12
REMARK                            x       y       z     vdW  Elec       q    Type
REMARK                         _______ _______ _______ _____ _____    ______ ____
ROOT
ATOM      1  C   UNL     1       3.920   4.666  16.948  0.00  0.00    +0.000 C 
ATOM      2  C   UNL     1       3.621   3.262  17.478  0.00  0.00    +0.000 C 
ATOM      3  C   UNL     1       2.252   3.232  18.138  0.00  0.00    +0.000 C 
ATOM      4  C   UNL     1       2.142   4.305  19.224  0.00  0.00    +0.000 C 
ATOM      5  N   UNL     1       2.401   5.660  18.695  0.00  0.00    +0.000 NA
ATOM      6  C   UNL     1       3.711   5.726  18.022  0.00  0.00    +0.000 C 
ENDROOT
BRANCH   1  11
ATOM      7  C   UNL     1       7.322   4.844  13.614  0.00  0.00    +0.000 C 
ATOM      8  C   UNL     1       6.825   4.847  14.989  0.00  0.00    +0.000 A 
ATOM      9  N   UNL     1       7.443   4.598  16.130  0.00  0.00    +0.000 NA
ATOM     10  N   UNL     1       6.454   4.530  17.090  0.00  0.00    +0.000 NA
ATOM     11  C   UNL     1       5.315   4.740  16.457  0.00  0.00    +0.000 A 
ATOM     12  O   UNL     1       5.480   5.000  15.132  0.00  0.00    +0.000 OA
ENDBRANCH   1  11
BRANCH   5  13
ATOM     13  C   UNL     1       2.454   6.658  19.797  0.00  0.00    +0.000 C 
BRANCH  13  14
ATOM     14  C   UNL     1       1.898   8.023  19.462  0.00  0.00    +0.000 A 
ATOM     15  N   UNL     1       2.101   8.412  18.172  0.00  0.00    +0.000 NA
ATOM     16  C   UNL     1       1.665   9.628  17.812  0.00  0.00    +0.000 A 
ATOM     17  C   UNL     1       1.000  10.482  18.667  0.00  0.00    +0.000 A 
ATOM     18  C   UNL     1       0.750  10.065  19.978  0.00  0.00    +0.000 A 
ATOM     19  C   UNL     1       1.244   8.822  20.412  0.00  0.00    +0.000 A 
ATOM     20  C   UNL     1       1.015   8.341  21.825  0.00  0.00    +0.000 C 
ATOM     21  C   UNL     1       0.533   9.432  22.782  0.00  0.00    +0.000 C 
ATOM     22  C   UNL     1      -0.559  10.264  22.128  0.00  0.00    +0.000 C 
ATOM     23  C   UNL     1       0.001  10.987  20.906  0.00  0.00    +0.000 C 
ENDBRANCH  13  14
ENDBRANCH   5  13
TORSDOF 3
ENDMDL
MODEL 7
REMARK VINA RESULT:      -7.8      3.939      8.308
REMARK  Name = 
REMARK  4 active torsions:
REMARK  status: ('A' for Active; 'I' for Inactive)
REMARK    1  A    between atoms: C_1  and  C_2
REMARK    2  A    between atoms: C_5  and  C_6
REMARK    3  A    between atoms: N_10  and  C_11
REMARK    4  A    between atoms: C_11  and  C_12
REMARK                            x       y       z     vdW  Elec       q    Type
REMARK                         _______ _______ _______ _____ _____    ______ ____
ROOT
ATOM      1  C   UNL     1       0.502   9.055  20.056  0.00  0.00    +0.000 C 
ATOM      2  C   UNL     1       0.992  10.188  19.151  0.00  0.00    +0.000 C 
ATOM      3  C   UNL     1       1.532   9.621  17.849  0.00  0.00    +0.000 C 
ATOM      4  C   UNL     1       2.612   8.569  18.112  0.00  0.00    +0.000 C 
ATOM      5  N   UNL     1       2.119   7.465  18.960  0.00  0.00    +0.000 NA
ATOM      6  C   UNL     1       1.561   7.975  20.226  0.00  0.00    +0.000 C 
ENDROOT
BRANCH   1  11
ATOM      7  C   UNL     1      -1.395  12.230  23.064  0.00  0.00    +0.000 C 
ATOM      8  C   UNL     1      -0.727  10.974  22.724  0.00  0.00    +0.000 A 
ATOM      9  N   UNL     1      -0.006  10.153  23.466  0.00  0.00    +0.000 NA
ATOM     10  N   UNL     1       0.556   9.245  22.590  0.00  0.00    +0.000 NA
ATOM     11  C   UNL     1       0.133   9.589  21.388  0.00  0.00    +0.000 A 
ATOM     12  O   UNL     1      -0.725  10.644  21.403  0.00  0.00    +0.000 OA
ENDBRANCH   1  11
BRANCH   5  13
ATOM     13  C   UNL     1       3.229   6.549  19.337  0.00  0.00    +0.000 C 
BRANCH  13  14
ATOM     14  C   UNL     1       3.419   5.354  18.432  0.00  0.00    +0.000 A 
ATOM     15  N   UNL     1       2.444   4.407  18.538  0.00  0.00    +0.000 NA
ATOM     16  C   UNL     1       2.566   3.301  17.789  0.00  0.00    +0.000 A 
ATOM     17  C   UNL     1       3.602   3.093  16.904  0.00  0.00    +0.000 A 
ATOM     18  C   UNL     1       4.578   4.084  16.759  0.00  0.00    +0.000 A 
ATOM     19  C   UNL     1       4.519   5.231  17.571  0.00  0.00    +0.000 A 
ATOM     20  C   UNL     1       5.563   6.317  17.463  0.00  0.00    +0.000 C 
ATOM     21  C   UNL     1       6.813   5.902  16.687  0.00  0.00    +0.000 C 
ATOM     22  C   UNL     1       6.425   5.161  15.417  0.00  0.00    +0.000 C 
ATOM     23  C   UNL     1       5.697   3.868  15.773  0.00  0.00    +0.000 C 
ENDBRANCH  13  14
ENDBRANCH   5  13
TORSDOF 3
ENDMDL
MODEL 8
REMARK VINA RESULT:      -7.7      2.995      7.007
REMARK  Name = 
REMARK  4 active torsions:
REMARK  status: ('A' for Active; 'I' for Inactive)
REMARK    1  A    between atoms: C_1  and  C_2
REMARK    2  A    between atoms: C_5  and  C_6
REMARK    3  A    between atoms: N_10  and  C_11
REMARK    4  A    between atoms: C_11  and  C_12
REMARK                            x       y       z     vdW  Elec       q    Type
REMARK                         _______ _______ _______ _____ _____    ______ ____
ROOT
ATOM      1  C   UNL     1       2.059   5.257  20.696  0.00  0.00    +0.000 C 
ATOM      2  C   UNL     1       0.864   4.362  20.358  0.00  0.00    +0.000 C 
ATOM      3  C   UNL     1       1.197   2.910  20.659  0.00  0.00    +0.000 C 
ATOM      4  C   UNL     1       2.478   2.478  19.941  0.00  0.00    +0.000 C 
ATOM      5  N   UNL     1       3.631   3.329  20.299  0.00  0.00    +0.000 NA
ATOM      6  C   UNL     1       3.340   4.752  20.046  0.00  0.00    +0.000 C 
ENDROOT
BRANCH   1  11
ATOM      7  C   UNL     1       2.413   8.978  17.737  0.00  0.00    +0.000 C 
ATOM      8  C   UNL     1       1.927   8.287  18.931  0.00  0.00    +0.000 A 
ATOM      9  N   UNL     1       1.420   8.760  20.055  0.00  0.00    +0.000 NA
ATOM     10  N   UNL     1       1.335   7.684  20.915  0.00  0.00    +0.000 NA
ATOM     11  C   UNL     1       1.799   6.645  20.247  0.00  0.00    +0.000 A 
ATOM     12  O   UNL     1       2.144   6.943  18.966  0.00  0.00    +0.000 OA
ENDBRANCH   1  11
BRANCH   5  13
ATOM     13  C   UNL     1       4.816   2.996  19.463  0.00  0.00    +0.000 C 
BRANCH  13  14
ATOM     14  C   UNL     1       5.026   3.879  18.255  0.00  0.00    +0.000 A 
ATOM     15  N   UNL     1       4.178   3.625  17.217  0.00  0.00    +0.000 NA
ATOM     16  C   UNL     1       4.329   4.348  16.098  0.00  0.00    +0.000 A 
ATOM     17  C   UNL     1       5.270   5.346  15.959  0.00  0.00    +0.000 A 
ATOM     18  C   UNL     1       6.109   5.640  17.038  0.00  0.00    +0.000 A 
ATOM     19  C   UNL     1       6.023   4.865  18.208  0.00  0.00    +0.000 A 
ATOM     20  C   UNL     1       6.923   5.133  19.391  0.00  0.00    +0.000 C 
ATOM     21  C   UNL     1       8.110   6.043  19.073  0.00  0.00    +0.000 C 
ATOM     22  C   UNL     1       7.657   7.232  18.240  0.00  0.00    +0.000 C 
ATOM     23  C   UNL     1       7.120   6.748  16.896  0.00  0.00    +0.000 C 
ENDBRANCH  13  14
ENDBRANCH   5  13
TORSDOF 3
ENDMDL
MODEL 9
REMARK VINA RESULT:      -7.6      3.001      5.541
REMARK  Name = 
REMARK  4 active torsions:
REMARK  status: ('A' for Active; 'I' for Inactive)
REMARK    1  A    between atoms: C_1  and  C_2
REMARK    2  A    between atoms: C_5  and  C_6
REMARK    3  A    between atoms: N_10  and  C_11
REMARK    4  A    between atoms: C_11  and  C_12
REMARK                            x       y       z     vdW  Elec       q    Type
REMARK                         _______ _______ _______ _____ _____    ______ ____
ROOT
ATOM      1  C   UNL     1       4.233   5.867  17.101  0.00  0.00    +0.000 C 
ATOM      2  C   UNL     1       4.051   4.357  17.270  0.00  0.00    +0.000 C 
ATOM      3  C   UNL     1       2.602   4.039  17.603  0.00  0.00    +0.000 C 
ATOM      4  C   UNL     1       2.132   4.829  18.827  0.00  0.00    +0.000 C 
ATOM      5  N   UNL     1       2.284   6.287  18.641  0.00  0.00    +0.000 NA
ATOM      6  C   UNL     1       3.672   6.637  18.290  0.00  0.00    +0.000 C 
ENDROOT
BRANCH   1  11
ATOM      7  C   UNL     1       8.201   8.389  17.889  0.00  0.00    +0.000 C 
ATOM      8  C   UNL     1       7.436   7.286  17.310  0.00  0.00    +0.000 A 
ATOM      9  N   UNL     1       7.700   6.499  16.282  0.00  0.00    +0.000 NA
ATOM     10  N   UNL     1       6.544   5.782  16.045  0.00  0.00    +0.000 NA
ATOM     11  C   UNL     1       5.670   6.193  16.945  0.00  0.00    +0.000 A 
ATOM     12  O   UNL     1       6.183   7.108  17.812  0.00  0.00    +0.000 OA
ENDBRANCH   1  11
BRANCH   5  13
ATOM     13  C   UNL     1       1.980   7.017  19.901  0.00  0.00    +0.000 C 
BRANCH  13  14
ATOM     14  C   UNL     1       1.513   8.444  19.727  0.00  0.00    +0.000 A 
ATOM     15  N   UNL     1       1.754   8.968  18.491  0.00  0.00    +0.000 NA
ATOM     16  C   UNL     1       1.397  10.243  18.275  0.00  0.00    +0.000 A 
ATOM     17  C   UNL     1       0.777  11.030  19.222  0.00  0.00    +0.000 A 
ATOM     18  C   UNL     1       0.488  10.479  20.475  0.00  0.00    +0.000 A 
ATOM     19  C   UNL     1       0.900   9.166  20.761  0.00  0.00    +0.000 A 
ATOM     20  C   UNL     1       0.627   8.538  22.108  0.00  0.00    +0.000 C 
ATOM     21  C   UNL     1       0.204   9.537  23.184  0.00  0.00    +0.000 C 
ATOM     22  C   UNL     1      -0.828  10.507  22.629  0.00  0.00    +0.000 C 
ATOM     23  C   UNL     1      -0.212  11.331  21.502  0.00  0.00    +0.000 C 
ENDBRANCH  13  14
ENDBRANCH   5  13
TORSDOF 3
ENDMDL
