MODEL 1
REMARK VINA RESULT:      -7.5      0.000      0.000
REMARK  Name = 
REMARK  9 active torsions:
REMARK  status: ('A' for Active; 'I' for Inactive)
REMARK    1  A    between atoms: C_1  and  O_2
REMARK    2  A    between atoms: O_2  and  C_3
REMARK    3  A    between atoms: C_6  and  N_7
REMARK    4  A    between atoms: N_10  and  C_11
REMARK    5  A    between atoms: C_11  and  C_12
REMARK    6  A    between atoms: C_12  and  C_13
REMARK    7  A    between atoms: C_13  and  O_14
REMARK    8  A    between atoms: C_13  and  C_18
REMARK    9  A    between atoms: O_14  and  C_15
REMARK                            x       y       z     vdW  Elec       q    Type
REMARK                         _______ _______ _______ _____ _____    ______ ____
ROOT
ATOM      1  C   UNL     1       4.698   5.198  19.097  0.00  0.00    +0.000 C 
ENDROOT
BRANCH   1   2
ATOM      2  C   UNL     1       4.087   6.384  18.354  0.00  0.00    +0.000 C 
BRANCH   2   6
ATOM      3  N   UNL     1       1.580   8.263  20.072  0.00  0.00    +0.000 N 
ATOM      4  C   UNL     1       2.059   6.969  20.579  0.00  0.00    +0.000 C 
ATOM      5  C   UNL     1       1.932   5.900  19.473  0.00  0.00    +0.000 C 
ATOM      6  N   UNL     1       2.622   6.245  18.201  0.00  0.00    +0.000 NA
ATOM      7  C   UNL     1       2.029   7.526  17.734  0.00  0.00    +0.000 C 
ATOM      8  C   UNL     1       2.095   8.686  18.760  0.00  0.00    +0.000 C 
BRANCH   3  12
ATOM      9  C   UNL     1      -0.759  10.792  22.502  0.00  0.00    +0.000 A 
ATOM     10  C   UNL     1      -0.597  11.068  21.149  0.00  0.00    +0.000 A 
ATOM     11  C   UNL     1       0.144  10.206  20.335  0.00  0.00    +0.000 A 
ATOM     12  C   UNL     1       0.768   9.060  20.851  0.00  0.00    +0.000 A 
ATOM     13  C   UNL     1       0.582   8.799  22.215  0.00  0.00    +0.000 A 
ATOM     14  C   UNL     1      -0.166   9.652  23.035  0.00  0.00    +0.000 A 
BRANCH   9  16
ATOM     15  C   UNL     1      -1.755  12.926  22.508  0.00  0.00    +0.000 C 
ATOM     16  O   UNL     1      -1.471  11.720  23.207  0.00  0.00    +0.000 OA
ENDBRANCH   9  16
ENDBRANCH   3  12
ENDBRANCH   2   6
ENDBRANCH   1   2
BRANCH   1  17
ATOM     17  C   UNL     1       4.900   3.942  18.226  0.00  0.00    +0.000 C 
BRANCH  17  18
ATOM     18  C   UNL     1       5.611   4.233  16.907  0.00  0.00    +0.000 A 
ATOM     19  C   UNL     1       4.918   4.100  15.682  0.00  0.00    +0.000 A 
ATOM     20  C   UNL     1       5.527   4.389  14.462  0.00  0.00    +0.000 A 
ATOM     21  C   UNL     1       6.846   4.805  14.438  0.00  0.00    +0.000 A 
ATOM     22 CL   UNL     1       7.592   5.171  12.932  0.00  0.00    +0.000 Cl
ATOM     23  C   UNL     1       7.569   4.923  15.621  0.00  0.00    +0.000 A 
ATOM     24  C   UNL     1       6.960   4.633  16.849  0.00  0.00    +0.000 A 
ATOM     25 CL   UNL     1       7.930   4.796  18.268  0.00  0.00    +0.000 Cl
ENDBRANCH  17  18
BRANCH  17  26
ATOM     26  O   UNL     1       3.689   3.171  18.021  0.00  0.00    +0.000 OA
BRANCH  26  27
ATOM     27  C   UNL     1       3.373   2.166  18.863  0.00  0.00    +0.000 C 
ATOM     28  N   UNL     1       3.881   0.998  18.412  0.00  0.00    +0.000 N 
ATOM     29  O   UNL     1       2.744   2.244  19.906  0.00  0.00    +0.000 OA
ATOM     30  H   UNL     1       4.426   0.964  17.565  0.00  0.00    +0.000 HD
ATOM     31  H   UNL     1       3.714   0.158  18.946  0.00  0.00    +0.000 HD
ENDBRANCH  26  27
ENDBRANCH  17  26
ENDBRANCH   1  17
TORSDOF 8
ENDMDL
MODEL 2
REMARK VINA RESULT:      -7.1      0.967      1.325
REMARK  Name = 
REMARK  9 active torsions:
REMARK  status: ('A' for Active; 'I' for Inactive)
REMARK    1  A    between atoms: C_1  and  O_2
REMARK    2  A    between atoms: O_2  and  C_3
REMARK    3  A    between atoms: C_6  and  N_7
REMARK    4  A    between atoms: N_10  and  C_11
REMARK    5  A    between atoms: C_11  and  C_12
REMARK    6  A    between atoms: C_12  and  C_13
REMARK    7  A    between atoms: C_13  and  O_14
REMARK    8  A    between atoms: C_13  and  C_18
REMARK    9  A    between atoms: O_14  and  C_15
REMARK                            x       y       z     vdW  Elec       q    Type
REMARK                         _______ _______ _______ _____ _____    ______ ____
ROOT
ATOM      1  C   UNL     1       4.542   5.537  19.512  0.00  0.00    +0.000 C 
ENDROOT
BRANCH   1   2
ATOM      2  C   UNL     1       3.974   6.494  18.466  0.00  0.00    +0.000 C 
BRANCH   2   6
ATOM      3  N   UNL     1       1.466   8.775  19.593  0.00  0.00    +0.000 N 
ATOM      4  C   UNL     1       1.908   7.642  20.420  0.00  0.00    +0.000 C 
ATOM      5  C   UNL     1       1.785   6.333  19.612  0.00  0.00    +0.000 C 
ATOM      6  N   UNL     1       2.510   6.340  18.313  0.00  0.00    +0.000 NA
ATOM      7  C   UNL     1       1.952   7.471  17.527  0.00  0.00    +0.000 C 
ATOM      8  C   UNL     1       2.018   8.850  18.232  0.00  0.00    +0.000 C 
BRANCH   3  12
ATOM      9  C   UNL     1      -1.150  11.635  21.253  0.00  0.00    +0.000 A 
ATOM     10  C   UNL     1      -0.209  10.994  22.051  0.00  0.00    +0.000 A 
ATOM     11  C   UNL     1       0.686  10.077  21.492  0.00  0.00    +0.000 A 
ATOM     12  C   UNL     1       0.651   9.752  20.128  0.00  0.00    +0.000 A 
ATOM     13  C   UNL     1      -0.300  10.418  19.344  0.00  0.00    +0.000 A 
ATOM     14  C   UNL     1      -1.194  11.344  19.894  0.00  0.00    +0.000 A 
BRANCH   9  16
ATOM     15  C   UNL     1      -1.470  13.062  23.099  0.00  0.00    +0.000 C 
ATOM     16  O   UNL     1      -1.995  12.482  21.911  0.00  0.00    +0.000 OA
ENDBRANCH   9  16
ENDBRANCH   3  12
ENDBRANCH   2   6
ENDBRANCH   1   2
BRANCH   1  17
ATOM     17  C   UNL     1       5.140   4.243  18.926  0.00  0.00    +0.000 C 
BRANCH  17  18
ATOM     18  C   UNL     1       5.719   4.428  17.525  0.00  0.00    +0.000 A 
ATOM     19  C   UNL     1       5.025   3.932  16.399  0.00  0.00    +0.000 A 
ATOM     20  C   UNL     1       5.508   4.112  15.103  0.00  0.00    +0.000 A 
ATOM     21  C   UNL     1       6.703   4.782  14.906  0.00  0.00    +0.000 A 
ATOM     22 CL   UNL     1       7.292   5.013  13.307  0.00  0.00    +0.000 Cl
ATOM     23  C   UNL     1       7.428   5.263  15.993  0.00  0.00    +0.000 A 
ATOM     24  C   UNL     1       6.945   5.082  17.296  0.00  0.00    +0.000 A 
ATOM     25 CL   UNL     1       7.911   5.701  18.587  0.00  0.00    +0.000 Cl
ENDBRANCH  17  18
BRANCH  17  26
ATOM     26  O   UNL     1       4.246   3.104  18.987  0.00  0.00    +0.000 OA
BRANCH  26  27
ATOM     27  C   UNL     1       4.109   2.407  20.133  0.00  0.00    +0.000 C 
ATOM     28  N   UNL     1       5.146   1.554  20.290  0.00  0.00    +0.000 N 
ATOM     29  O   UNL     1       3.217   2.508  20.960  0.00  0.00    +0.000 OA
ATOM     30  H   UNL     1       5.889   1.513  19.611  0.00  0.00    +0.000 HD
ATOM     31  H   UNL     1       5.168   0.963  21.108  0.00  0.00    +0.000 HD
ENDBRANCH  26  27
ENDBRANCH  17  26
ENDBRANCH   1  17
TORSDOF 8
ENDMDL
MODEL 3
REMARK VINA RESULT:      -6.9      1.056      1.465
REMARK  Name = 
REMARK  9 active torsions:
REMARK  status: ('A' for Active; 'I' for Inactive)
REMARK    1  A    between atoms: C_1  and  O_2
REMARK    2  A    between atoms: O_2  and  C_3
REMARK    3  A    between atoms: C_6  and  N_7
REMARK    4  A    between atoms: N_10  and  C_11
REMARK    5  A    between atoms: C_11  and  C_12
REMARK    6  A    between atoms: C_12  and  C_13
REMARK    7  A    between atoms: C_13  and  O_14
REMARK    8  A    between atoms: C_13  and  C_18
REMARK    9  A    between atoms: O_14  and  C_15
REMARK                            x       y       z     vdW  Elec       q    Type
REMARK                         _______ _______ _______ _____ _____    ______ ____
ROOT
ATOM      1  C   UNL     1       2.756   4.156  17.112  0.00  0.00    +0.000 C 
ENDROOT
BRANCH   1   2
ATOM      2  C   UNL     1       2.071   5.226  17.961  0.00  0.00    +0.000 C 
BRANCH   2   6
ATOM      3  N   UNL     1       1.342   8.190  19.818  0.00  0.00    +0.000 N 
ATOM      4  C   UNL     1       1.682   8.238  18.388  0.00  0.00    +0.000 C 
ATOM      5  C   UNL     1       3.020   7.505  18.150  0.00  0.00    +0.000 C 
ATOM      6  N   UNL     1       3.049   6.101  18.643  0.00  0.00    +0.000 NA
ATOM      7  C   UNL     1       2.761   6.161  20.100  0.00  0.00    +0.000 C 
ATOM      8  C   UNL     1       1.437   6.875  20.473  0.00  0.00    +0.000 C 
BRANCH   3  12
ATOM      9  C   UNL     1       0.061  11.655  21.849  0.00  0.00    +0.000 A 
ATOM     10  C   UNL     1       0.498  11.732  20.532  0.00  0.00    +0.000 A 
ATOM     11  C   UNL     1       0.882  10.576  19.846  0.00  0.00    +0.000 A 
ATOM     12  C   UNL     1       0.869   9.315  20.461  0.00  0.00    +0.000 A 
ATOM     13  C   UNL     1       0.417   9.264  21.785  0.00  0.00    +0.000 A 
ATOM     14  C   UNL     1       0.022  10.415  22.477  0.00  0.00    +0.000 A 
BRANCH   9  16
ATOM     15  C   UNL     1      -1.538  12.906  23.042  0.00  0.00    +0.000 C 
ATOM     16  O   UNL     1      -0.254  12.850  22.432  0.00  0.00    +0.000 OA
ENDBRANCH   9  16
ENDBRANCH   3  12
ENDBRANCH   2   6
ENDBRANCH   1   2
BRANCH   1  17
ATOM     17  C   UNL     1       4.217   3.869  17.516  0.00  0.00    +0.000 C 
BRANCH  17  18
ATOM     18  C   UNL     1       5.221   4.206  16.417  0.00  0.00    +0.000 A 
ATOM     19  C   UNL     1       4.896   3.969  15.061  0.00  0.00    +0.000 A 
ATOM     20  C   UNL     1       5.776   4.294  14.030  0.00  0.00    +0.000 A 
ATOM     21  C   UNL     1       7.006   4.853  14.332  0.00  0.00    +0.000 A 
ATOM     22 CL   UNL     1       8.085   5.263  13.058  0.00  0.00    +0.000 Cl
ATOM     23  C   UNL     1       7.371   5.078  15.656  0.00  0.00    +0.000 A 
ATOM     24  C   UNL     1       6.490   4.751  16.694  0.00  0.00    +0.000 A 
ATOM     25 CL   UNL     1       7.025   5.054  18.307  0.00  0.00    +0.000 Cl
ENDBRANCH  17  18
BRANCH  17  26
ATOM     26  O   UNL     1       4.427   2.535  18.042  0.00  0.00    +0.000 OA
BRANCH  26  27
ATOM     27  C   UNL     1       4.034   2.229  19.295  0.00  0.00    +0.000 C 
ATOM     28  N   UNL     1       5.110   2.044  20.092  0.00  0.00    +0.000 N 
ATOM     29  O   UNL     1       2.891   2.142  19.712  0.00  0.00    +0.000 OA
ATOM     30  H   UNL     1       6.045   2.154  19.732  0.00  0.00    +0.000 HD
ATOM     31  H   UNL     1       4.961   1.802  21.060  0.00  0.00    +0.000 HD
ENDBRANCH  26  27
ENDBRANCH  17  26
ENDBRANCH   1  17
TORSDOF 8
ENDMDL
MODEL 4
REMARK VINA RESULT:      -6.9      0.980      1.651
REMARK  Name = 
REMARK  9 active torsions:
REMARK  status: ('A' for Active; 'I' for Inactive)
REMARK    1  A    between atoms: C_1  and  O_2
REMARK    2  A    between atoms: O_2  and  C_3
REMARK    3  A    between atoms: C_6  and  N_7
REMARK    4  A    between atoms: N_10  and  C_11
REMARK    5  A    between atoms: C_11  and  C_12
REMARK    6  A    between atoms: C_12  and  C_13
REMARK    7  A    between atoms: C_13  and  O_14
REMARK    8  A    between atoms: C_13  and  C_18
REMARK    9  A    between atoms: O_14  and  C_15
REMARK                            x       y       z     vdW  Elec       q    Type
REMARK                         _______ _______ _______ _____ _____    ______ ____
ROOT
ATOM      1  C   UNL     1       2.739   4.322  17.090  0.00  0.00    +0.000 C 
ENDROOT
BRANCH   1   2
ATOM      2  C   UNL     1       2.038   5.067  18.224  0.00  0.00    +0.000 C 
BRANCH   2   6
ATOM      3  N   UNL     1       1.277   7.895  20.271  0.00  0.00    +0.000 N 
ATOM      4  C   UNL     1       1.732   8.048  18.881  0.00  0.00    +0.000 C 
ATOM      5  C   UNL     1       3.056   7.277  18.683  0.00  0.00    +0.000 C 
ATOM      6  N   UNL     1       2.991   5.838  19.052  0.00  0.00    +0.000 NA
ATOM      7  C   UNL     1       2.589   5.788  20.482  0.00  0.00    +0.000 C 
ATOM      8  C   UNL     1       1.268   6.528  20.814  0.00  0.00    +0.000 C 
BRANCH   3  12
ATOM      9  C   UNL     1      -0.349  11.189  22.340  0.00  0.00    +0.000 A 
ATOM     10  C   UNL     1      -0.264   9.945  22.953  0.00  0.00    +0.000 A 
ATOM     11  C   UNL     1       0.314   8.863  22.281  0.00  0.00    +0.000 A 
ATOM     12  C   UNL     1       0.798   8.983  20.970  0.00  0.00    +0.000 A 
ATOM     13  C   UNL     1       0.708  10.250  20.378  0.00  0.00    +0.000 A 
ATOM     14  C   UNL     1       0.139  11.340  21.046  0.00  0.00    +0.000 A 
BRANCH   9  16
ATOM     15  C   UNL     1      -1.237  13.370  22.373  0.00  0.00    +0.000 C 
ATOM     16  O   UNL     1      -0.965  12.163  23.074  0.00  0.00    +0.000 OA
ENDBRANCH   9  16
ENDBRANCH   3  12
ENDBRANCH   2   6
ENDBRANCH   1   2
BRANCH   1  17
ATOM     17  C   UNL     1       4.152   3.816  17.446  0.00  0.00    +0.000 C 
BRANCH  17  18
ATOM     18  C   UNL     1       5.203   4.184  16.401  0.00  0.00    +0.000 A 
ATOM     19  C   UNL     1       4.971   3.908  15.034  0.00  0.00    +0.000 A 
ATOM     20  C   UNL     1       5.893   4.259  14.050  0.00  0.00    +0.000 A 
ATOM     21  C   UNL     1       7.075   4.883  14.411  0.00  0.00    +0.000 A 
ATOM     22 CL   UNL     1       8.207   5.324  13.195  0.00  0.00    +0.000 Cl
ATOM     23  C   UNL     1       7.350   5.147  15.750  0.00  0.00    +0.000 A 
ATOM     24  C   UNL     1       6.425   4.795  16.741  0.00  0.00    +0.000 A 
ATOM     25 CL   UNL     1       6.848   5.150  18.377  0.00  0.00    +0.000 Cl
ENDBRANCH  17  18
BRANCH  17  26
ATOM     26  O   UNL     1       4.202   2.407  17.782  0.00  0.00    +0.000 OA
BRANCH  26  27
ATOM     27  C   UNL     1       3.816   1.985  19.003  0.00  0.00    +0.000 C 
ATOM     28  N   UNL     1       4.838   2.091  19.881  0.00  0.00    +0.000 N 
ATOM     29  O   UNL     1       2.713   1.581  19.332  0.00  0.00    +0.000 OA
ATOM     30  H   UNL     1       5.730   2.460  19.593  0.00  0.00    +0.000 HD
ATOM     31  H   UNL     1       4.689   1.802  20.837  0.00  0.00    +0.000 HD
ENDBRANCH  26  27
ENDBRANCH  17  26
ENDBRANCH   1  17
TORSDOF 8
ENDMDL
MODEL 5
REMARK VINA RESULT:      -6.9      1.089      1.264
REMARK  Name = 
REMARK  9 active torsions:
REMARK  status: ('A' for Active; 'I' for Inactive)
REMARK    1  A    between atoms: C_1  and  O_2
REMARK    2  A    between atoms: O_2  and  C_3
REMARK    3  A    between atoms: C_6  and  N_7
REMARK    4  A    between atoms: N_10  and  C_11
REMARK    5  A    between atoms: C_11  and  C_12
REMARK    6  A    between atoms: C_12  and  C_13
REMARK    7  A    between atoms: C_13  and  O_14
REMARK    8  A    between atoms: C_13  and  C_18
REMARK    9  A    between atoms: O_14  and  C_15
REMARK                            x       y       z     vdW  Elec       q    Type
REMARK                         _______ _______ _______ _____ _____    ______ ____
ROOT
ATOM      1  C   UNL     1       4.915   5.233  19.314  0.00  0.00    +0.000 C 
ENDROOT
BRANCH   1   2
ATOM      2  C   UNL     1       4.228   6.437  18.673  0.00  0.00    +0.000 C 
BRANCH   2   6
ATOM      3  N   UNL     1       1.551   8.711  19.329  0.00  0.00    +0.000 N 
ATOM      4  C   UNL     1       1.977   7.712  20.321  0.00  0.00    +0.000 C 
ATOM      5  C   UNL     1       1.969   6.308  19.677  0.00  0.00    +0.000 C 
ATOM      6  N   UNL     1       2.788   6.193  18.441  0.00  0.00    +0.000 NA
ATOM      7  C   UNL     1       2.244   7.189  17.481  0.00  0.00    +0.000 C 
ATOM      8  C   UNL     1       2.200   8.646  18.010  0.00  0.00    +0.000 C 
BRANCH   3  12
ATOM      9  C   UNL     1      -1.047  11.866  20.363  0.00  0.00    +0.000 A 
ATOM     10  C   UNL     1      -1.041  11.353  19.071  0.00  0.00    +0.000 A 
ATOM     11  C   UNL     1      -0.210  10.279  18.740  0.00  0.00    +0.000 A 
ATOM     12  C   UNL     1       0.660   9.703  19.679  0.00  0.00    +0.000 A 
ATOM     13  C   UNL     1       0.628  10.232  20.975  0.00  0.00    +0.000 A 
ATOM     14  C   UNL     1      -0.207  11.302  21.317  0.00  0.00    +0.000 A 
BRANCH   9  16
ATOM     15  C   UNL     1      -3.251  12.693  20.323  0.00  0.00    +0.000 C 
ATOM     16  O   UNL     1      -1.871  12.937  20.563  0.00  0.00    +0.000 OA
ENDBRANCH   9  16
ENDBRANCH   3  12
ENDBRANCH   2   6
ENDBRANCH   1   2
BRANCH   1  17
ATOM     17  C   UNL     1       4.985   3.988  18.406  0.00  0.00    +0.000 C 
BRANCH  17  18
ATOM     18  C   UNL     1       5.654   4.261  17.062  0.00  0.00    +0.000 A 
ATOM     19  C   UNL     1       4.913   4.143  15.864  0.00  0.00    +0.000 A 
ATOM     20  C   UNL     1       5.483   4.416  14.621  0.00  0.00    +0.000 A 
ATOM     21  C   UNL     1       6.810   4.801  14.547  0.00  0.00    +0.000 A 
ATOM     22 CL   UNL     1       7.507   5.148  13.014  0.00  0.00    +0.000 Cl
ATOM     23  C   UNL     1       7.578   4.904  15.703  0.00  0.00    +0.000 A 
ATOM     24  C   UNL     1       7.009   4.629  16.953  0.00  0.00    +0.000 A 
ATOM     25 CL   UNL     1       8.034   4.771  18.335  0.00  0.00    +0.000 Cl
ENDBRANCH  17  18
BRANCH  17  26
ATOM     26  O   UNL     1       3.714   3.310  18.243  0.00  0.00    +0.000 OA
BRANCH  26  27
ATOM     27  C   UNL     1       3.293   2.423  19.167  0.00  0.00    +0.000 C 
ATOM     28  N   UNL     1       2.439   1.536  18.611  0.00  0.00    +0.000 N 
ATOM     29  O   UNL     1       3.620   2.365  20.341  0.00  0.00    +0.000 OA
ATOM     30  H   UNL     1       2.210   1.584  17.631  0.00  0.00    +0.000 HD
ATOM     31  H   UNL     1       2.040   0.815  19.194  0.00  0.00    +0.000 HD
ENDBRANCH  26  27
ENDBRANCH  17  26
ENDBRANCH   1  17
TORSDOF 8
ENDMDL
MODEL 6
REMARK VINA RESULT:      -6.8      2.229      2.809
REMARK  Name = 
REMARK  9 active torsions:
REMARK  status: ('A' for Active; 'I' for Inactive)
REMARK    1  A    between atoms: C_1  and  O_2
REMARK    2  A    between atoms: O_2  and  C_3
REMARK    3  A    between atoms: C_6  and  N_7
REMARK    4  A    between atoms: N_10  and  C_11
REMARK    5  A    between atoms: C_11  and  C_12
REMARK    6  A    between atoms: C_12  and  C_13
REMARK    7  A    between atoms: C_13  and  O_14
REMARK    8  A    between atoms: C_13  and  C_18
REMARK    9  A    between atoms: O_14  and  C_15
REMARK                            x       y       z     vdW  Elec       q    Type
REMARK                         _______ _______ _______ _____ _____    ______ ____
ROOT
ATOM      1  C   UNL     1       2.254   4.676  17.833  0.00  0.00    +0.000 C 
ENDROOT
BRANCH   1   2
ATOM      2  C   UNL     1       1.687   5.793  18.707  0.00  0.00    +0.000 C 
BRANCH   2   6
ATOM      3  N   UNL     1       1.285   9.337  18.919  0.00  0.00    +0.000 N 
ATOM      4  C   UNL     1       1.774   8.687  17.694  0.00  0.00    +0.000 C 
ATOM      5  C   UNL     1       2.985   7.791  18.033  0.00  0.00    +0.000 C 
ATOM      6  N   UNL     1       2.724   6.776  19.089  0.00  0.00    +0.000 NA
ATOM      7  C   UNL     1       2.301   7.529  20.299  0.00  0.00    +0.000 C 
ATOM      8  C   UNL     1       1.086   8.469  20.090  0.00  0.00    +0.000 C 
BRANCH   3  12
ATOM      9  C   UNL     1       0.215  13.410  18.718  0.00  0.00    +0.000 A 
ATOM     10  C   UNL     1      -0.724  12.453  19.084  0.00  0.00    +0.000 A 
ATOM     11  C   UNL     1      -0.358  11.108  19.192  0.00  0.00    +0.000 A 
ATOM     12  C   UNL     1       0.946  10.674  18.910  0.00  0.00    +0.000 A 
ATOM     13  C   UNL     1       1.876  11.659  18.552  0.00  0.00    +0.000 A 
ATOM     14  C   UNL     1       1.520  13.009  18.451  0.00  0.00    +0.000 A 
BRANCH   9  16
ATOM     15  C   UNL     1       0.689  15.712  18.866  0.00  0.00    +0.000 C 
ATOM     16  O   UNL     1      -0.262  14.685  18.610  0.00  0.00    +0.000 OA
ENDBRANCH   9  16
ENDBRANCH   3  12
ENDBRANCH   2   6
ENDBRANCH   1   2
BRANCH   1  17
ATOM     17  C   UNL     1       3.637   4.163  18.282  0.00  0.00    +0.000 C 
BRANCH  17  18
ATOM     18  C   UNL     1       4.736   4.416  17.253  0.00  0.00    +0.000 A 
ATOM     19  C   UNL     1       4.523   4.093  15.894  0.00  0.00    +0.000 A 
ATOM     20  C   UNL     1       5.491   4.341  14.922  0.00  0.00    +0.000 A 
ATOM     21  C   UNL     1       6.700   4.906  15.290  0.00  0.00    +0.000 A 
ATOM     22 CL   UNL     1       7.889   5.220  14.088  0.00  0.00    +0.000 Cl
ATOM     23  C   UNL     1       6.956   5.214  16.623  0.00  0.00    +0.000 A 
ATOM     24  C   UNL     1       5.985   4.965  17.602  0.00  0.00    +0.000 A 
ATOM     25 CL   UNL     1       6.387   5.368  19.231  0.00  0.00    +0.000 Cl
ENDBRANCH  17  18
BRANCH  17  26
ATOM     26  O   UNL     1       3.633   2.784  18.731  0.00  0.00    +0.000 OA
BRANCH  26  27
ATOM     27  C   UNL     1       3.999   2.479  19.992  0.00  0.00    +0.000 C 
ATOM     28  N   UNL     1       2.978   2.714  20.847  0.00  0.00    +0.000 N 
ATOM     29  O   UNL     1       5.070   2.029  20.365  0.00  0.00    +0.000 OA
ATOM     30  H   UNL     1       2.091   3.054  20.511  0.00  0.00    +0.000 HD
ATOM     31  H   UNL     1       3.117   2.534  21.830  0.00  0.00    +0.000 HD
ENDBRANCH  26  27
ENDBRANCH  17  26
ENDBRANCH   1  17
TORSDOF 8
ENDMDL
MODEL 7
REMARK VINA RESULT:      -6.8      1.408      2.035
REMARK  Name = 
REMARK  9 active torsions:
REMARK  status: ('A' for Active; 'I' for Inactive)
REMARK    1  A    between atoms: C_1  and  O_2
REMARK    2  A    between atoms: O_2  and  C_3
REMARK    3  A    between atoms: C_6  and  N_7
REMARK    4  A    between atoms: N_10  and  C_11
REMARK    5  A    between atoms: C_11  and  C_12
REMARK    6  A    between atoms: C_12  and  C_13
REMARK    7  A    between atoms: C_13  and  O_14
REMARK    8  A    between atoms: C_13  and  C_18
REMARK    9  A    between atoms: O_14  and  C_15
REMARK                            x       y       z     vdW  Elec       q    Type
REMARK                         _______ _______ _______ _____ _____    ______ ____
ROOT
ATOM      1  C   UNL     1       3.012   4.316  18.103  0.00  0.00    +0.000 C 
ENDROOT
BRANCH   1   2
ATOM      2  C   UNL     1       2.285   5.659  18.160  0.00  0.00    +0.000 C 
BRANCH   2   6
ATOM      3  N   UNL     1       1.246   8.909  19.220  0.00  0.00    +0.000 N 
ATOM      4  C   UNL     1       1.694   8.652  17.842  0.00  0.00    +0.000 C 
ATOM      5  C   UNL     1       3.085   7.984  17.867  0.00  0.00    +0.000 C 
ATOM      6  N   UNL     1       3.156   6.738  18.676  0.00  0.00    +0.000 NA
ATOM      7  C   UNL     1       2.752   7.110  20.057  0.00  0.00    +0.000 C 
ATOM      8  C   UNL     1       1.364   7.791  20.169  0.00  0.00    +0.000 C 
BRANCH   3  12
ATOM      9  C   UNL     1      -0.689  12.504  20.271  0.00  0.00    +0.000 A 
ATOM     10  C   UNL     1       0.102  11.834  21.196  0.00  0.00    +0.000 A 
ATOM     11  C   UNL     1       0.778  10.665  20.834  0.00  0.00    +0.000 A 
ATOM     12  C   UNL     1       0.662  10.114  19.549  0.00  0.00    +0.000 A 
ATOM     13  C   UNL     1      -0.134  10.814  18.632  0.00  0.00    +0.000 A 
ATOM     14  C   UNL     1      -0.807  11.990  18.984  0.00  0.00    +0.000 A 
BRANCH   9  16
ATOM     15  C   UNL     1      -0.990  14.833  20.094  0.00  0.00    +0.000 C 
ATOM     16  O   UNL     1      -1.330  13.614  20.743  0.00  0.00    +0.000 OA
ENDBRANCH   9  16
ENDBRANCH   3  12
ENDBRANCH   2   6
ENDBRANCH   1   2
BRANCH   1  17
ATOM     17  C   UNL     1       4.527   4.406  18.375  0.00  0.00    +0.000 C 
BRANCH  17  18
ATOM     18  C   UNL     1       5.357   4.566  17.103  0.00  0.00    +0.000 A 
ATOM     19  C   UNL     1       4.866   4.079  15.870  0.00  0.00    +0.000 A 
ATOM     20  C   UNL     1       5.583   4.236  14.684  0.00  0.00    +0.000 A 
ATOM     21  C   UNL     1       6.811   4.873  14.707  0.00  0.00    +0.000 A 
ATOM     22 CL   UNL     1       7.688   5.075  13.242  0.00  0.00    +0.000 Cl
ATOM     23  C   UNL     1       7.338   5.343  15.906  0.00  0.00    +0.000 A 
ATOM     24  C   UNL     1       6.621   5.186  17.100  0.00  0.00    +0.000 A 
ATOM     25 CL   UNL     1       7.351   5.788  18.543  0.00  0.00    +0.000 Cl
ENDBRANCH  17  18
BRANCH  17  26
ATOM     26  O   UNL     1       5.036   3.340  19.215  0.00  0.00    +0.000 OA
BRANCH  26  27
ATOM     27  C   UNL     1       4.205   2.384  19.678  0.00  0.00    +0.000 C 
ATOM     28  N   UNL     1       4.244   1.299  18.873  0.00  0.00    +0.000 N 
ATOM     29  O   UNL     1       3.515   2.426  20.683  0.00  0.00    +0.000 OA
ATOM     30  H   UNL     1       4.848   1.275  18.067  0.00  0.00    +0.000 HD
ATOM     31  H   UNL     1       3.663   0.505  19.100  0.00  0.00    +0.000 HD
ENDBRANCH  26  27
ENDBRANCH  17  26
ENDBRANCH   1  17
TORSDOF 8
ENDMDL
MODEL 8
REMARK VINA RESULT:      -6.8      1.031      1.069
REMARK  Name = 
REMARK  9 active torsions:
REMARK  status: ('A' for Active; 'I' for Inactive)
REMARK    1  A    between atoms: C_1  and  O_2
REMARK    2  A    between atoms: O_2  and  C_3
REMARK    3  A    between atoms: C_6  and  N_7
REMARK    4  A    between atoms: N_10  and  C_11
REMARK    5  A    between atoms: C_11  and  C_12
REMARK    6  A    between atoms: C_12  and  C_13
REMARK    7  A    between atoms: C_13  and  O_14
REMARK    8  A    between atoms: C_13  and  C_18
REMARK    9  A    between atoms: O_14  and  C_15
REMARK                            x       y       z     vdW  Elec       q    Type
REMARK                         _______ _______ _______ _____ _____    ______ ____
ROOT
ATOM      1  C   UNL     1       4.576   5.224  18.494  0.00  0.00    +0.000 C 
ENDROOT
BRANCH   1   2
ATOM      2  C   UNL     1       3.608   5.063  19.665  0.00  0.00    +0.000 C 
BRANCH   2   6
ATOM      3  N   UNL     1       1.468   7.792  20.525  0.00  0.00    +0.000 N 
ATOM      4  C   UNL     1       1.500   6.554  21.319  0.00  0.00    +0.000 C 
ATOM      5  C   UNL     1       1.259   5.340  20.396  0.00  0.00    +0.000 C 
ATOM      6  N   UNL     1       2.201   5.244  19.248  0.00  0.00    +0.000 NA
ATOM      7  C   UNL     1       2.050   6.503  18.473  0.00  0.00    +0.000 C 
ATOM      8  C   UNL     1       2.270   7.802  19.291  0.00  0.00    +0.000 C 
BRANCH   3  12
ATOM      9  C   UNL     1      -0.454  11.229  22.030  0.00  0.00    +0.000 A 
ATOM     10  C   UNL     1       0.162  11.256  20.784  0.00  0.00    +0.000 A 
ATOM     11  C   UNL     1       0.763  10.103  20.268  0.00  0.00    +0.000 A 
ATOM     12  C   UNL     1       0.791   8.900  20.989  0.00  0.00    +0.000 A 
ATOM     13  C   UNL     1       0.155   8.897  22.237  0.00  0.00    +0.000 A 
ATOM     14  C   UNL     1      -0.456  10.044  22.758  0.00  0.00    +0.000 A 
BRANCH   9  16
ATOM     15  C   UNL     1      -0.221  13.571  22.092  0.00  0.00    +0.000 C 
ATOM     16  O   UNL     1      -0.975  12.419  22.450  0.00  0.00    +0.000 OA
ENDBRANCH   9  16
ENDBRANCH   3  12
ENDBRANCH   2   6
ENDBRANCH   1   2
BRANCH   1  17
ATOM     17  C   UNL     1       4.744   3.956  17.634  0.00  0.00    +0.000 C 
BRANCH  17  18
ATOM     18  C   UNL     1       5.533   4.200  16.350  0.00  0.00    +0.000 A 
ATOM     19  C   UNL     1       4.890   4.109  15.094  0.00  0.00    +0.000 A 
ATOM     20  C   UNL     1       5.572   4.358  13.903  0.00  0.00    +0.000 A 
ATOM     21  C   UNL     1       6.915   4.691  13.941  0.00  0.00    +0.000 A 
ATOM     22 CL   UNL     1       7.751   5.007  12.472  0.00  0.00    +0.000 Cl
ATOM     23  C   UNL     1       7.588   4.765  15.157  0.00  0.00    +0.000 A 
ATOM     24  C   UNL     1       6.905   4.514  16.355  0.00  0.00    +0.000 A 
ATOM     25 CL   UNL     1       7.817   4.618  17.817  0.00  0.00    +0.000 Cl
ENDBRANCH  17  18
BRANCH  17  26
ATOM     26  O   UNL     1       3.501   3.256  17.373  0.00  0.00    +0.000 OA
BRANCH  26  27
ATOM     27  C   UNL     1       3.257   2.064  17.952  0.00  0.00    +0.000 C 
ATOM     28  N   UNL     1       1.948   1.954  18.268  0.00  0.00    +0.000 N 
ATOM     29  O   UNL     1       4.056   1.165  18.163  0.00  0.00    +0.000 OA
ATOM     30  H   UNL     1       1.301   2.696  18.053  0.00  0.00    +0.000 HD
ATOM     31  H   UNL     1       1.625   1.109  18.716  0.00  0.00    +0.000 HD
ENDBRANCH  26  27
ENDBRANCH  17  26
ENDBRANCH   1  17
TORSDOF 8
ENDMDL
MODEL 9
REMARK VINA RESULT:      -6.7      2.592      4.147
REMARK  Name = 
REMARK  9 active torsions:
REMARK  status: ('A' for Active; 'I' for Inactive)
REMARK    1  A    between atoms: C_1  and  O_2
REMARK    2  A    between atoms: O_2  and  C_3
REMARK    3  A    between atoms: C_6  and  N_7
REMARK    4  A    between atoms: N_10  and  C_11
REMARK    5  A    between atoms: C_11  and  C_12
REMARK    6  A    between atoms: C_12  and  C_13
REMARK    7  A    between atoms: C_13  and  O_14
REMARK    8  A    between atoms: C_13  and  C_18
REMARK    9  A    between atoms: O_14  and  C_15
REMARK                            x       y       z     vdW  Elec       q    Type
REMARK                         _______ _______ _______ _____ _____    ______ ____
ROOT
ATOM      1  C   UNL     1       4.006   3.679  16.747  0.00  0.00    +0.000 C 
ENDROOT
BRANCH   1   2
ATOM      2  C   UNL     1       4.156   2.800  17.988  0.00  0.00    +0.000 C 
BRANCH   2   6
ATOM      3  N   UNL     1       2.659   5.933  18.833  0.00  0.00    +0.000 N 
ATOM      4  C   UNL     1       3.779   5.378  19.607  0.00  0.00    +0.000 C 
ATOM      5  C   UNL     1       3.433   3.944  20.062  0.00  0.00    +0.000 C 
ATOM      6  N   UNL     1       3.060   3.020  18.957  0.00  0.00    +0.000 NA
ATOM      7  C   UNL     1       1.886   3.630  18.278  0.00  0.00    +0.000 C 
ATOM      8  C   UNL     1       2.106   5.078  17.770  0.00  0.00    +0.000 C 
BRANCH   3  12
ATOM      9  C   UNL     1       1.199   9.840  19.443  0.00  0.00    +0.000 A 
ATOM     10  C   UNL     1       1.211   8.923  20.487  0.00  0.00    +0.000 A 
ATOM     11  C   UNL     1       1.734   7.640  20.294  0.00  0.00    +0.000 A 
ATOM     12  C   UNL     1       2.234   7.227  19.051  0.00  0.00    +0.000 A 
ATOM     13  C   UNL     1       2.219   8.173  18.018  0.00  0.00    +0.000 A 
ATOM     14  C   UNL     1       1.705   9.462  18.204  0.00  0.00    +0.000 A 
BRANCH   9  16
ATOM     15  C   UNL     1       0.407  11.297  21.116  0.00  0.00    +0.000 C 
ATOM     16  O   UNL     1       0.632  11.049  19.733  0.00  0.00    +0.000 OA
ENDBRANCH   9  16
ENDBRANCH   3  12
ENDBRANCH   2   6
ENDBRANCH   1   2
BRANCH   1  17
ATOM     17  C   UNL     1       5.338   4.025  16.053  0.00  0.00    +0.000 C 
BRANCH  17  18
ATOM     18  C   UNL     1       6.139   5.096  16.789  0.00  0.00    +0.000 A 
ATOM     19  C   UNL     1       7.174   4.723  17.678  0.00  0.00    +0.000 A 
ATOM     20  C   UNL     1       7.947   5.675  18.342  0.00  0.00    +0.000 A 
ATOM     21  C   UNL     1       7.695   7.021  18.141  0.00  0.00    +0.000 A 
ATOM     22 CL   UNL     1       8.656   8.192  18.953  0.00  0.00    +0.000 Cl
ATOM     23  C   UNL     1       6.668   7.426  17.293  0.00  0.00    +0.000 A 
ATOM     24  C   UNL     1       5.889   6.472  16.626  0.00  0.00    +0.000 A 
ATOM     25 CL   UNL     1       4.630   7.060  15.601  0.00  0.00    +0.000 Cl
ENDBRANCH  17  18
BRANCH  17  26
ATOM     26  O   UNL     1       5.202   4.334  14.644  0.00  0.00    +0.000 OA
BRANCH  26  27
ATOM     27  C   UNL     1       6.204   4.054  13.786  0.00  0.00    +0.000 C 
ATOM     28  N   UNL     1       7.146   5.022  13.834  0.00  0.00    +0.000 N 
ATOM     29  O   UNL     1       6.311   3.075  13.066  0.00  0.00    +0.000 OA
ATOM     30  H   UNL     1       7.052   5.804  14.462  0.00  0.00    +0.000 HD
ATOM     31  H   UNL     1       7.955   4.942  13.235  0.00  0.00    +0.000 HD
ENDBRANCH  26  27
ENDBRANCH  17  26
ENDBRANCH   1  17
TORSDOF 8
ENDMDL
