MODEL 1
REMARK VINA RESULT:      -7.5      0.000      0.000
REMARK  Name = 
REMARK  8 active torsions:
REMARK  status: ('A' for Active; 'I' for Inactive)
REMARK    1  A    between atoms: C_1  and  C_2
REMARK    2  A    between atoms: C_2  and  N_3
REMARK    3  A    between atoms: N_3  and  C_4
REMARK    4  A    between atoms: N_3  and  C_14
REMARK    5  A    between atoms: C_4  and  C_5
REMARK    6  A    between atoms: C_10  and  C_11
REMARK    7  A    between atoms: C_11  and  O_13
REMARK    8  A    between atoms: C_14  and  C_15
REMARK                            x       y       z     vdW  Elec       q    Type
REMARK                         _______ _______ _______ _____ _____    ______ ____
ROOT
ATOM      1  N   UNL     1       3.848   6.272  18.324  0.00  0.00    +0.000 NA
ENDROOT
BRANCH   1   3
ATOM      2  C   UNL     1       2.532   8.337  17.692  0.00  0.00    +0.000 C 
ATOM      3  C   UNL     1       3.776   7.477  17.482  0.00  0.00    +0.000 C 
ENDBRANCH   1   3
BRANCH   1   4
ATOM      4  C   UNL     1       2.632   5.417  18.296  0.00  0.00    +0.000 C 
BRANCH   4   5
ATOM      5  C   UNL     1       2.476   4.364  19.390  0.00  0.00    +0.000 A 
ATOM      6  N   UNL     1       2.187   4.861  20.630  0.00  0.00    +0.000 NA
ATOM      7  C   UNL     1       2.064   4.011  21.668  0.00  0.00    +0.000 A 
ATOM      8  C   UNL     1       2.253   2.649  21.558  0.00  0.00    +0.000 A 
ATOM      9  C   UNL     1       2.561   2.133  20.303  0.00  0.00    +0.000 A 
ATOM     10  C   UNL     1       2.680   2.991  19.196  0.00  0.00    +0.000 A 
BRANCH  10  11
ATOM     11  C   UNL     1       2.950   2.400  17.860  0.00  0.00    +0.000 C 
ATOM     12  O   UNL     1       2.080   2.169  17.040  0.00  0.00    +0.000 OA
BRANCH  11  13
ATOM     13  O   UNL     1       4.251   2.127  17.637  0.00  0.00    +0.000 OA
ATOM     14  H   UNL     1       4.892   2.816  17.898  0.00  0.00    +0.000 HD
ENDBRANCH  11  13
ENDBRANCH  10  11
ENDBRANCH   4   5
ENDBRANCH   1   4
BRANCH   1  15
ATOM     15  C   UNL     1       5.055   5.466  18.043  0.00  0.00    +0.000 C 
BRANCH  15  16
ATOM     16  C   UNL     1       5.648   5.601  16.623  0.00  0.00    +0.000 C 
ATOM     17  C   UNL     1       7.174   5.647  16.643  0.00  0.00    +0.000 C 
ATOM     18  O   UNL     1       7.690   5.857  15.322  0.00  0.00    +0.000 OA
ATOM     19  C   UNL     1       7.056   5.065  14.399  0.00  0.00    +0.000 A 
ATOM     20  C   UNL     1       7.651   4.970  13.144  0.00  0.00    +0.000 A 
ATOM     21  C   UNL     1       7.067   4.172  12.157  0.00  0.00    +0.000 A 
ATOM     22  C   UNL     1       5.889   3.474  12.429  0.00  0.00    +0.000 A 
ATOM     23  C   UNL     1       5.287   3.579  13.682  0.00  0.00    +0.000 A 
ATOM     24  C   UNL     1       5.862   4.387  14.662  0.00  0.00    +0.000 A 
ATOM     25  O   UNL     1       5.204   4.465  15.858  0.00  0.00    +0.000 OA
ENDBRANCH  15  16
ENDBRANCH   1  15
TORSDOF 7
ENDMDL
MODEL 2
REMARK VINA RESULT:      -7.4      1.769      2.903
REMARK  Name = 
REMARK  8 active torsions:
REMARK  status: ('A' for Active; 'I' for Inactive)
REMARK    1  A    between atoms: C_1  and  C_2
REMARK    2  A    between atoms: C_2  and  N_3
REMARK    3  A    between atoms: N_3  and  C_4
REMARK    4  A    between atoms: N_3  and  C_14
REMARK    5  A    between atoms: C_4  and  C_5
REMARK    6  A    between atoms: C_10  and  C_11
REMARK    7  A    between atoms: C_11  and  O_13
REMARK    8  A    between atoms: C_14  and  C_15
REMARK                            x       y       z     vdW  Elec       q    Type
REMARK                         _______ _______ _______ _____ _____    ______ ____
ROOT
ATOM      1  N   UNL     1       3.732   2.967  17.587  0.00  0.00    +0.000 NA
ENDROOT
BRANCH   1   3
ATOM      2  C   UNL     1       4.415   2.130  19.873  0.00  0.00    +0.000 C 
ATOM      3  C   UNL     1       3.666   1.872  18.568  0.00  0.00    +0.000 C 
ENDBRANCH   1   3
BRANCH   1   4
ATOM      4  C   UNL     1       2.483   3.763  17.455  0.00  0.00    +0.000 C 
BRANCH   4   5
ATOM      5  C   UNL     1       2.171   4.785  18.544  0.00  0.00    +0.000 A 
ATOM      6  N   UNL     1       2.694   6.031  18.331  0.00  0.00    +0.000 NA
ATOM      7  C   UNL     1       2.500   6.993  19.254  0.00  0.00    +0.000 A 
ATOM      8  C   UNL     1       1.826   6.781  20.438  0.00  0.00    +0.000 A 
ATOM      9  C   UNL     1       1.302   5.514  20.673  0.00  0.00    +0.000 A 
ATOM     10  C   UNL     1       1.471   4.493  19.722  0.00  0.00    +0.000 A 
BRANCH  10  11
ATOM     11  C   UNL     1       0.845   3.169  19.977  0.00  0.00    +0.000 C 
ATOM     12  O   UNL     1       0.247   2.535  19.127  0.00  0.00    +0.000 OA
BRANCH  11  13
ATOM     13  O   UNL     1       0.988   2.734  21.245  0.00  0.00    +0.000 OA
ATOM     14  H   UNL     1       1.405   3.352  21.874  0.00  0.00    +0.000 HD
ENDBRANCH  11  13
ENDBRANCH  10  11
ENDBRANCH   4   5
ENDBRANCH   1   4
BRANCH   1  15
ATOM     15  C   UNL     1       4.891   3.855  17.819  0.00  0.00    +0.000 C 
BRANCH  15  16
ATOM     16  C   UNL     1       5.509   4.508  16.563  0.00  0.00    +0.000 C 
ATOM     17  C   UNL     1       6.971   4.892  16.779  0.00  0.00    +0.000 C 
ATOM     18  O   UNL     1       7.491   5.571  15.627  0.00  0.00    +0.000 OA
ATOM     19  C   UNL     1       7.128   4.942  14.464  0.00  0.00    +0.000 A 
ATOM     20  C   UNL     1       7.797   5.336  13.307  0.00  0.00    +0.000 A 
ATOM     21  C   UNL     1       7.488   4.731  12.087  0.00  0.00    +0.000 A 
ATOM     22  C   UNL     1       6.510   3.737  12.027  0.00  0.00    +0.000 A 
ATOM     23  C   UNL     1       5.832   3.352  13.183  0.00  0.00    +0.000 A 
ATOM     24  C   UNL     1       6.130   3.966  14.398  0.00  0.00    +0.000 A 
ATOM     25  O   UNL     1       5.408   3.558  15.486  0.00  0.00    +0.000 OA
ENDBRANCH  15  16
ENDBRANCH   1  15
TORSDOF 7
ENDMDL
MODEL 3
REMARK VINA RESULT:      -7.2      2.317      6.604
REMARK  Name = 
REMARK  8 active torsions:
REMARK  status: ('A' for Active; 'I' for Inactive)
REMARK    1  A    between atoms: C_1  and  C_2
REMARK    2  A    between atoms: C_2  and  N_3
REMARK    3  A    between atoms: N_3  and  C_4
REMARK    4  A    between atoms: N_3  and  C_14
REMARK    5  A    between atoms: C_4  and  C_5
REMARK    6  A    between atoms: C_10  and  C_11
REMARK    7  A    between atoms: C_11  and  O_13
REMARK    8  A    between atoms: C_14  and  C_15
REMARK                            x       y       z     vdW  Elec       q    Type
REMARK                         _______ _______ _______ _____ _____    ______ ____
ROOT
ATOM      1  N   UNL     1       5.919   5.010  15.921  0.00  0.00    +0.000 NA
ENDROOT
BRANCH   1   3
ATOM      2  C   UNL     1       6.286   4.001  13.631  0.00  0.00    +0.000 C 
ATOM      3  C   UNL     1       5.786   5.178  14.464  0.00  0.00    +0.000 C 
ENDBRANCH   1   3
BRANCH   1   4
ATOM      4  C   UNL     1       5.485   6.180  16.727  0.00  0.00    +0.000 C 
BRANCH   4   5
ATOM      5  C   UNL     1       6.566   7.027  17.394  0.00  0.00    +0.000 A 
ATOM      6  N   UNL     1       6.618   8.327  16.974  0.00  0.00    +0.000 NA
ATOM      7  C   UNL     1       7.561   9.146  17.480  0.00  0.00    +0.000 A 
ATOM      8  C   UNL     1       8.516   8.732  18.384  0.00  0.00    +0.000 A 
ATOM      9  C   UNL     1       8.482   7.406  18.808  0.00  0.00    +0.000 A 
ATOM     10  C   UNL     1       7.501   6.532  18.312  0.00  0.00    +0.000 A 
BRANCH  10  11
ATOM     11  C   UNL     1       7.455   5.140  18.832  0.00  0.00    +0.000 C 
ATOM     12  O   UNL     1       8.150   4.239  18.399  0.00  0.00    +0.000 OA
BRANCH  11  13
ATOM     13  O   UNL     1       6.561   4.958  19.825  0.00  0.00    +0.000 OA
ATOM     14  H   UNL     1       5.924   5.682  19.976  0.00  0.00    +0.000 HD
ENDBRANCH  11  13
ENDBRANCH  10  11
ENDBRANCH   4   5
ENDBRANCH   1   4
BRANCH   1  15
ATOM     15  C   UNL     1       5.263   3.775  16.402  0.00  0.00    +0.000 C 
BRANCH  15  16
ATOM     16  C   UNL     1       4.082   3.969  17.377  0.00  0.00    +0.000 C 
ATOM     17  C   UNL     1       2.758   3.512  16.769  0.00  0.00    +0.000 C 
ATOM     18  O   UNL     1       1.671   3.782  17.665  0.00  0.00    +0.000 OA
ATOM     19  C   UNL     1       1.975   3.424  18.952  0.00  0.00    +0.000 A 
ATOM     20  C   UNL     1       0.915   3.373  19.854  0.00  0.00    +0.000 A 
ATOM     21  C   UNL     1       1.147   3.004  21.180  0.00  0.00    +0.000 A 
ATOM     22  C   UNL     1       2.441   2.689  21.602  0.00  0.00    +0.000 A 
ATOM     23  C   UNL     1       3.505   2.752  20.702  0.00  0.00    +0.000 A 
ATOM     24  C   UNL     1       3.273   3.134  19.381  0.00  0.00    +0.000 A 
ATOM     25  O   UNL     1       4.365   3.200  18.561  0.00  0.00    +0.000 OA
ENDBRANCH  15  16
ENDBRANCH   1  15
TORSDOF 7
ENDMDL
MODEL 4
REMARK VINA RESULT:      -7.1      1.570      2.160
REMARK  Name = 
REMARK  8 active torsions:
REMARK  status: ('A' for Active; 'I' for Inactive)
REMARK    1  A    between atoms: C_1  and  C_2
REMARK    2  A    between atoms: C_2  and  N_3
REMARK    3  A    between atoms: N_3  and  C_4
REMARK    4  A    between atoms: N_3  and  C_14
REMARK    5  A    between atoms: C_4  and  C_5
REMARK    6  A    between atoms: C_10  and  C_11
REMARK    7  A    between atoms: C_11  and  O_13
REMARK    8  A    between atoms: C_14  and  C_15
REMARK                            x       y       z     vdW  Elec       q    Type
REMARK                         _______ _______ _______ _____ _____    ______ ____
ROOT
ATOM      1  N   UNL     1       5.008   4.580  18.004  0.00  0.00    +0.000 NA
ENDROOT
BRANCH   1   3
ATOM      2  C   UNL     1       6.824   5.456  19.530  0.00  0.00    +0.000 C 
ATOM      3  C   UNL     1       5.355   5.085  19.343  0.00  0.00    +0.000 C 
ENDBRANCH   1   3
BRANCH   1   4
ATOM      4  C   UNL     1       3.944   3.543  17.985  0.00  0.00    +0.000 C 
BRANCH   4   5
ATOM      5  C   UNL     1       3.079   3.385  19.233  0.00  0.00    +0.000 A 
ATOM      6  N   UNL     1       1.974   4.190  19.272  0.00  0.00    +0.000 NA
ATOM      7  C   UNL     1       1.166   4.147  20.349  0.00  0.00    +0.000 A 
ATOM      8  C   UNL     1       1.414   3.355  21.450  0.00  0.00    +0.000 A 
ATOM      9  C   UNL     1       2.544   2.543  21.428  0.00  0.00    +0.000 A 
ATOM     10  C   UNL     1       3.397   2.550  20.312  0.00  0.00    +0.000 A 
BRANCH  10  11
ATOM     11  C   UNL     1       4.561   1.626  20.296  0.00  0.00    +0.000 C 
ATOM     12  O   UNL     1       5.406   1.596  21.172  0.00  0.00    +0.000 OA
BRANCH  11  13
ATOM     13  O   UNL     1       4.606   0.825  19.212  0.00  0.00    +0.000 OA
ATOM     14  H   UNL     1       3.888   0.933  18.560  0.00  0.00    +0.000 HD
ENDBRANCH  11  13
ENDBRANCH  10  11
ENDBRANCH   4   5
ENDBRANCH   1   4
BRANCH   1  15
ATOM     15  C   UNL     1       4.686   5.672  17.061  0.00  0.00    +0.000 C 
BRANCH  15  16
ATOM     16  C   UNL     1       5.416   5.634  15.701  0.00  0.00    +0.000 C 
ATOM     17  C   UNL     1       6.932   5.567  15.869  0.00  0.00    +0.000 C 
ATOM     18  O   UNL     1       7.584   5.618  14.592  0.00  0.00    +0.000 OA
ATOM     19  C   UNL     1       6.974   4.795  13.680  0.00  0.00    +0.000 A 
ATOM     20  C   UNL     1       7.672   4.543  12.502  0.00  0.00    +0.000 A 
ATOM     21  C   UNL     1       7.118   3.704  11.532  0.00  0.00    +0.000 A 
ATOM     22  C   UNL     1       5.866   3.124  11.742  0.00  0.00    +0.000 A 
ATOM     23  C   UNL     1       5.161   3.386  12.917  0.00  0.00    +0.000 A 
ATOM     24  C   UNL     1       5.709   4.234  13.878  0.00  0.00    +0.000 A 
ATOM     25  O   UNL     1       4.952   4.469  14.993  0.00  0.00    +0.000 OA
ENDBRANCH  15  16
ENDBRANCH   1  15
TORSDOF 7
ENDMDL
MODEL 5
REMARK VINA RESULT:      -7.0      2.643      6.620
REMARK  Name = 
REMARK  8 active torsions:
REMARK  status: ('A' for Active; 'I' for Inactive)
REMARK    1  A    between atoms: C_1  and  C_2
REMARK    2  A    between atoms: C_2  and  N_3
REMARK    3  A    between atoms: N_3  and  C_4
REMARK    4  A    between atoms: N_3  and  C_14
REMARK    5  A    between atoms: C_4  and  C_5
REMARK    6  A    between atoms: C_10  and  C_11
REMARK    7  A    between atoms: C_11  and  O_13
REMARK    8  A    between atoms: C_14  and  C_15
REMARK                            x       y       z     vdW  Elec       q    Type
REMARK                         _______ _______ _______ _____ _____    ______ ____
ROOT
ATOM      1  N   UNL     1       4.067   3.912  18.445  0.00  0.00    +0.000 NA
ENDROOT
BRANCH   1   3
ATOM      2  C   UNL     1       2.463   1.965  18.269  0.00  0.00    +0.000 C 
ATOM      3  C   UNL     1       3.661   2.599  18.973  0.00  0.00    +0.000 C 
ENDBRANCH   1   3
BRANCH   1   4
ATOM      4  C   UNL     1       5.326   3.905  17.655  0.00  0.00    +0.000 C 
BRANCH   4   5
ATOM      5  C   UNL     1       6.339   5.017  17.916  0.00  0.00    +0.000 A 
ATOM      6  N   UNL     1       6.976   4.942  19.124  0.00  0.00    +0.000 NA
ATOM      7  C   UNL     1       7.864   5.898  19.460  0.00  0.00    +0.000 A 
ATOM      8  C   UNL     1       8.143   6.986  18.661  0.00  0.00    +0.000 A 
ATOM      9  C   UNL     1       7.489   7.081  17.436  0.00  0.00    +0.000 A 
ATOM     10  C   UNL     1       6.571   6.091  17.048  0.00  0.00    +0.000 A 
BRANCH  10  11
ATOM     11  C   UNL     1       5.936   6.192  15.707  0.00  0.00    +0.000 C 
ATOM     12  O   UNL     1       4.939   6.853  15.485  0.00  0.00    +0.000 OA
BRANCH  11  13
ATOM     13  O   UNL     1       6.560   5.470  14.754  0.00  0.00    +0.000 OA
ATOM     14  H   UNL     1       7.533   5.430  14.804  0.00  0.00    +0.000 HD
ENDBRANCH  11  13
ENDBRANCH  10  11
ENDBRANCH   4   5
ENDBRANCH   1   4
BRANCH   1  15
ATOM     15  C   UNL     1       2.981   4.570  17.687  0.00  0.00    +0.000 C 
BRANCH  15  16
ATOM     16  C   UNL     1       2.203   5.675  18.433  0.00  0.00    +0.000 C 
ATOM     17  C   UNL     1       2.596   5.753  19.907  0.00  0.00    +0.000 C 
ATOM     18  O   UNL     1       1.798   6.730  20.591  0.00  0.00    +0.000 OA
ATOM     19  C   UNL     1       1.684   7.887  19.866  0.00  0.00    +0.000 A 
ATOM     20  C   UNL     1       1.178   8.998  20.537  0.00  0.00    +0.000 A 
ATOM     21  C   UNL     1       1.045  10.215  19.866  0.00  0.00    +0.000 A 
ATOM     22  C   UNL     1       1.415  10.317  18.523  0.00  0.00    +0.000 A 
ATOM     23  C   UNL     1       1.910   9.202  17.847  0.00  0.00    +0.000 A 
ATOM     24  C   UNL     1       2.029   7.984  18.515  0.00  0.00    +0.000 A 
ATOM     25  O   UNL     1       2.496   6.926  17.784  0.00  0.00    +0.000 OA
ENDBRANCH  15  16
ENDBRANCH   1  15
TORSDOF 7
ENDMDL
MODEL 6
REMARK VINA RESULT:      -6.9      1.215      1.503
REMARK  Name = 
REMARK  8 active torsions:
REMARK  status: ('A' for Active; 'I' for Inactive)
REMARK    1  A    between atoms: C_1  and  C_2
REMARK    2  A    between atoms: C_2  and  N_3
REMARK    3  A    between atoms: N_3  and  C_4
REMARK    4  A    between atoms: N_3  and  C_14
REMARK    5  A    between atoms: C_4  and  C_5
REMARK    6  A    between atoms: C_10  and  C_11
REMARK    7  A    between atoms: C_11  and  O_13
REMARK    8  A    between atoms: C_14  and  C_15
REMARK                            x       y       z     vdW  Elec       q    Type
REMARK                         _______ _______ _______ _____ _____    ______ ____
ROOT
ATOM      1  N   UNL     1       4.406   5.641  18.259  0.00  0.00    +0.000 NA
ENDROOT
BRANCH   1   3
ATOM      2  C   UNL     1       3.395   7.886  17.684  0.00  0.00    +0.000 C 
ATOM      3  C   UNL     1       3.228   6.370  17.761  0.00  0.00    +0.000 C 
ENDBRANCH   1   3
BRANCH   1   4
ATOM      4  C   UNL     1       4.289   5.145  19.656  0.00  0.00    +0.000 C 
BRANCH   4   5
ATOM      5  C   UNL     1       3.066   4.303  20.013  0.00  0.00    +0.000 A 
ATOM      6  N   UNL     1       1.924   5.018  20.244  0.00  0.00    +0.000 NA
ATOM      7  C   UNL     1       0.799   4.366  20.598  0.00  0.00    +0.000 A 
ATOM      8  C   UNL     1       0.743   3.001  20.783  0.00  0.00    +0.000 A 
ATOM      9  C   UNL     1       1.904   2.264  20.566  0.00  0.00    +0.000 A 
ATOM     10  C   UNL     1       3.088   2.912  20.177  0.00  0.00    +0.000 A 
BRANCH  10  11
ATOM     11  C   UNL     1       4.293   2.089  19.894  0.00  0.00    +0.000 C 
ATOM     12  O   UNL     1       5.222   1.969  20.672  0.00  0.00    +0.000 OA
BRANCH  11  13
ATOM     13  O   UNL     1       4.274   1.493  18.685  0.00  0.00    +0.000 OA
ATOM     14  H   UNL     1       4.161   2.079  17.912  0.00  0.00    +0.000 HD
ENDBRANCH  11  13
ENDBRANCH  10  11
ENDBRANCH   4   5
ENDBRANCH   1   4
BRANCH   1  15
ATOM     15  C   UNL     1       4.809   4.545  17.351  0.00  0.00    +0.000 C 
BRANCH  15  16
ATOM     16  C   UNL     1       5.502   4.971  16.039  0.00  0.00    +0.000 C 
ATOM     17  C   UNL     1       6.988   5.256  16.244  0.00  0.00    +0.000 C 
ATOM     18  O   UNL     1       7.584   5.729  15.028  0.00  0.00    +0.000 OA
ATOM     19  C   UNL     1       7.189   4.984  13.948  0.00  0.00    +0.000 A 
ATOM     20  C   UNL     1       7.909   5.162  12.769  0.00  0.00    +0.000 A 
ATOM     21  C   UNL     1       7.571   4.427  11.631  0.00  0.00    +0.000 A 
ATOM     22  C   UNL     1       6.511   3.519  11.674  0.00  0.00    +0.000 A 
ATOM     23  C   UNL     1       5.782   3.350  12.851  0.00  0.00    +0.000 A 
ATOM     24  C   UNL     1       6.112   4.094  13.983  0.00  0.00    +0.000 A 
ATOM     25  O   UNL     1       5.339   3.897  15.094  0.00  0.00    +0.000 OA
ENDBRANCH  15  16
ENDBRANCH   1  15
TORSDOF 7
ENDMDL
MODEL 7
REMARK VINA RESULT:      -6.8      3.104      5.274
REMARK  Name = 
REMARK  8 active torsions:
REMARK  status: ('A' for Active; 'I' for Inactive)
REMARK    1  A    between atoms: C_1  and  C_2
REMARK    2  A    between atoms: C_2  and  N_3
REMARK    3  A    between atoms: N_3  and  C_4
REMARK    4  A    between atoms: N_3  and  C_14
REMARK    5  A    between atoms: C_4  and  C_5
REMARK    6  A    between atoms: C_10  and  C_11
REMARK    7  A    between atoms: C_11  and  O_13
REMARK    8  A    between atoms: C_14  and  C_15
REMARK                            x       y       z     vdW  Elec       q    Type
REMARK                         _______ _______ _______ _____ _____    ______ ____
ROOT
ATOM      1  N   UNL     1       2.072   4.956  20.103  0.00  0.00    +0.000 NA
ENDROOT
BRANCH   1   3
ATOM      2  C   UNL     1       1.255   2.819  21.180  0.00  0.00    +0.000 C 
ATOM      3  C   UNL     1       0.914   4.116  20.450  0.00  0.00    +0.000 C 
ENDBRANCH   1   3
BRANCH   1   4
ATOM      4  C   UNL     1       2.079   6.301  20.735  0.00  0.00    +0.000 C 
BRANCH   4   5
ATOM      5  C   UNL     1       1.878   7.515  19.831  0.00  0.00    +0.000 A 
ATOM      6  N   UNL     1       2.412   7.393  18.578  0.00  0.00    +0.000 NA
ATOM      7  C   UNL     1       2.314   8.426  17.718  0.00  0.00    +0.000 A 
ATOM      8  C   UNL     1       1.732   9.632  18.046  0.00  0.00    +0.000 A 
ATOM      9  C   UNL     1       1.198   9.772  19.323  0.00  0.00    +0.000 A 
ATOM     10  C   UNL     1       1.268   8.708  20.238  0.00  0.00    +0.000 A 
BRANCH  10  11
ATOM     11  C   UNL     1       0.633   8.871  21.573  0.00  0.00    +0.000 C 
ATOM     12  O   UNL     1      -0.513   8.540  21.816  0.00  0.00    +0.000 OA
BRANCH  11  13
ATOM     13  O   UNL     1       1.440   9.434  22.495  0.00  0.00    +0.000 OA
ATOM     14  H   UNL     1       2.304   9.759  22.178  0.00  0.00    +0.000 HD
ENDBRANCH  11  13
ENDBRANCH  10  11
ENDBRANCH   4   5
ENDBRANCH   1   4
BRANCH   1  15
ATOM     15  C   UNL     1       3.356   4.263  20.341  0.00  0.00    +0.000 C 
BRANCH  15  16
ATOM     16  C   UNL     1       4.197   3.940  19.087  0.00  0.00    +0.000 C 
ATOM     17  C   UNL     1       3.321   3.572  17.892  0.00  0.00    +0.000 C 
ATOM     18  O   UNL     1       4.132   3.196  16.769  0.00  0.00    +0.000 OA
ATOM     19  C   UNL     1       5.180   4.061  16.590  0.00  0.00    +0.000 A 
ATOM     20  C   UNL     1       5.866   3.969  15.381  0.00  0.00    +0.000 A 
ATOM     21  C   UNL     1       6.938   4.827  15.124  0.00  0.00    +0.000 A 
ATOM     22  C   UNL     1       7.323   5.771  16.078  0.00  0.00    +0.000 A 
ATOM     23  C   UNL     1       6.644   5.854  17.293  0.00  0.00    +0.000 A 
ATOM     24  C   UNL     1       5.583   4.989  17.555  0.00  0.00    +0.000 A 
ATOM     25  O   UNL     1       4.980   5.108  18.776  0.00  0.00    +0.000 OA
ENDBRANCH  15  16
ENDBRANCH   1  15
TORSDOF 7
ENDMDL
MODEL 8
REMARK VINA RESULT:      -6.7      1.965      3.183
REMARK  Name = 
REMARK  8 active torsions:
REMARK  status: ('A' for Active; 'I' for Inactive)
REMARK    1  A    between atoms: C_1  and  C_2
REMARK    2  A    between atoms: C_2  and  N_3
REMARK    3  A    between atoms: N_3  and  C_4
REMARK    4  A    between atoms: N_3  and  C_14
REMARK    5  A    between atoms: C_4  and  C_5
REMARK    6  A    between atoms: C_10  and  C_11
REMARK    7  A    between atoms: C_11  and  O_13
REMARK    8  A    between atoms: C_14  and  C_15
REMARK                            x       y       z     vdW  Elec       q    Type
REMARK                         _______ _______ _______ _____ _____    ______ ____
ROOT
ATOM      1  N   UNL     1       3.606   3.897  17.821  0.00  0.00    +0.000 NA
ENDROOT
BRANCH   1   3
ATOM      2  C   UNL     1       2.746   1.594  18.415  0.00  0.00    +0.000 C 
ATOM      3  C   UNL     1       2.498   2.932  17.724  0.00  0.00    +0.000 C 
ENDBRANCH   1   3
BRANCH   1   4
ATOM      4  C   UNL     1       3.838   4.446  19.183  0.00  0.00    +0.000 C 
BRANCH   4   5
ATOM      5  C   UNL     1       2.867   5.506  19.698  0.00  0.00    +0.000 A 
ATOM      6  N   UNL     1       3.059   6.759  19.185  0.00  0.00    +0.000 NA
ATOM      7  C   UNL     1       2.273   7.770  19.604  0.00  0.00    +0.000 A 
ATOM      8  C   UNL     1       1.295   7.619  20.565  0.00  0.00    +0.000 A 
ATOM      9  C   UNL     1       1.101   6.352  21.105  0.00  0.00    +0.000 A 
ATOM     10  C   UNL     1       1.892   5.273  20.676  0.00  0.00    +0.000 A 
BRANCH  10  11
ATOM     11  C   UNL     1       1.617   3.921  21.228  0.00  0.00    +0.000 C 
ATOM     12  O   UNL     1       2.273   3.413  22.119  0.00  0.00    +0.000 OA
BRANCH  11  13
ATOM     13  O   UNL     1       0.576   3.295  20.643  0.00  0.00    +0.000 OA
ATOM     14  H   UNL     1       0.568   2.320  20.694  0.00  0.00    +0.000 HD
ENDBRANCH  11  13
ENDBRANCH  10  11
ENDBRANCH   4   5
ENDBRANCH   1   4
BRANCH   1  15
ATOM     15  C   UNL     1       4.864   3.361  17.257  0.00  0.00    +0.000 C 
BRANCH  15  16
ATOM     16  C   UNL     1       5.513   4.195  16.131  0.00  0.00    +0.000 C 
ATOM     17  C   UNL     1       6.914   4.672  16.509  0.00  0.00    +0.000 C 
ATOM     18  O   UNL     1       7.456   5.513  15.480  0.00  0.00    +0.000 OA
ATOM     19  C   UNL     1       7.241   4.987  14.233  0.00  0.00    +0.000 A 
ATOM     20  C   UNL     1       7.957   5.558  13.183  0.00  0.00    +0.000 A 
ATOM     21  C   UNL     1       7.798   5.066  11.885  0.00  0.00    +0.000 A 
ATOM     22  C   UNL     1       6.921   4.007  11.641  0.00  0.00    +0.000 A 
ATOM     23  C   UNL     1       6.195   3.444  12.691  0.00  0.00    +0.000 A 
ATOM     24  C   UNL     1       6.344   3.945  13.983  0.00  0.00    +0.000 A 
ATOM     25  O   UNL     1       5.581   3.363  14.958  0.00  0.00    +0.000 OA
ENDBRANCH  15  16
ENDBRANCH   1  15
TORSDOF 7
ENDMDL
MODEL 9
REMARK VINA RESULT:      -6.7      2.535      5.664
REMARK  Name = 
REMARK  8 active torsions:
REMARK  status: ('A' for Active; 'I' for Inactive)
REMARK    1  A    between atoms: C_1  and  C_2
REMARK    2  A    between atoms: C_2  and  N_3
REMARK    3  A    between atoms: N_3  and  C_4
REMARK    4  A    between atoms: N_3  and  C_14
REMARK    5  A    between atoms: C_4  and  C_5
REMARK    6  A    between atoms: C_10  and  C_11
REMARK    7  A    between atoms: C_11  and  O_13
REMARK    8  A    between atoms: C_14  and  C_15
REMARK                            x       y       z     vdW  Elec       q    Type
REMARK                         _______ _______ _______ _____ _____    ______ ____
ROOT
ATOM      1  N   UNL     1       3.908   4.627  17.122  0.00  0.00    +0.000 NA
ENDROOT
BRANCH   1   3
ATOM      2  C   UNL     1       5.680   5.646  15.634  0.00  0.00    +0.000 C 
ATOM      3  C   UNL     1       5.107   4.397  16.299  0.00  0.00    +0.000 C 
ENDBRANCH   1   3
BRANCH   1   4
ATOM      4  C   UNL     1       3.067   3.423  17.351  0.00  0.00    +0.000 C 
BRANCH   4   5
ATOM      5  C   UNL     1       2.438   3.244  18.730  0.00  0.00    +0.000 A 
ATOM      6  N   UNL     1       1.267   3.924  18.920  0.00  0.00    +0.000 NA
ATOM      7  C   UNL     1       0.653   3.856  20.117  0.00  0.00    +0.000 A 
ATOM      8  C   UNL     1       1.164   3.159  21.192  0.00  0.00    +0.000 A 
ATOM      9  C   UNL     1       2.363   2.475  21.015  0.00  0.00    +0.000 A 
ATOM     10  C   UNL     1       3.020   2.512  19.773  0.00  0.00    +0.000 A 
BRANCH  10  11
ATOM     11  C   UNL     1       4.266   1.720  19.600  0.00  0.00    +0.000 C 
ATOM     12  O   UNL     1       5.259   1.873  20.287  0.00  0.00    +0.000 OA
BRANCH  11  13
ATOM     13  O   UNL     1       4.204   0.818  18.600  0.00  0.00    +0.000 OA
ATOM     14  H   UNL     1       5.026   0.670  18.095  0.00  0.00    +0.000 HD
ENDBRANCH  11  13
ENDBRANCH  10  11
ENDBRANCH   4   5
ENDBRANCH   1   4
BRANCH   1  15
ATOM     15  C   UNL     1       4.231   5.287  18.406  0.00  0.00    +0.000 C 
BRANCH  15  16
ATOM     16  C   UNL     1       3.621   6.689  18.621  0.00  0.00    +0.000 C 
ATOM     17  C   UNL     1       2.867   7.180  17.387  0.00  0.00    +0.000 C 
ATOM     18  O   UNL     1       2.386   8.516  17.588  0.00  0.00    +0.000 OA
ATOM     19  C   UNL     1       1.815   8.667  18.825  0.00  0.00    +0.000 A 
ATOM     20  C   UNL     1       1.066   9.823  19.030  0.00  0.00    +0.000 A 
ATOM     21  C   UNL     1       0.445  10.039  20.262  0.00  0.00    +0.000 A 
ATOM     22  C   UNL     1       0.577   9.100  21.286  0.00  0.00    +0.000 A 
ATOM     23  C   UNL     1       1.337   7.947  21.085  0.00  0.00    +0.000 A 
ATOM     24  C   UNL     1       1.968   7.740  19.859  0.00  0.00    +0.000 A 
ATOM     25  O   UNL     1       2.719   6.603  19.740  0.00  0.00    +0.000 OA
ENDBRANCH  15  16
ENDBRANCH   1  15
TORSDOF 7
ENDMDL
