MODEL 1
REMARK VINA RESULT:      -6.8      0.000      0.000
REMARK  Name = 
REMARK  3 active torsions:
REMARK  status: ('A' for Active; 'I' for Inactive)
REMARK    1  A    between atoms: C_5  and  N_6
REMARK    2  A    between atoms: N_6  and  C_7
REMARK    3  A    between atoms: C_7  and  C_8
REMARK                            x       y       z     vdW  Elec       q    Type
REMARK                         _______ _______ _______ _____ _____    ______ ____
ROOT
ATOM      1 CL   UNL     1       0.811   4.111  20.491  0.00  0.00    +0.000 Cl
ATOM      2  C   UNL     1       2.438   4.185  19.918  0.00  0.00    +0.000 A 
ATOM      3  C   UNL     1       3.099   2.980  19.681  0.00  0.00    +0.000 A 
ATOM      4  C   UNL     1       4.420   2.989  19.225  0.00  0.00    +0.000 A 
ATOM      5  C   UNL     1       5.114   4.189  19.029  0.00  0.00    +0.000 A 
ATOM      6  C   UNL     1       4.430   5.391  19.238  0.00  0.00    +0.000 A 
ATOM      7  C   UNL     1       3.102   5.392  19.685  0.00  0.00    +0.000 A 
ATOM      8 CL   UNL     1       2.340   6.926  19.926  0.00  0.00    +0.000 Cl
ENDROOT
BRANCH   5   9
ATOM      9  N   UNL     1       6.430   4.103  18.576  0.00  0.00    +0.000 N 
ATOM     10  H   UNL     1       6.636   3.165  18.231  0.00  0.00    +0.000 HD
BRANCH   9  11
ATOM     11  C   UNL     1       6.955   5.116  17.660  0.00  0.00    +0.000 C 
BRANCH  11  12
ATOM     12  C   UNL     1       6.720   4.762  16.231  0.00  0.00    +0.000 A 
ATOM     13  C   UNL     1       5.801   3.939  15.610  0.00  0.00    +0.000 A 
ATOM     14  C   UNL     1       6.075   4.007  14.224  0.00  0.00    +0.000 A 
ATOM     15  C   UNL     1       7.139   4.868  14.089  0.00  0.00    +0.000 A 
ATOM     16  O   UNL     1       7.538   5.332  15.301  0.00  0.00    +0.000 OA
ENDBRANCH  11  12
ENDBRANCH   9  11
ENDBRANCH   5   9
TORSDOF 3
ENDMDL
MODEL 2
REMARK VINA RESULT:      -6.4      1.739      2.629
REMARK  Name = 
REMARK  3 active torsions:
REMARK  status: ('A' for Active; 'I' for Inactive)
REMARK    1  A    between atoms: C_5  and  N_6
REMARK    2  A    between atoms: N_6  and  C_7
REMARK    3  A    between atoms: C_7  and  C_8
REMARK                            x       y       z     vdW  Elec       q    Type
REMARK                         _______ _______ _______ _____ _____    ______ ____
ROOT
ATOM      1 CL   UNL     1       2.004   2.595  21.522  0.00  0.00    +0.000 Cl
ATOM      2  C   UNL     1       2.716   3.179  20.061  0.00  0.00    +0.000 A 
ATOM      3  C   UNL     1       3.376   2.259  19.246  0.00  0.00    +0.000 A 
ATOM      4  C   UNL     1       3.974   2.685  18.058  0.00  0.00    +0.000 A 
ATOM      5  C   UNL     1       3.957   4.033  17.676  0.00  0.00    +0.000 A 
ATOM      6  C   UNL     1       3.264   4.940  18.485  0.00  0.00    +0.000 A 
ATOM      7  C   UNL     1       2.652   4.519  19.673  0.00  0.00    +0.000 A 
ATOM      8 CL   UNL     1       1.826   5.713  20.613  0.00  0.00    +0.000 Cl
ENDROOT
BRANCH   5   9
ATOM      9  N   UNL     1       4.583   4.369  16.477  0.00  0.00    +0.000 N 
ATOM     10  H   UNL     1       4.279   5.286  16.151  0.00  0.00    +0.000 HD
BRANCH   9  11
ATOM     11  C   UNL     1       6.034   4.230  16.347  0.00  0.00    +0.000 C 
BRANCH  11  12
ATOM     12  C   UNL     1       6.772   5.166  17.242  0.00  0.00    +0.000 A 
ATOM     13  C   UNL     1       7.090   6.506  17.137  0.00  0.00    +0.000 A 
ATOM     14  C   UNL     1       7.808   6.841  18.309  0.00  0.00    +0.000 A 
ATOM     15  C   UNL     1       7.880   5.686  19.053  0.00  0.00    +0.000 A 
ATOM     16  O   UNL     1       7.255   4.664  18.415  0.00  0.00    +0.000 OA
ENDBRANCH  11  12
ENDBRANCH   9  11
ENDBRANCH   5   9
TORSDOF 3
ENDMDL
MODEL 3
REMARK VINA RESULT:      -6.3      1.657      2.523
REMARK  Name = 
REMARK  3 active torsions:
REMARK  status: ('A' for Active; 'I' for Inactive)
REMARK    1  A    between atoms: C_5  and  N_6
REMARK    2  A    between atoms: N_6  and  C_7
REMARK    3  A    between atoms: C_7  and  C_8
REMARK                            x       y       z     vdW  Elec       q    Type
REMARK                         _______ _______ _______ _____ _____    ______ ____
ROOT
ATOM      1 CL   UNL     1       1.058   3.839  20.436  0.00  0.00    +0.000 Cl
ATOM      2  C   UNL     1       2.189   4.146  19.168  0.00  0.00    +0.000 A 
ATOM      3  C   UNL     1       2.575   3.071  18.367  0.00  0.00    +0.000 A 
ATOM      4  C   UNL     1       3.493   3.269  17.333  0.00  0.00    +0.000 A 
ATOM      5  C   UNL     1       4.067   4.525  17.098  0.00  0.00    +0.000 A 
ATOM      6  C   UNL     1       3.646   5.601  17.886  0.00  0.00    +0.000 A 
ATOM      7  C   UNL     1       2.718   5.414  18.919  0.00  0.00    +0.000 A 
ATOM      8 CL   UNL     1       2.264   6.802  19.847  0.00  0.00    +0.000 Cl
ENDROOT
BRANCH   5   9
ATOM      9  N   UNL     1       4.977   4.629  16.047  0.00  0.00    +0.000 N 
ATOM     10  H   UNL     1       4.837   5.495  15.528  0.00  0.00    +0.000 HD
BRANCH   9  11
ATOM     11  C   UNL     1       6.400   4.396  16.289  0.00  0.00    +0.000 C 
BRANCH  11  12
ATOM     12  C   UNL     1       7.016   5.474  17.114  0.00  0.00    +0.000 A 
ATOM     13  C   UNL     1       7.630   5.471  18.351  0.00  0.00    +0.000 A 
ATOM     14  C   UNL     1       8.015   6.807  18.611  0.00  0.00    +0.000 A 
ATOM     15  C   UNL     1       7.615   7.538  17.517  0.00  0.00    +0.000 A 
ATOM     16  O   UNL     1       7.008   6.739  16.602  0.00  0.00    +0.000 OA
ENDBRANCH  11  12
ENDBRANCH   9  11
ENDBRANCH   5   9
TORSDOF 3
ENDMDL
MODEL 4
REMARK VINA RESULT:      -6.3      3.624      5.912
REMARK  Name = 
REMARK  3 active torsions:
REMARK  status: ('A' for Active; 'I' for Inactive)
REMARK    1  A    between atoms: C_5  and  N_6
REMARK    2  A    between atoms: N_6  and  C_7
REMARK    3  A    between atoms: C_7  and  C_8
REMARK                            x       y       z     vdW  Elec       q    Type
REMARK                         _______ _______ _______ _____ _____    ______ ____
ROOT
ATOM      1 CL   UNL     1       6.958   7.309  17.218  0.00  0.00    +0.000 Cl
ATOM      2  C   UNL     1       5.715   6.114  17.126  0.00  0.00    +0.000 A 
ATOM      3  C   UNL     1       4.566   6.310  17.892  0.00  0.00    +0.000 A 
ATOM      4  C   UNL     1       3.537   5.367  17.856  0.00  0.00    +0.000 A 
ATOM      5  C   UNL     1       3.644   4.200  17.088  0.00  0.00    +0.000 A 
ATOM      6  C   UNL     1       4.786   4.031  16.300  0.00  0.00    +0.000 A 
ATOM      7  C   UNL     1       5.820   4.977  16.321  0.00  0.00    +0.000 A 
ATOM      8 CL   UNL     1       7.198   4.679  15.320  0.00  0.00    +0.000 Cl
ENDROOT
BRANCH   5   9
ATOM      9  N   UNL     1       2.569   3.312  17.116  0.00  0.00    +0.000 N 
ATOM     10  H   UNL     1       2.283   3.057  16.172  0.00  0.00    +0.000 HD
BRANCH   9  11
ATOM     11  C   UNL     1       2.621   2.131  17.977  0.00  0.00    +0.000 C 
BRANCH  11  12
ATOM     12  C   UNL     1       2.212   2.435  19.378  0.00  0.00    +0.000 A 
ATOM     13  C   UNL     1       1.003   2.787  19.944  0.00  0.00    +0.000 A 
ATOM     14  C   UNL     1       1.240   2.946  21.330  0.00  0.00    +0.000 A 
ATOM     15  C   UNL     1       2.576   2.677  21.520  0.00  0.00    +0.000 A 
ATOM     16  O   UNL     1       3.175   2.366  20.342  0.00  0.00    +0.000 OA
ENDBRANCH  11  12
ENDBRANCH   9  11
ENDBRANCH   5   9
TORSDOF 3
ENDMDL
MODEL 5
REMARK VINA RESULT:      -6.3      1.218      1.913
REMARK  Name = 
REMARK  3 active torsions:
REMARK  status: ('A' for Active; 'I' for Inactive)
REMARK    1  A    between atoms: C_5  and  N_6
REMARK    2  A    between atoms: N_6  and  C_7
REMARK    3  A    between atoms: C_7  and  C_8
REMARK                            x       y       z     vdW  Elec       q    Type
REMARK                         _______ _______ _______ _____ _____    ______ ____
ROOT
ATOM      1 CL   UNL     1       0.918   3.998  19.995  0.00  0.00    +0.000 Cl
ATOM      2  C   UNL     1       2.461   4.530  19.432  0.00  0.00    +0.000 A 
ATOM      3  C   UNL     1       2.510   5.708  18.686  0.00  0.00    +0.000 A 
ATOM      4  C   UNL     1       3.735   6.174  18.202  0.00  0.00    +0.000 A 
ATOM      5  C   UNL     1       4.922   5.465  18.421  0.00  0.00    +0.000 A 
ATOM      6  C   UNL     1       4.865   4.303  19.198  0.00  0.00    +0.000 A 
ATOM      7  C   UNL     1       3.642   3.833  19.696  0.00  0.00    +0.000 A 
ATOM      8 CL   UNL     1       3.667   2.383  20.639  0.00  0.00    +0.000 Cl
ENDROOT
BRANCH   5   9
ATOM      9  N   UNL     1       6.097   6.003  17.898  0.00  0.00    +0.000 N 
ATOM     10  H   UNL     1       6.508   6.677  18.543  0.00  0.00    +0.000 HD
BRANCH   9  11
ATOM     11  C   UNL     1       7.126   5.117  17.353  0.00  0.00    +0.000 C 
BRANCH  11  12
ATOM     12  C   UNL     1       6.850   4.733  15.939  0.00  0.00    +0.000 A 
ATOM     13  C   UNL     1       5.962   3.843  15.368  0.00  0.00    +0.000 A 
ATOM     14  C   UNL     1       6.165   3.915  13.970  0.00  0.00    +0.000 A 
ATOM     15  C   UNL     1       7.161   4.846  13.778  0.00  0.00    +0.000 A 
ATOM     16  O   UNL     1       7.583   5.348  14.967  0.00  0.00    +0.000 OA
ENDBRANCH  11  12
ENDBRANCH   9  11
ENDBRANCH   5   9
TORSDOF 3
ENDMDL
MODEL 6
REMARK VINA RESULT:      -6.3      1.171      1.314
REMARK  Name = 
REMARK  3 active torsions:
REMARK  status: ('A' for Active; 'I' for Inactive)
REMARK    1  A    between atoms: C_5  and  N_6
REMARK    2  A    between atoms: N_6  and  C_7
REMARK    3  A    between atoms: C_7  and  C_8
REMARK                            x       y       z     vdW  Elec       q    Type
REMARK                         _______ _______ _______ _____ _____    ______ ____
ROOT
ATOM      1 CL   UNL     1       0.280   2.662  18.949  0.00  0.00    +0.000 Cl
ATOM      2  C   UNL     1       1.948   3.109  18.960  0.00  0.00    +0.000 A 
ATOM      3  C   UNL     1       2.831   2.349  18.193  0.00  0.00    +0.000 A 
ATOM      4  C   UNL     1       4.191   2.667  18.176  0.00  0.00    +0.000 A 
ATOM      5  C   UNL     1       4.702   3.721  18.944  0.00  0.00    +0.000 A 
ATOM      6  C   UNL     1       3.802   4.496  19.683  0.00  0.00    +0.000 A 
ATOM      7  C   UNL     1       2.435   4.191  19.698  0.00  0.00    +0.000 A 
ATOM      8 CL   UNL     1       1.400   5.200  20.648  0.00  0.00    +0.000 Cl
ENDROOT
BRANCH   5   9
ATOM      9  N   UNL     1       6.072   3.964  18.870  0.00  0.00    +0.000 N 
ATOM     10  H   UNL     1       6.571   3.140  18.534  0.00  0.00    +0.000 HD
BRANCH   9  11
ATOM     11  C   UNL     1       6.564   5.171  18.205  0.00  0.00    +0.000 C 
BRANCH  11  12
ATOM     12  C   UNL     1       6.385   5.114  16.726  0.00  0.00    +0.000 A 
ATOM     13  C   UNL     1       5.344   5.476  15.895  0.00  0.00    +0.000 A 
ATOM     14  C   UNL     1       5.763   5.183  14.576  0.00  0.00    +0.000 A 
ATOM     15  C   UNL     1       7.032   4.664  14.687  0.00  0.00    +0.000 A 
ATOM     16  O   UNL     1       7.419   4.618  15.987  0.00  0.00    +0.000 OA
ENDBRANCH  11  12
ENDBRANCH   9  11
ENDBRANCH   5   9
TORSDOF 3
ENDMDL
MODEL 7
REMARK VINA RESULT:      -6.2      2.046      3.274
REMARK  Name = 
REMARK  3 active torsions:
REMARK  status: ('A' for Active; 'I' for Inactive)
REMARK    1  A    between atoms: C_5  and  N_6
REMARK    2  A    between atoms: N_6  and  C_7
REMARK    3  A    between atoms: C_7  and  C_8
REMARK                            x       y       z     vdW  Elec       q    Type
REMARK                         _______ _______ _______ _____ _____    ______ ____
ROOT
ATOM      1 CL   UNL     1       1.316   4.098  20.255  0.00  0.00    +0.000 Cl
ATOM      2  C   UNL     1       2.458   4.327  18.981  0.00  0.00    +0.000 A 
ATOM      3  C   UNL     1       2.728   5.634  18.576  0.00  0.00    +0.000 A 
ATOM      4  C   UNL     1       3.638   5.869  17.543  0.00  0.00    +0.000 A 
ATOM      5  C   UNL     1       4.270   4.813  16.875  0.00  0.00    +0.000 A 
ATOM      6  C   UNL     1       4.017   3.509  17.311  0.00  0.00    +0.000 A 
ATOM      7  C   UNL     1       3.112   3.264  18.353  0.00  0.00    +0.000 A 
ATOM      8 CL   UNL     1       2.855   1.618  18.819  0.00  0.00    +0.000 Cl
ENDROOT
BRANCH   5   9
ATOM      9  N   UNL     1       5.161   5.141  15.853  0.00  0.00    +0.000 N 
ATOM     10  H   UNL     1       4.974   6.077  15.494  0.00  0.00    +0.000 HD
BRANCH   9  11
ATOM     11  C   UNL     1       6.597   4.939  16.045  0.00  0.00    +0.000 C 
BRANCH  11  12
ATOM     12  C   UNL     1       7.178   5.906  17.020  0.00  0.00    +0.000 A 
ATOM     13  C   UNL     1       7.669   5.761  18.303  0.00  0.00    +0.000 A 
ATOM     14  C   UNL     1       8.086   7.047  18.720  0.00  0.00    +0.000 A 
ATOM     15  C   UNL     1       7.826   7.892  17.666  0.00  0.00    +0.000 A 
ATOM     16  O   UNL     1       7.275   7.210  16.629  0.00  0.00    +0.000 OA
ENDBRANCH  11  12
ENDBRANCH   9  11
ENDBRANCH   5   9
TORSDOF 3
ENDMDL
MODEL 8
REMARK VINA RESULT:      -6.2      1.216      1.217
REMARK  Name = 
REMARK  3 active torsions:
REMARK  status: ('A' for Active; 'I' for Inactive)
REMARK    1  A    between atoms: C_5  and  N_6
REMARK    2  A    between atoms: N_6  and  C_7
REMARK    3  A    between atoms: C_7  and  C_8
REMARK                            x       y       z     vdW  Elec       q    Type
REMARK                         _______ _______ _______ _____ _____    ______ ____
ROOT
ATOM      1 CL   UNL     1       0.581   3.211  20.230  0.00  0.00    +0.000 Cl
ATOM      2  C   UNL     1       2.182   3.414  19.616  0.00  0.00    +0.000 A 
ATOM      3  C   UNL     1       3.232   2.843  20.335  0.00  0.00    +0.000 A 
ATOM      4  C   UNL     1       4.546   2.987  19.881  0.00  0.00    +0.000 A 
ATOM      5  C   UNL     1       4.841   3.725  18.728  0.00  0.00    +0.000 A 
ATOM      6  C   UNL     1       3.777   4.264  17.998  0.00  0.00    +0.000 A 
ATOM      7  C   UNL     1       2.455   4.116  18.439  0.00  0.00    +0.000 A 
ATOM      8 CL   UNL     1       1.206   4.824  17.476  0.00  0.00    +0.000 Cl
ENDROOT
BRANCH   5   9
ATOM      9  N   UNL     1       6.180   3.820  18.352  0.00  0.00    +0.000 N 
ATOM     10  H   UNL     1       6.505   2.947  17.937  0.00  0.00    +0.000 HD
BRANCH   9  11
ATOM     11  C   UNL     1       6.639   4.966  17.568  0.00  0.00    +0.000 C 
BRANCH  11  12
ATOM     12  C   UNL     1       6.625   4.690  16.103  0.00  0.00    +0.000 A 
ATOM     13  C   UNL     1       5.964   3.752  15.334  0.00  0.00    +0.000 A 
ATOM     14  C   UNL     1       6.352   3.987  13.994  0.00  0.00    +0.000 A 
ATOM     15  C   UNL     1       7.221   5.053  14.031  0.00  0.00    +0.000 A 
ATOM     16  O   UNL     1       7.393   5.487  15.306  0.00  0.00    +0.000 OA
ENDBRANCH  11  12
ENDBRANCH   9  11
ENDBRANCH   5   9
TORSDOF 3
ENDMDL
MODEL 9
REMARK VINA RESULT:      -6.2      1.659      1.997
REMARK  Name = 
REMARK  3 active torsions:
REMARK  status: ('A' for Active; 'I' for Inactive)
REMARK    1  A    between atoms: C_5  and  N_6
REMARK    2  A    between atoms: N_6  and  C_7
REMARK    3  A    between atoms: C_7  and  C_8
REMARK                            x       y       z     vdW  Elec       q    Type
REMARK                         _______ _______ _______ _____ _____    ______ ____
ROOT
ATOM      1 CL   UNL     1       0.361   3.152  19.748  0.00  0.00    +0.000 Cl
ATOM      2  C   UNL     1       1.960   3.298  19.112  0.00  0.00    +0.000 A 
ATOM      3  C   UNL     1       2.098   3.725  17.792  0.00  0.00    +0.000 A 
ATOM      4  C   UNL     1       3.371   3.851  17.231  0.00  0.00    +0.000 A 
ATOM      5  C   UNL     1       4.523   3.524  17.958  0.00  0.00    +0.000 A 
ATOM      6  C   UNL     1       4.373   3.129  19.291  0.00  0.00    +0.000 A 
ATOM      7  C   UNL     1       3.100   3.009  19.865  0.00  0.00    +0.000 A 
ATOM      8 CL   UNL     1       3.012   2.504  21.517  0.00  0.00    +0.000 Cl
ENDROOT
BRANCH   5   9
ATOM      9  N   UNL     1       5.752   3.676  17.317  0.00  0.00    +0.000 N 
ATOM     10  H   UNL     1       5.958   2.869  16.728  0.00  0.00    +0.000 HD
BRANCH   9  11
ATOM     11  C   UNL     1       6.057   4.921  16.611  0.00  0.00    +0.000 C 
BRANCH  11  12
ATOM     12  C   UNL     1       6.439   4.685  15.189  0.00  0.00    +0.000 A 
ATOM     13  C   UNL     1       5.957   3.825  14.222  0.00  0.00    +0.000 A 
ATOM     14  C   UNL     1       6.725   4.062  13.057  0.00  0.00    +0.000 A 
ATOM     15  C   UNL     1       7.621   5.052  13.388  0.00  0.00    +0.000 A 
ATOM     16  O   UNL     1       7.456   5.437  14.679  0.00  0.00    +0.000 OA
ENDBRANCH  11  12
ENDBRANCH   9  11
ENDBRANCH   5   9
TORSDOF 3
ENDMDL
