MODEL 1
REMARK VINA RESULT:      -7.5      0.000      0.000
REMARK  Name = 
REMARK  7 active torsions:
REMARK  status: ('A' for Active; 'I' for Inactive)
REMARK    1  A    between atoms: C_1  and  C_2
REMARK    2  A    between atoms: C_4  and  C_5
REMARK    3  A    between atoms: C_9  and  C_10
REMARK    4  A    between atoms: C_18  and  C_19
REMARK    5  A    between atoms: C_19  and  C_20
REMARK    6  A    between atoms: C_24  and  C_25
REMARK    7  A    between atoms: C_24  and  C_26
REMARK                            x       y       z     vdW  Elec       q    Type
REMARK                         _______ _______ _______ _____ _____    ______ ____
ROOT
ATOM      1  C   UNL     1       1.610   8.673  18.252  0.00  0.00    +0.000 C 
ATOM      2  O   UNL     1       1.121   8.943  17.160  0.00  0.00    +0.000 OA
ATOM      3  N   UNL     1       1.275   9.312  19.436  0.00  0.00    +0.000 N 
ATOM      4  C   UNL     1       0.290  10.302  19.544  0.00  0.00    +0.000 A 
ATOM      5  C   UNL     1      -0.908  10.205  18.849  0.00  0.00    +0.000 A 
ATOM      6  C   UNL     1      -1.886  11.172  19.061  0.00  0.00    +0.000 A 
ATOM      7  C   UNL     1      -1.625  12.232  19.920  0.00  0.00    +0.000 A 
ATOM      8  F   UNL     1      -2.599  13.114  20.163  0.00  0.00    +0.000 F 
ATOM      9  C   UNL     1      -0.378  12.341  20.514  0.00  0.00    +0.000 A 
ATOM     10  N   UNL     1       0.547  11.326  20.388  0.00  0.00    +0.000 NA
ATOM     11  H   UNL     1       1.922   9.236  20.210  0.00  0.00    +0.000 HD
ENDROOT
BRANCH   9  12
ATOM     12  C   UNL     1       0.042  13.546  21.376  0.00  0.00    +0.000 C 
ATOM     13  C   UNL     1      -0.662  13.320  22.732  0.00  0.00    +0.000 C 
ATOM     14  N   UNL     1       1.518  13.491  21.635  0.00  0.00    +0.000 NA
ATOM     15  C   UNL     1       2.389  14.007  20.817  0.00  0.00    +0.000 C 
ATOM     16  N   UNL     1       3.696  13.822  21.197  0.00  0.00    +0.000 N 
ATOM     17  C   UNL     1       2.122  14.718  19.466  0.00  0.00    +0.000 C 
ATOM     18  C   UNL     1       3.145  15.820  19.155  0.00  0.00    +0.000 C 
ATOM     19  C   UNL     1       2.258  13.629  18.378  0.00  0.00    +0.000 C 
ATOM     20  S   UNL     1       0.468  15.396  19.415  0.00  0.00    +0.000 S 
ATOM     21  O   UNL     1      -0.294  14.685  18.400  0.00  0.00    +0.000 OA
ATOM     22  N   UNL     1       0.294  16.931  19.580  0.00  0.00    +0.000 NA
ATOM     23  C   UNL     1      -0.972  17.191  20.349  0.00  0.00    +0.000 C 
ATOM     24  C   UNL     1      -1.431  15.865  21.037  0.00  0.00    +0.000 C 
ATOM     25  C   UNL     1      -0.182  15.005  21.001  0.00  0.00    +0.000 C 
ATOM     26  H   UNL     1       3.783  13.096  21.904  0.00  0.00    +0.000 HD
ATOM     27  H   UNL     1       4.392  13.737  20.464  0.00  0.00    +0.000 HD
ENDBRANCH   9  12
BRANCH   1  34
ATOM     28  C   UNL     1       1.623   6.530  20.439  0.00  0.00    +0.000 C 
ATOM     29  C   UNL     1       2.704   6.661  19.405  0.00  0.00    +0.000 A 
ATOM     30  C   UNL     1       3.799   5.781  19.463  0.00  0.00    +0.000 A 
ATOM     31  C   UNL     1       4.814   5.872  18.520  0.00  0.00    +0.000 A 
ATOM     32  C   UNL     1       4.707   6.831  17.530  0.00  0.00    +0.000 A 
ATOM     33  N   UNL     1       3.665   7.693  17.418  0.00  0.00    +0.000 NA
ATOM     34  C   UNL     1       2.687   7.615  18.373  0.00  0.00    +0.000 A 
BRANCH  31  35
ATOM     35  C   UNL     1       5.956   5.002  18.566  0.00  0.00    +0.000 C 
ATOM     36  N   UNL     1       6.892   4.315  18.594  0.00  0.00    +0.000 NA
ENDBRANCH  31  35
ENDBRANCH   1  34
TORSDOF 3
ENDMDL
MODEL 2
REMARK VINA RESULT:      -7.2      1.894      2.717
REMARK  Name = 
REMARK  7 active torsions:
REMARK  status: ('A' for Active; 'I' for Inactive)
REMARK    1  A    between atoms: C_1  and  C_2
REMARK    2  A    between atoms: C_4  and  C_5
REMARK    3  A    between atoms: C_9  and  C_10
REMARK    4  A    between atoms: C_18  and  C_19
REMARK    5  A    between atoms: C_19  and  C_20
REMARK    6  A    between atoms: C_24  and  C_25
REMARK    7  A    between atoms: C_24  and  C_26
REMARK                            x       y       z     vdW  Elec       q    Type
REMARK                         _______ _______ _______ _____ _____    ______ ____
ROOT
ATOM      1  C   UNL     1       0.338   9.915  20.204  0.00  0.00    +0.000 C 
ATOM      2  O   UNL     1      -0.770  10.008  19.686  0.00  0.00    +0.000 OA
ATOM      3  N   UNL     1       0.923  10.908  20.975  0.00  0.00    +0.000 N 
ATOM      4  C   UNL     1       0.297  12.116  21.310  0.00  0.00    +0.000 A 
ATOM      5  C   UNL     1      -1.048  12.159  21.650  0.00  0.00    +0.000 A 
ATOM      6  C   UNL     1      -1.597  13.370  22.059  0.00  0.00    +0.000 A 
ATOM      7  C   UNL     1      -0.805  14.510  22.072  0.00  0.00    +0.000 A 
ATOM      8  F   UNL     1      -1.330  15.650  22.532  0.00  0.00    +0.000 F 
ATOM      9  C   UNL     1       0.507  14.439  21.630  0.00  0.00    +0.000 A 
ATOM     10  N   UNL     1       1.077  13.219  21.330  0.00  0.00    +0.000 NA
ATOM     11  H   UNL     1       1.926  10.870  21.107  0.00  0.00    +0.000 HD
ENDROOT
BRANCH   9  12
ATOM     12  C   UNL     1       1.417  15.673  21.489  0.00  0.00    +0.000 C 
ATOM     13  C   UNL     1       1.440  16.303  22.899  0.00  0.00    +0.000 C 
ATOM     14  N   UNL     1       2.817  15.234  21.183  0.00  0.00    +0.000 NA
ATOM     15  C   UNL     1       3.231  15.019  19.968  0.00  0.00    +0.000 C 
ATOM     16  N   UNL     1       4.531  14.581  19.885  0.00  0.00    +0.000 N 
ATOM     17  C   UNL     1       2.419  15.128  18.652  0.00  0.00    +0.000 C 
ATOM     18  C   UNL     1       3.272  15.569  17.455  0.00  0.00    +0.000 C 
ATOM     19  C   UNL     1       1.894  13.705  18.357  0.00  0.00    +0.000 C 
ATOM     20  S   UNL     1       1.031  16.238  18.846  0.00  0.00    +0.000 S 
ATOM     21  O   UNL     1      -0.199  15.469  18.729  0.00  0.00    +0.000 OA
ATOM     22  N   UNL     1       1.122  17.653  18.212  0.00  0.00    +0.000 NA
ATOM     23  C   UNL     1       0.424  18.631  19.116  0.00  0.00    +0.000 C 
ATOM     24  C   UNL     1       0.219  17.972  20.518  0.00  0.00    +0.000 C 
ATOM     25  C   UNL     1       1.194  16.811  20.501  0.00  0.00    +0.000 C 
ATOM     26  H   UNL     1       4.873  14.246  20.782  0.00  0.00    +0.000 HD
ATOM     27  H   UNL     1       4.770  13.959  19.120  0.00  0.00    +0.000 HD
ENDBRANCH   9  12
BRANCH   1  34
ATOM     28  C   UNL     1       2.052   9.472  17.707  0.00  0.00    +0.000 C 
ATOM     29  C   UNL     1       1.940   8.470  18.820  0.00  0.00    +0.000 A 
ATOM     30  C   UNL     1       2.625   7.248  18.694  0.00  0.00    +0.000 A 
ATOM     31  C   UNL     1       2.545   6.301  19.707  0.00  0.00    +0.000 A 
ATOM     32  C   UNL     1       1.795   6.600  20.829  0.00  0.00    +0.000 A 
ATOM     33  N   UNL     1       1.129   7.768  21.008  0.00  0.00    +0.000 NA
ATOM     34  C   UNL     1       1.188   8.681  19.988  0.00  0.00    +0.000 A 
BRANCH  31  35
ATOM     35  C   UNL     1       3.215   5.035  19.599  0.00  0.00    +0.000 C 
ATOM     36  N   UNL     1       3.761   4.012  19.533  0.00  0.00    +0.000 NA
ENDBRANCH  31  35
ENDBRANCH   1  34
TORSDOF 3
ENDMDL
MODEL 3
REMARK VINA RESULT:      -7.0      1.338      1.441
REMARK  Name = 
REMARK  7 active torsions:
REMARK  status: ('A' for Active; 'I' for Inactive)
REMARK    1  A    between atoms: C_1  and  C_2
REMARK    2  A    between atoms: C_4  and  C_5
REMARK    3  A    between atoms: C_9  and  C_10
REMARK    4  A    between atoms: C_18  and  C_19
REMARK    5  A    between atoms: C_19  and  C_20
REMARK    6  A    between atoms: C_24  and  C_25
REMARK    7  A    between atoms: C_24  and  C_26
REMARK                            x       y       z     vdW  Elec       q    Type
REMARK                         _______ _______ _______ _____ _____    ______ ____
ROOT
ATOM      1  C   UNL     1       1.436   9.412  18.496  0.00  0.00    +0.000 C 
ATOM      2  O   UNL     1       1.122   9.758  17.361  0.00  0.00    +0.000 OA
ATOM      3  N   UNL     1       1.177  10.157  19.637  0.00  0.00    +0.000 N 
ATOM      4  C   UNL     1       0.469  11.365  19.644  0.00  0.00    +0.000 A 
ATOM      5  C   UNL     1      -0.653  11.546  18.848  0.00  0.00    +0.000 A 
ATOM      6  C   UNL     1      -1.370  12.734  18.959  0.00  0.00    +0.000 A 
ATOM      7  C   UNL     1      -0.921  13.725  19.823  0.00  0.00    +0.000 A 
ATOM      8  F   UNL     1      -1.658  14.831  19.967  0.00  0.00    +0.000 F 
ATOM      9  C   UNL     1       0.260  13.539  20.524  0.00  0.00    +0.000 A 
ATOM     10  N   UNL     1       0.906  12.321  20.494  0.00  0.00    +0.000 NA
ATOM     11  H   UNL     1       1.718   9.948  20.466  0.00  0.00    +0.000 HD
ENDROOT
BRANCH   9  12
ATOM     12  C   UNL     1       0.899  14.630  21.403  0.00  0.00    +0.000 C 
ATOM     13  C   UNL     1      -0.003  14.699  22.655  0.00  0.00    +0.000 C 
ATOM     14  N   UNL     1       2.252  14.179  21.864  0.00  0.00    +0.000 NA
ATOM     15  C   UNL     1       3.329  14.375  21.159  0.00  0.00    +0.000 C 
ATOM     16  N   UNL     1       4.471  13.854  21.721  0.00  0.00    +0.000 N 
ATOM     17  C   UNL     1       3.448  15.043  19.766  0.00  0.00    +0.000 C 
ATOM     18  C   UNL     1       4.774  15.790  19.570  0.00  0.00    +0.000 C 
ATOM     19  C   UNL     1       3.399  13.893  18.737  0.00  0.00    +0.000 C 
ATOM     20  S   UNL     1       2.079  16.155  19.471  0.00  0.00    +0.000 S 
ATOM     21  O   UNL     1       1.276  15.623  18.380  0.00  0.00    +0.000 OA
ATOM     22  N   UNL     1       2.335  17.684  19.570  0.00  0.00    +0.000 NA
ATOM     23  C   UNL     1       1.112  18.338  20.150  0.00  0.00    +0.000 C 
ATOM     24  C   UNL     1       0.209  17.243  20.804  0.00  0.00    +0.000 C 
ATOM     25  C   UNL     1       1.152  16.066  20.962  0.00  0.00    +0.000 C 
ATOM     26  H   UNL     1       4.257  13.181  22.452  0.00  0.00    +0.000 HD
ATOM     27  H   UNL     1       5.198  13.529  21.093  0.00  0.00    +0.000 HD
ENDBRANCH   9  12
BRANCH   1  34
ATOM     28  C   UNL     1       1.107   7.691  21.006  0.00  0.00    +0.000 C 
ATOM     29  C   UNL     1       2.067   7.362  19.900  0.00  0.00    +0.000 A 
ATOM     30  C   UNL     1       2.887   6.228  20.037  0.00  0.00    +0.000 A 
ATOM     31  C   UNL     1       3.784   5.893  19.031  0.00  0.00    +0.000 A 
ATOM     32  C   UNL     1       3.832   6.691  17.902  0.00  0.00    +0.000 A 
ATOM     33  N   UNL     1       3.053   7.784  17.712  0.00  0.00    +0.000 NA
ATOM     34  C   UNL     1       2.197   8.123  18.725  0.00  0.00    +0.000 A 
BRANCH  31  35
ATOM     35  C   UNL     1       4.649   4.753  19.151  0.00  0.00    +0.000 C 
ATOM     36  N   UNL     1       5.349   3.834  19.270  0.00  0.00    +0.000 NA
ENDBRANCH  31  35
ENDBRANCH   1  34
TORSDOF 3
ENDMDL
MODEL 4
REMARK VINA RESULT:      -6.8      1.043      1.486
REMARK  Name = 
REMARK  7 active torsions:
REMARK  status: ('A' for Active; 'I' for Inactive)
REMARK    1  A    between atoms: C_1  and  C_2
REMARK    2  A    between atoms: C_4  and  C_5
REMARK    3  A    between atoms: C_9  and  C_10
REMARK    4  A    between atoms: C_18  and  C_19
REMARK    5  A    between atoms: C_19  and  C_20
REMARK    6  A    between atoms: C_24  and  C_25
REMARK    7  A    between atoms: C_24  and  C_26
REMARK                            x       y       z     vdW  Elec       q    Type
REMARK                         _______ _______ _______ _____ _____    ______ ____
ROOT
ATOM      1  C   UNL     1       1.855   8.283  18.341  0.00  0.00    +0.000 C 
ATOM      2  O   UNL     1       1.746   8.646  17.174  0.00  0.00    +0.000 OA
ATOM      3  N   UNL     1       1.295   8.950  19.419  0.00  0.00    +0.000 N 
ATOM      4  C   UNL     1       0.482  10.085  19.307  0.00  0.00    +0.000 A 
ATOM      5  C   UNL     1      -0.466  10.195  18.300  0.00  0.00    +0.000 A 
ATOM      6  C   UNL     1      -1.306  11.305  18.288  0.00  0.00    +0.000 A 
ATOM      7  C   UNL     1      -1.145  12.294  19.248  0.00  0.00    +0.000 A 
ATOM      8  F   UNL     1      -2.002  13.319  19.262  0.00  0.00    +0.000 F 
ATOM      9  C   UNL     1      -0.119  12.190  20.175  0.00  0.00    +0.000 A 
ATOM     10  N   UNL     1       0.638  11.040  20.251  0.00  0.00    +0.000 NA
ATOM     11  H   UNL     1       1.673   8.757  20.338  0.00  0.00    +0.000 HD
ENDROOT
BRANCH   9  12
ATOM     12  C   UNL     1       0.214  13.297  21.191  0.00  0.00    +0.000 C 
ATOM     13  C   UNL     1      -0.572  12.907  22.463  0.00  0.00    +0.000 C 
ATOM     14  N   UNL     1       1.670  13.238  21.542  0.00  0.00    +0.000 NA
ATOM     15  C   UNL     1       2.580  13.859  20.848  0.00  0.00    +0.000 C 
ATOM     16  N   UNL     1       3.864  13.655  21.293  0.00  0.00    +0.000 N 
ATOM     17  C   UNL     1       2.384  14.713  19.570  0.00  0.00    +0.000 C 
ATOM     18  C   UNL     1       3.397  15.860  19.454  0.00  0.00    +0.000 C 
ATOM     19  C   UNL     1       2.618  13.757  18.379  0.00  0.00    +0.000 C 
ATOM     20  S   UNL     1       0.721  15.364  19.483  0.00  0.00    +0.000 S 
ATOM     21  O   UNL     1       0.045  14.759  18.345  0.00  0.00    +0.000 OA
ATOM     22  N   UNL     1       0.498  16.867  19.806  0.00  0.00    +0.000 NA
ATOM     23  C   UNL     1      -0.821  17.016  20.511  0.00  0.00    +0.000 C 
ATOM     24  C   UNL     1      -1.291  15.613  21.015  0.00  0.00    +0.000 C 
ATOM     25  C   UNL     1      -0.022  14.785  20.968  0.00  0.00    +0.000 C 
ATOM     26  H   UNL     1       3.922  12.856  21.919  0.00  0.00    +0.000 HD
ATOM     27  H   UNL     1       4.608  13.665  20.604  0.00  0.00    +0.000 HD
ENDBRANCH   9  12
BRANCH   1  34
ATOM     28  C   UNL     1       4.361   7.444  16.796  0.00  0.00    +0.000 C 
ATOM     29  C   UNL     1       3.805   6.664  17.953  0.00  0.00    +0.000 A 
ATOM     30  C   UNL     1       4.441   5.467  18.323  0.00  0.00    +0.000 A 
ATOM     31  C   UNL     1       3.955   4.723  19.390  0.00  0.00    +0.000 A 
ATOM     32  C   UNL     1       2.850   5.199  20.073  0.00  0.00    +0.000 A 
ATOM     33  N   UNL     1       2.209   6.355  19.768  0.00  0.00    +0.000 NA
ATOM     34  C   UNL     1       2.679   7.062  18.693  0.00  0.00    +0.000 A 
BRANCH  31  35
ATOM     35  C   UNL     1       4.570   3.485  19.780  0.00  0.00    +0.000 C 
ATOM     36  N   UNL     1       5.047   2.476  20.099  0.00  0.00    +0.000 NA
ENDBRANCH  31  35
ENDBRANCH   1  34
TORSDOF 3
ENDMDL
MODEL 5
REMARK VINA RESULT:      -6.7      4.093      6.921
REMARK  Name = 
REMARK  7 active torsions:
REMARK  status: ('A' for Active; 'I' for Inactive)
REMARK    1  A    between atoms: C_1  and  C_2
REMARK    2  A    between atoms: C_4  and  C_5
REMARK    3  A    between atoms: C_9  and  C_10
REMARK    4  A    between atoms: C_18  and  C_19
REMARK    5  A    between atoms: C_19  and  C_20
REMARK    6  A    between atoms: C_24  and  C_25
REMARK    7  A    between atoms: C_24  and  C_26
REMARK                            x       y       z     vdW  Elec       q    Type
REMARK                         _______ _______ _______ _____ _____    ______ ____
ROOT
ATOM      1  C   UNL     1       3.860  14.869  22.042  0.00  0.00    +0.000 C 
ATOM      2  O   UNL     1       3.350  15.982  21.966  0.00  0.00    +0.000 OA
ATOM      3  N   UNL     1       3.406  13.755  21.353  0.00  0.00    +0.000 N 
ATOM      4  C   UNL     1       2.349  13.775  20.434  0.00  0.00    +0.000 A 
ATOM      5  C   UNL     1       2.191  14.826  19.541  0.00  0.00    +0.000 A 
ATOM      6  C   UNL     1       1.175  14.752  18.593  0.00  0.00    +0.000 A 
ATOM      7  C   UNL     1       0.318  13.660  18.592  0.00  0.00    +0.000 A 
ATOM      8  F   UNL     1      -0.609  13.574  17.633  0.00  0.00    +0.000 F 
ATOM      9  C   UNL     1       0.451  12.683  19.566  0.00  0.00    +0.000 A 
ATOM     10  N   UNL     1       1.524  12.705  20.434  0.00  0.00    +0.000 NA
ATOM     11  H   UNL     1       3.688  12.845  21.694  0.00  0.00    +0.000 HD
ENDROOT
BRANCH   9  12
ATOM     12  C   UNL     1      -0.530  11.507  19.721  0.00  0.00    +0.000 C 
ATOM     13  C   UNL     1      -0.115  10.506  18.619  0.00  0.00    +0.000 C 
ATOM     14  N   UNL     1      -0.299  10.827  21.037  0.00  0.00    +0.000 NA
ATOM     15  C   UNL     1      -0.882  11.217  22.134  0.00  0.00    +0.000 C 
ATOM     16  N   UNL     1      -0.517  10.502  23.250  0.00  0.00    +0.000 N 
ATOM     17  C   UNL     1      -1.853  12.409  22.325  0.00  0.00    +0.000 C 
ATOM     18  C   UNL     1      -2.901  12.161  23.418  0.00  0.00    +0.000 C 
ATOM     19  C   UNL     1      -0.980  13.602  22.772  0.00  0.00    +0.000 C 
ATOM     20  S   UNL     1      -2.670  12.822  20.788  0.00  0.00    +0.000 S 
ATOM     21  O   UNL     1      -2.230  14.145  20.369  0.00  0.00    +0.000 OA
ATOM     22  N   UNL     1      -4.156  12.407  20.607  0.00  0.00    +0.000 NA
ATOM     23  C   UNL     1      -4.376  12.025  19.169  0.00  0.00    +0.000 C 
ATOM     24  C   UNL     1      -2.990  11.796  18.485  0.00  0.00    +0.000 C 
ATOM     25  C   UNL     1      -2.047  11.625  19.660  0.00  0.00    +0.000 C 
ATOM     26  H   UNL     1       0.333   9.967  23.091  0.00  0.00    +0.000 HD
ATOM     27  H   UNL     1      -0.511  10.990  24.139  0.00  0.00    +0.000 HD
ENDBRANCH   9  12
BRANCH   1  34
ATOM     28  C   UNL     1       6.765  14.771  21.080  0.00  0.00    +0.000 C 
ATOM     29  C   UNL     1       6.360  14.539  22.507  0.00  0.00    +0.000 A 
ATOM     30  C   UNL     1       7.358  14.222  23.445  0.00  0.00    +0.000 A 
ATOM     31  C   UNL     1       7.018  14.005  24.774  0.00  0.00    +0.000 A 
ATOM     32  C   UNL     1       5.690  14.123  25.140  0.00  0.00    +0.000 A 
ATOM     33  N   UNL     1       4.691  14.443  24.280  0.00  0.00    +0.000 NA
ATOM     34  C   UNL     1       5.034  14.621  22.967  0.00  0.00    +0.000 A 
BRANCH  31  35
ATOM     35  C   UNL     1       8.012  13.659  25.752  0.00  0.00    +0.000 C 
ATOM     36  N   UNL     1       8.824  13.365  26.528  0.00  0.00    +0.000 NA
ENDBRANCH  31  35
ENDBRANCH   1  34
TORSDOF 3
ENDMDL
MODEL 6
REMARK VINA RESULT:      -6.7      1.974      2.419
REMARK  Name = 
REMARK  7 active torsions:
REMARK  status: ('A' for Active; 'I' for Inactive)
REMARK    1  A    between atoms: C_1  and  C_2
REMARK    2  A    between atoms: C_4  and  C_5
REMARK    3  A    between atoms: C_9  and  C_10
REMARK    4  A    between atoms: C_18  and  C_19
REMARK    5  A    between atoms: C_19  and  C_20
REMARK    6  A    between atoms: C_24  and  C_25
REMARK    7  A    between atoms: C_24  and  C_26
REMARK                            x       y       z     vdW  Elec       q    Type
REMARK                         _______ _______ _______ _____ _____    ______ ____
ROOT
ATOM      1  C   UNL     1       1.510   9.282  18.811  0.00  0.00    +0.000 C 
ATOM      2  O   UNL     1       1.582   9.583  17.624  0.00  0.00    +0.000 OA
ATOM      3  N   UNL     1       1.089  10.148  19.809  0.00  0.00    +0.000 N 
ATOM      4  C   UNL     1       0.632  11.452  19.579  0.00  0.00    +0.000 A 
ATOM      5  C   UNL     1      -0.182  11.748  18.495  0.00  0.00    +0.000 A 
ATOM      6  C   UNL     1      -0.678  13.042  18.363  0.00  0.00    +0.000 A 
ATOM      7  C   UNL     1      -0.311  14.012  19.286  0.00  0.00    +0.000 A 
ATOM      8  F   UNL     1      -0.851  15.231  19.183  0.00  0.00    +0.000 F 
ATOM      9  C   UNL     1       0.584  13.694  20.296  0.00  0.00    +0.000 A 
ATOM     10  N   UNL     1       0.986  12.389  20.487  0.00  0.00    +0.000 NA
ATOM     11  H   UNL     1       1.339   9.921  20.764  0.00  0.00    +0.000 HD
ENDROOT
BRANCH   9  12
ATOM     12  C   UNL     1       1.144  14.734  21.283  0.00  0.00    +0.000 C 
ATOM     13  C   UNL     1       0.095  14.801  22.416  0.00  0.00    +0.000 C 
ATOM     14  N   UNL     1       2.413  14.218  21.893  0.00  0.00    +0.000 NA
ATOM     15  C   UNL     1       3.575  14.393  21.335  0.00  0.00    +0.000 C 
ATOM     16  N   UNL     1       4.619  13.813  22.016  0.00  0.00    +0.000 N 
ATOM     17  C   UNL     1       3.891  15.096  19.991  0.00  0.00    +0.000 C 
ATOM     18  C   UNL     1       5.256  15.798  19.986  0.00  0.00    +0.000 C 
ATOM     19  C   UNL     1       3.932  13.979  18.925  0.00  0.00    +0.000 C 
ATOM     20  S   UNL     1       2.608  16.268  19.565  0.00  0.00    +0.000 S 
ATOM     21  O   UNL     1       1.931  15.799  18.366  0.00  0.00    +0.000 OA
ATOM     22  N   UNL     1       2.902  17.783  19.746  0.00  0.00    +0.000 NA
ATOM     23  C   UNL     1       1.639  18.466  20.192  0.00  0.00    +0.000 C 
ATOM     24  C   UNL     1       0.624  17.387  20.692  0.00  0.00    +0.000 C 
ATOM     25  C   UNL     1       1.499  16.172  20.926  0.00  0.00    +0.000 C 
ATOM     26  H   UNL     1       4.292  13.127  22.692  0.00  0.00    +0.000 HD
ATOM     27  H   UNL     1       5.408  13.479  21.472  0.00  0.00    +0.000 HD
ENDBRANCH   9  12
BRANCH   1  34
ATOM     28  C   UNL     1       3.583   7.570  17.348  0.00  0.00    +0.000 C 
ATOM     29  C   UNL     1       2.862   7.116  18.584  0.00  0.00    +0.000 A 
ATOM     30  C   UNL     1       3.120   5.824  19.075  0.00  0.00    +0.000 A 
ATOM     31  C   UNL     1       2.473   5.374  20.219  0.00  0.00    +0.000 A 
ATOM     32  C   UNL     1       1.592   6.229  20.854  0.00  0.00    +0.000 A 
ATOM     33  N   UNL     1       1.320   7.489  20.433  0.00  0.00    +0.000 NA
ATOM     34  C   UNL     1       1.939   7.910  19.286  0.00  0.00    +0.000 A 
BRANCH  31  35
ATOM     35  C   UNL     1       2.699   4.052  20.733  0.00  0.00    +0.000 C 
ATOM     36  N   UNL     1       2.894   2.979  21.131  0.00  0.00    +0.000 NA
ENDBRANCH  31  35
ENDBRANCH   1  34
TORSDOF 3
ENDMDL
MODEL 7
REMARK VINA RESULT:      -6.7      1.707      2.418
REMARK  Name = 
REMARK  7 active torsions:
REMARK  status: ('A' for Active; 'I' for Inactive)
REMARK    1  A    between atoms: C_1  and  C_2
REMARK    2  A    between atoms: C_4  and  C_5
REMARK    3  A    between atoms: C_9  and  C_10
REMARK    4  A    between atoms: C_18  and  C_19
REMARK    5  A    between atoms: C_19  and  C_20
REMARK    6  A    between atoms: C_24  and  C_25
REMARK    7  A    between atoms: C_24  and  C_26
REMARK                            x       y       z     vdW  Elec       q    Type
REMARK                         _______ _______ _______ _____ _____    ______ ____
ROOT
ATOM      1  C   UNL     1       0.606  10.029  19.748  0.00  0.00    +0.000 C 
ATOM      2  O   UNL     1      -0.574  10.124  19.426  0.00  0.00    +0.000 OA
ATOM      3  N   UNL     1       1.281  10.966  20.515  0.00  0.00    +0.000 N 
ATOM      4  C   UNL     1       0.685  12.104  21.072  0.00  0.00    +0.000 A 
ATOM      5  C   UNL     1      -0.587  12.052  21.626  0.00  0.00    +0.000 A 
ATOM      6  C   UNL     1      -1.096  13.191  22.244  0.00  0.00    +0.000 A 
ATOM      7  C   UNL     1      -0.345  14.359  22.251  0.00  0.00    +0.000 A 
ATOM      8  F   UNL     1      -0.820  15.421  22.907  0.00  0.00    +0.000 F 
ATOM      9  C   UNL     1       0.878  14.391  21.599  0.00  0.00    +0.000 A 
ATOM     10  N   UNL     1       1.425  13.235  21.084  0.00  0.00    +0.000 NA
ATOM     11  H   UNL     1       2.293  10.960  20.480  0.00  0.00    +0.000 HD
ENDROOT
BRANCH   9  12
ATOM     12  C   UNL     1       1.717  15.673  21.445  0.00  0.00    +0.000 C 
ATOM     13  C   UNL     1       1.776  16.273  22.868  0.00  0.00    +0.000 C 
ATOM     14  N   UNL     1       3.121  15.314  21.064  0.00  0.00    +0.000 NA
ATOM     15  C   UNL     1       3.486  15.147  19.825  0.00  0.00    +0.000 C 
ATOM     16  N   UNL     1       4.800  14.778  19.670  0.00  0.00    +0.000 N 
ATOM     17  C   UNL     1       2.607  15.243  18.552  0.00  0.00    +0.000 C 
ATOM     18  C   UNL     1       3.378  15.753  17.327  0.00  0.00    +0.000 C 
ATOM     19  C   UNL     1       2.140  13.802  18.248  0.00  0.00    +0.000 C 
ATOM     20  S   UNL     1       1.175  16.276  18.839  0.00  0.00    +0.000 S 
ATOM     21  O   UNL     1      -0.018  15.447  18.761  0.00  0.00    +0.000 OA
ATOM     22  N   UNL     1       1.164  17.707  18.235  0.00  0.00    +0.000 NA
ATOM     23  C   UNL     1       0.463  18.628  19.195  0.00  0.00    +0.000 C 
ATOM     24  C   UNL     1       0.359  17.928  20.589  0.00  0.00    +0.000 C 
ATOM     25  C   UNL     1       1.390  16.820  20.497  0.00  0.00    +0.000 C 
ATOM     26  H   UNL     1       5.202  14.442  20.542  0.00  0.00    +0.000 HD
ATOM     27  H   UNL     1       5.033  14.187  18.880  0.00  0.00    +0.000 HD
ENDBRANCH   9  12
BRANCH   1  34
ATOM     28  C   UNL     1       1.096   7.513  21.421  0.00  0.00    +0.000 C 
ATOM     29  C   UNL     1       1.695   7.730  20.061  0.00  0.00    +0.000 A 
ATOM     30  C   UNL     1       2.557   6.747  19.543  0.00  0.00    +0.000 A 
ATOM     31  C   UNL     1       3.125   6.914  18.287  0.00  0.00    +0.000 A 
ATOM     32  C   UNL     1       2.809   8.053  17.570  0.00  0.00    +0.000 A 
ATOM     33  N   UNL     1       1.972   9.023  18.015  0.00  0.00    +0.000 NA
ATOM     34  C   UNL     1       1.444   8.863  19.268  0.00  0.00    +0.000 A 
BRANCH  31  35
ATOM     35  C   UNL     1       4.025   5.939  17.739  0.00  0.00    +0.000 C 
ATOM     36  N   UNL     1       4.745   5.154  17.276  0.00  0.00    +0.000 NA
ENDBRANCH  31  35
ENDBRANCH   1  34
TORSDOF 3
ENDMDL
MODEL 8
REMARK VINA RESULT:      -6.6      4.498      6.489
REMARK  Name = 
REMARK  7 active torsions:
REMARK  status: ('A' for Active; 'I' for Inactive)
REMARK    1  A    between atoms: C_1  and  C_2
REMARK    2  A    between atoms: C_4  and  C_5
REMARK    3  A    between atoms: C_9  and  C_10
REMARK    4  A    between atoms: C_18  and  C_19
REMARK    5  A    between atoms: C_19  and  C_20
REMARK    6  A    between atoms: C_24  and  C_25
REMARK    7  A    between atoms: C_24  and  C_26
REMARK                            x       y       z     vdW  Elec       q    Type
REMARK                         _______ _______ _______ _____ _____    ______ ____
ROOT
ATOM      1  C   UNL     1      -0.289  12.358  20.959  0.00  0.00    +0.000 C 
ATOM      2  O   UNL     1       0.155  12.855  21.989  0.00  0.00    +0.000 OA
ATOM      3  N   UNL     1      -1.366  12.868  20.250  0.00  0.00    +0.000 N 
ATOM      4  C   UNL     1      -2.041  14.048  20.585  0.00  0.00    +0.000 A 
ATOM      5  C   UNL     1      -1.354  15.169  21.027  0.00  0.00    +0.000 A 
ATOM      6  C   UNL     1      -2.066  16.342  21.262  0.00  0.00    +0.000 A 
ATOM      7  C   UNL     1      -3.445  16.350  21.097  0.00  0.00    +0.000 A 
ATOM      8  F   UNL     1      -4.103  17.501  21.262  0.00  0.00    +0.000 F 
ATOM      9  C   UNL     1      -4.100  15.179  20.750  0.00  0.00    +0.000 A 
ATOM     10  N   UNL     1      -3.382  14.051  20.412  0.00  0.00    +0.000 NA
ATOM     11  H   UNL     1      -1.837  12.248  19.603  0.00  0.00    +0.000 HD
ENDROOT
BRANCH   9  12
ATOM     12  C   UNL     1      -5.633  15.063  20.670  0.00  0.00    +0.000 C 
ATOM     13  C   UNL     1      -6.004  15.724  19.323  0.00  0.00    +0.000 C 
ATOM     14  N   UNL     1      -6.026  13.620  20.570  0.00  0.00    +0.000 NA
ATOM     15  C   UNL     1      -6.209  12.873  21.620  0.00  0.00    +0.000 C 
ATOM     16  N   UNL     1      -6.522  11.566  21.334  0.00  0.00    +0.000 N 
ATOM     17  C   UNL     1      -6.043  13.268  23.110  0.00  0.00    +0.000 C 
ATOM     18  C   UNL     1      -7.007  12.518  24.040  0.00  0.00    +0.000 C 
ATOM     19  C   UNL     1      -4.604  12.864  23.499  0.00  0.00    +0.000 C 
ATOM     20  S   UNL     1      -6.239  15.032  23.331  0.00  0.00    +0.000 S 
ATOM     21  O   UNL     1      -4.965  15.590  23.759  0.00  0.00    +0.000 OA
ATOM     22  N   UNL     1      -7.562  15.555  23.953  0.00  0.00    +0.000 NA
ATOM     23  C   UNL     1      -7.916  16.863  23.299  0.00  0.00    +0.000 C 
ATOM     24  C   UNL     1      -7.079  17.020  21.989  0.00  0.00    +0.000 C 
ATOM     25  C   UNL     1      -6.604  15.608  21.710  0.00  0.00    +0.000 C 
ATOM     26  H   UNL     1      -6.304  11.330  20.369  0.00  0.00    +0.000 HD
ATOM     27  H   UNL     1      -6.214  10.855  21.988  0.00  0.00    +0.000 HD
ENDBRANCH   9  12
BRANCH   1  34
ATOM     28  C   UNL     1      -0.210   9.723  22.514  0.00  0.00    +0.000 C 
ATOM     29  C   UNL     1       0.372   9.888  21.140  0.00  0.00    +0.000 A 
ATOM     30  C   UNL     1       1.022   8.789  20.550  0.00  0.00    +0.000 A 
ATOM     31  C   UNL     1       1.568   8.907  19.278  0.00  0.00    +0.000 A 
ATOM     32  C   UNL     1       1.441  10.115  18.618  0.00  0.00    +0.000 A 
ATOM     33  N   UNL     1       0.810  11.199  19.134  0.00  0.00    +0.000 NA
ATOM     34  C   UNL     1       0.305  11.082  20.401  0.00  0.00    +0.000 A 
BRANCH  31  35
ATOM     35  C   UNL     1       2.255   7.810  18.657  0.00  0.00    +0.000 C 
ATOM     36  N   UNL     1       2.796   6.922  18.139  0.00  0.00    +0.000 NA
ENDBRANCH  31  35
ENDBRANCH   1  34
TORSDOF 3
ENDMDL
MODEL 9
REMARK VINA RESULT:      -6.5      2.112      3.112
REMARK  Name = 
REMARK  7 active torsions:
REMARK  status: ('A' for Active; 'I' for Inactive)
REMARK    1  A    between atoms: C_1  and  C_2
REMARK    2  A    between atoms: C_4  and  C_5
REMARK    3  A    between atoms: C_9  and  C_10
REMARK    4  A    between atoms: C_18  and  C_19
REMARK    5  A    between atoms: C_19  and  C_20
REMARK    6  A    between atoms: C_24  and  C_25
REMARK    7  A    between atoms: C_24  and  C_26
REMARK                            x       y       z     vdW  Elec       q    Type
REMARK                         _______ _______ _______ _____ _____    ______ ____
ROOT
ATOM      1  C   UNL     1       0.282  10.012  20.397  0.00  0.00    +0.000 C 
ATOM      2  O   UNL     1      -0.929   9.834  20.304  0.00  0.00    +0.000 OA
ATOM      3  N   UNL     1       0.863  11.076  21.071  0.00  0.00    +0.000 N 
ATOM      4  C   UNL     1       0.143  12.045  21.782  0.00  0.00    +0.000 A 
ATOM      5  C   UNL     1      -0.955  11.699  22.558  0.00  0.00    +0.000 A 
ATOM      6  C   UNL     1      -1.579  12.688  23.313  0.00  0.00    +0.000 A 
ATOM      7  C   UNL     1      -1.123  13.997  23.237  0.00  0.00    +0.000 A 
ATOM      8  F   UNL     1      -1.691  14.920  24.019  0.00  0.00    +0.000 F 
ATOM      9  C   UNL     1      -0.087  14.313  22.372  0.00  0.00    +0.000 A 
ATOM     10  N   UNL     1       0.598  13.315  21.710  0.00  0.00    +0.000 NA
ATOM     11  H   UNL     1       1.824  11.303  20.849  0.00  0.00    +0.000 HD
ENDROOT
BRANCH   9  12
ATOM     12  C   UNL     1       0.398  15.753  22.127  0.00  0.00    +0.000 C 
ATOM     13  C   UNL     1       1.074  16.168  23.453  0.00  0.00    +0.000 C 
ATOM     14  N   UNL     1       1.464  15.755  21.074  0.00  0.00    +0.000 NA
ATOM     15  C   UNL     1       1.189  15.828  19.804  0.00  0.00    +0.000 C 
ATOM     16  N   UNL     1       2.291  15.772  18.985  0.00  0.00    +0.000 N 
ATOM     17  C   UNL     1      -0.207  15.893  19.134  0.00  0.00    +0.000 C 
ATOM     18  C   UNL     1      -0.212  16.707  17.833  0.00  0.00    +0.000 C 
ATOM     19  C   UNL     1      -0.576  14.436  18.778  0.00  0.00    +0.000 C 
ATOM     20  S   UNL     1      -1.429  16.550  20.262  0.00  0.00    +0.000 S 
ATOM     21  O   UNL     1      -2.390  15.500  20.568  0.00  0.00    +0.000 OA
ATOM     22  N   UNL     1      -1.917  18.010  20.054  0.00  0.00    +0.000 NA
ATOM     23  C   UNL     1      -2.165  18.630  21.402  0.00  0.00    +0.000 C 
ATOM     24  C   UNL     1      -1.478  17.754  22.500  0.00  0.00    +0.000 C 
ATOM     25  C   UNL     1      -0.496  16.913  21.708  0.00  0.00    +0.000 C 
ATOM     26  H   UNL     1       3.109  15.423  19.478  0.00  0.00    +0.000 HD
ATOM     27  H   UNL     1       2.177  15.349  18.071  0.00  0.00    +0.000 HD
ENDBRANCH   9  12
BRANCH   1  34
ATOM     28  C   UNL     1       1.572  10.603  17.684  0.00  0.00    +0.000 C 
ATOM     29  C   UNL     1       1.809   9.335  18.452  0.00  0.00    +0.000 A 
ATOM     30  C   UNL     1       2.634   8.349  17.882  0.00  0.00    +0.000 A 
ATOM     31  C   UNL     1       2.877   7.166  18.567  0.00  0.00    +0.000 A 
ATOM     32  C   UNL     1       2.302   6.999  19.814  0.00  0.00    +0.000 A 
ATOM     33  N   UNL     1       1.513   7.923  20.416  0.00  0.00    +0.000 NA
ATOM     34  C   UNL     1       1.254   9.072  19.716  0.00  0.00    +0.000 A 
BRANCH  31  35
ATOM     35  C   UNL     1       3.697   6.131  18.003  0.00  0.00    +0.000 C 
ATOM     36  N   UNL     1       4.375   5.310  17.539  0.00  0.00    +0.000 NA
ENDBRANCH  31  35
ENDBRANCH   1  34
TORSDOF 3
ENDMDL
