MODEL 1
REMARK VINA RESULT:      -8.8      0.000      0.000
REMARK  Name = 
REMARK  5 active torsions:
REMARK  status: ('A' for Active; 'I' for Inactive)
REMARK    1  A    between atoms: C_1  and  C_2
REMARK    2  A    between atoms: C_5  and  N_6
REMARK    3  A    between atoms: C_7  and  C_9
REMARK    4  A    between atoms: C_9  and  S_10
REMARK    5  A    between atoms: S_10  and  C_11
REMARK                            x       y       z     vdW  Elec       q    Type
REMARK                         _______ _______ _______ _____ _____    ______ ____
ROOT
ATOM      1  C   UNL     1       6.423   5.337  19.031  0.00  0.00    +0.000 A 
ATOM      2  N   UNL     1       6.512   4.162  18.463  0.00  0.00    +0.000 NA
ATOM      3  N   UNL     1       5.422   3.354  18.428  0.00  0.00    +0.000 N 
ATOM      4  C   UNL     1       4.244   3.741  18.966  0.00  0.00    +0.000 A 
ATOM      5  C   UNL     1       3.025   3.243  19.107  0.00  0.00    +0.000 A 
ATOM      6  C   UNL     1       2.392   2.018  18.736  0.00  0.00    +0.000 A 
ATOM      7  C   UNL     1       1.099   1.842  19.053  0.00  0.00    +0.000 A 
ATOM      8  C   UNL     1       0.349   2.872  19.759  0.00  0.00    +0.000 A 
ATOM      9  C   UNL     1       0.887   4.047  20.135  0.00  0.00    +0.000 A 
ATOM     10  C   UNL     1       2.310   4.313  19.822  0.00  0.00    +0.000 A 
ATOM     11  N   UNL     1       3.019   5.366  20.094  0.00  0.00    +0.000 NA
ATOM     12  C   UNL     1       4.263   5.082  19.580  0.00  0.00    +0.000 A 
ATOM     13  N   UNL     1       5.289   5.865  19.627  0.00  0.00    +0.000 NA
ATOM     14  H   UNL     1       5.487   2.446  17.977  0.00  0.00    +0.000 HD
ENDROOT
BRANCH   1  15
ATOM     15  S   UNL     1       7.932   6.228  18.974  0.00  0.00    +0.000 S 
BRANCH  15  16
ATOM     16  C   UNL     1       7.750   7.371  17.588  0.00  0.00    +0.000 C 
BRANCH  16  18
ATOM     17  N   UNL     1       7.535   5.743  15.737  0.00  0.00    +0.000 N 
ATOM     18  C   UNL     1       6.905   6.748  16.460  0.00  0.00    +0.000 C 
ATOM     19  O   UNL     1       5.771   7.174  16.242  0.00  0.00    +0.000 OA
ATOM     20  H   UNL     1       8.410   5.412  16.132  0.00  0.00    +0.000 HD
BRANCH  17  25
ATOM     21  C   UNL     1       5.243   2.694  11.446  0.00  0.00    +0.000 C 
ATOM     22  C   UNL     1       5.859   3.491  12.560  0.00  0.00    +0.000 A 
ATOM     23  C   UNL     1       7.023   4.234  12.347  0.00  0.00    +0.000 A 
ATOM     24  C   UNL     1       7.593   4.985  13.384  0.00  0.00    +0.000 A 
ATOM     25  C   UNL     1       7.015   5.001  14.653  0.00  0.00    +0.000 A 
ATOM     26  C   UNL     1       5.860   4.241  14.872  0.00  0.00    +0.000 A 
ATOM     27  C   UNL     1       5.278   3.500  13.831  0.00  0.00    +0.000 A 
ENDBRANCH  17  25
ENDBRANCH  16  18
ENDBRANCH  15  16
ENDBRANCH   1  15
TORSDOF 4
ENDMDL
MODEL 2
REMARK VINA RESULT:      -8.0      3.180      6.624
REMARK  Name = 
REMARK  5 active torsions:
REMARK  status: ('A' for Active; 'I' for Inactive)
REMARK    1  A    between atoms: C_1  and  C_2
REMARK    2  A    between atoms: C_5  and  N_6
REMARK    3  A    between atoms: C_7  and  C_9
REMARK    4  A    between atoms: C_9  and  S_10
REMARK    5  A    between atoms: S_10  and  C_11
REMARK                            x       y       z     vdW  Elec       q    Type
REMARK                         _______ _______ _______ _____ _____    ______ ____
ROOT
ATOM      1  C   UNL     1       3.612   2.493  19.822  0.00  0.00    +0.000 A 
ATOM      2  N   UNL     1       3.007   2.130  18.720  0.00  0.00    +0.000 NA
ATOM      3  N   UNL     1       3.473   2.575  17.526  0.00  0.00    +0.000 N 
ATOM      4  C   UNL     1       4.553   3.384  17.451  0.00  0.00    +0.000 A 
ATOM      5  C   UNL     1       5.260   3.983  16.506  0.00  0.00    +0.000 A 
ATOM      6  C   UNL     1       5.186   4.040  15.081  0.00  0.00    +0.000 A 
ATOM      7  C   UNL     1       6.096   4.773  14.420  0.00  0.00    +0.000 A 
ATOM      8  C   UNL     1       7.141   5.498  15.130  0.00  0.00    +0.000 A 
ATOM      9  C   UNL     1       7.265   5.484  16.470  0.00  0.00    +0.000 A 
ATOM     10  C   UNL     1       6.296   4.700  17.269  0.00  0.00    +0.000 A 
ATOM     11  N   UNL     1       6.233   4.554  18.557  0.00  0.00    +0.000 NA
ATOM     12  C   UNL     1       5.150   3.730  18.756  0.00  0.00    +0.000 A 
ATOM     13  N   UNL     1       4.721   3.320  19.903  0.00  0.00    +0.000 NA
ATOM     14  H   UNL     1       3.012   2.284  16.670  0.00  0.00    +0.000 HD
ENDROOT
BRANCH   1  15
ATOM     15  S   UNL     1       2.863   1.816  21.256  0.00  0.00    +0.000 S 
BRANCH  15  16
ATOM     16  C   UNL     1       1.987   3.196  22.024  0.00  0.00    +0.000 C 
BRANCH  16  18
ATOM     17  N   UNL     1       2.367   5.398  20.959  0.00  0.00    +0.000 N 
ATOM     18  C   UNL     1       1.583   4.251  20.976  0.00  0.00    +0.000 C 
ATOM     19  O   UNL     1       0.605   4.050  20.256  0.00  0.00    +0.000 OA
ATOM     20  H   UNL     1       3.216   5.346  21.514  0.00  0.00    +0.000 HD
BRANCH  17  25
ATOM     21  C   UNL     1       1.756  10.097  17.718  0.00  0.00    +0.000 C 
ATOM     22  C   UNL     1       1.917   8.858  18.551  0.00  0.00    +0.000 A 
ATOM     23  C   UNL     1       2.550   7.726  18.031  0.00  0.00    +0.000 A 
ATOM     24  C   UNL     1       2.708   6.571  18.811  0.00  0.00    +0.000 A 
ATOM     25  C   UNL     1       2.232   6.526  20.120  0.00  0.00    +0.000 A 
ATOM     26  C   UNL     1       1.580   7.653  20.635  0.00  0.00    +0.000 A 
ATOM     27  C   UNL     1       1.434   8.815  19.861  0.00  0.00    +0.000 A 
ENDBRANCH  17  25
ENDBRANCH  16  18
ENDBRANCH  15  16
ENDBRANCH   1  15
TORSDOF 4
ENDMDL
MODEL 3
REMARK VINA RESULT:      -7.9      0.566      1.597
REMARK  Name = 
REMARK  5 active torsions:
REMARK  status: ('A' for Active; 'I' for Inactive)
REMARK    1  A    between atoms: C_1  and  C_2
REMARK    2  A    between atoms: C_5  and  N_6
REMARK    3  A    between atoms: C_7  and  C_9
REMARK    4  A    between atoms: C_9  and  S_10
REMARK    5  A    between atoms: S_10  and  C_11
REMARK                            x       y       z     vdW  Elec       q    Type
REMARK                         _______ _______ _______ _____ _____    ______ ____
ROOT
ATOM      1  C   UNL     1       6.230   5.245  19.095  0.00  0.00    +0.000 A 
ATOM      2  N   UNL     1       5.399   6.061  19.691  0.00  0.00    +0.000 NA
ATOM      3  N   UNL     1       4.100   5.696  19.841  0.00  0.00    +0.000 N 
ATOM      4  C   UNL     1       3.649   4.505  19.391  0.00  0.00    +0.000 A 
ATOM      5  C   UNL     1       2.504   3.840  19.367  0.00  0.00    +0.000 A 
ATOM      6  C   UNL     1       1.179   4.107  19.828  0.00  0.00    +0.000 A 
ATOM      7  C   UNL     1       0.230   3.179  19.625  0.00  0.00    +0.000 A 
ATOM      8  C   UNL     1       0.534   1.924  18.952  0.00  0.00    +0.000 A 
ATOM      9  C   UNL     1       1.762   1.613  18.495  0.00  0.00    +0.000 A 
ATOM     10  C   UNL     1       2.860   2.588  18.680  0.00  0.00    +0.000 A 
ATOM     11  N   UNL     1       4.103   2.491  18.317  0.00  0.00    +0.000 NA
ATOM     12  C   UNL     1       4.674   3.670  18.735  0.00  0.00    +0.000 A 
ATOM     13  N   UNL     1       5.913   4.000  18.578  0.00  0.00    +0.000 NA
ATOM     14  H   UNL     1       3.456   6.323  20.314  0.00  0.00    +0.000 HD
ENDROOT
BRANCH   1  15
ATOM     15  S   UNL     1       7.856   5.895  18.998  0.00  0.00    +0.000 S 
BRANCH  15  16
ATOM     16  C   UNL     1       7.792   7.124  17.676  0.00  0.00    +0.000 C 
BRANCH  16  18
ATOM     17  N   UNL     1       7.488   5.528  15.809  0.00  0.00    +0.000 N 
ATOM     18  C   UNL     1       6.955   6.618  16.486  0.00  0.00    +0.000 C 
ATOM     19  O   UNL     1       5.912   7.199  16.184  0.00  0.00    +0.000 OA
ATOM     20  H   UNL     1       8.275   5.080  16.269  0.00  0.00    +0.000 HD
BRANCH  17  25
ATOM     21  C   UNL     1       5.127   2.771  11.362  0.00  0.00    +0.000 C 
ATOM     22  C   UNL     1       5.760   3.492  12.516  0.00  0.00    +0.000 A 
ATOM     23  C   UNL     1       6.938   4.224  12.342  0.00  0.00    +0.000 A 
ATOM     24  C   UNL     1       7.526   4.904  13.418  0.00  0.00    +0.000 A 
ATOM     25  C   UNL     1       6.951   4.859  14.687  0.00  0.00    +0.000 A 
ATOM     26  C   UNL     1       5.782   4.110  14.867  0.00  0.00    +0.000 A 
ATOM     27  C   UNL     1       5.184   3.441  13.788  0.00  0.00    +0.000 A 
ENDBRANCH  17  25
ENDBRANCH  16  18
ENDBRANCH  15  16
ENDBRANCH   1  15
TORSDOF 4
ENDMDL
MODEL 4
REMARK VINA RESULT:      -7.9      3.365      7.668
REMARK  Name = 
REMARK  5 active torsions:
REMARK  status: ('A' for Active; 'I' for Inactive)
REMARK    1  A    between atoms: C_1  and  C_2
REMARK    2  A    between atoms: C_5  and  N_6
REMARK    3  A    between atoms: C_7  and  C_9
REMARK    4  A    between atoms: C_9  and  S_10
REMARK    5  A    between atoms: S_10  and  C_11
REMARK                            x       y       z     vdW  Elec       q    Type
REMARK                         _______ _______ _______ _____ _____    ______ ____
ROOT
ATOM      1  C   UNL     1       5.290   4.757  17.992  0.00  0.00    +0.000 A 
ATOM      2  N   UNL     1       4.439   3.932  17.438  0.00  0.00    +0.000 NA
ATOM      3  N   UNL     1       4.571   3.623  16.124  0.00  0.00    +0.000 N 
ATOM      4  C   UNL     1       5.565   4.148  15.375  0.00  0.00    +0.000 A 
ATOM      5  C   UNL     1       5.988   4.074  14.122  0.00  0.00    +0.000 A 
ATOM      6  C   UNL     1       5.553   3.373  12.956  0.00  0.00    +0.000 A 
ATOM      7  C   UNL     1       6.238   3.542  11.814  0.00  0.00    +0.000 A 
ATOM      8  C   UNL     1       7.402   4.416  11.753  0.00  0.00    +0.000 A 
ATOM      9  C   UNL     1       7.862   5.102  12.816  0.00  0.00    +0.000 A 
ATOM     10  C   UNL     1       7.156   4.970  14.111  0.00  0.00    +0.000 A 
ATOM     11  N   UNL     1       7.427   5.538  15.246  0.00  0.00    +0.000 NA
ATOM     12  C   UNL     1       6.461   5.066  16.104  0.00  0.00    +0.000 A 
ATOM     13  N   UNL     1       6.352   5.376  17.354  0.00  0.00    +0.000 NA
ATOM     14  H   UNL     1       3.918   2.973  15.695  0.00  0.00    +0.000 HD
ENDROOT
BRANCH   1  15
ATOM     15  S   UNL     1       4.954   5.029  19.692  0.00  0.00    +0.000 S 
BRANCH  15  16
ATOM     16  C   UNL     1       3.348   4.254  19.982  0.00  0.00    +0.000 C 
BRANCH  16  18
ATOM     17  N   UNL     1       2.635   6.622  19.895  0.00  0.00    +0.000 N 
ATOM     18  C   UNL     1       2.240   5.313  20.139  0.00  0.00    +0.000 C 
ATOM     19  O   UNL     1       1.112   4.967  20.492  0.00  0.00    +0.000 OA
ATOM     20  H   UNL     1       3.555   6.722  19.477  0.00  0.00    +0.000 HD
BRANCH  17  25
ATOM     21  C   UNL     1      -0.580  11.352  20.400  0.00  0.00    +0.000 C 
ATOM     22  C   UNL     1       0.258  10.115  20.250  0.00  0.00    +0.000 A 
ATOM     23  C   UNL     1       0.875   9.814  19.032  0.00  0.00    +0.000 A 
ATOM     24  C   UNL     1       1.664   8.663  18.894  0.00  0.00    +0.000 A 
ATOM     25  C   UNL     1       1.846   7.791  19.966  0.00  0.00    +0.000 A 
ATOM     26  C   UNL     1       1.213   8.083  21.181  0.00  0.00    +0.000 A 
ATOM     27  C   UNL     1       0.434   9.241  21.326  0.00  0.00    +0.000 A 
ENDBRANCH  17  25
ENDBRANCH  16  18
ENDBRANCH  15  16
ENDBRANCH   1  15
TORSDOF 4
ENDMDL
MODEL 5
REMARK VINA RESULT:      -7.7      4.415      6.876
REMARK  Name = 
REMARK  5 active torsions:
REMARK  status: ('A' for Active; 'I' for Inactive)
REMARK    1  A    between atoms: C_1  and  C_2
REMARK    2  A    between atoms: C_5  and  N_6
REMARK    3  A    between atoms: C_7  and  C_9
REMARK    4  A    between atoms: C_9  and  S_10
REMARK    5  A    between atoms: S_10  and  C_11
REMARK                            x       y       z     vdW  Elec       q    Type
REMARK                         _______ _______ _______ _____ _____    ______ ____
ROOT
ATOM      1  C   UNL     1       6.794   7.044  17.467  0.00  0.00    +0.000 A 
ATOM      2  N   UNL     1       5.906   7.036  16.506  0.00  0.00    +0.000 NA
ATOM      3  N   UNL     1       4.953   6.070  16.487  0.00  0.00    +0.000 N 
ATOM      4  C   UNL     1       4.900   5.117  17.444  0.00  0.00    +0.000 A 
ATOM      5  C   UNL     1       4.146   4.070  17.738  0.00  0.00    +0.000 A 
ATOM      6  C   UNL     1       3.002   3.458  17.141  0.00  0.00    +0.000 A 
ATOM      7  C   UNL     1       2.479   2.368  17.726  0.00  0.00    +0.000 A 
ATOM      8  C   UNL     1       3.057   1.814  18.943  0.00  0.00    +0.000 A 
ATOM      9  C   UNL     1       4.133   2.344  19.554  0.00  0.00    +0.000 A 
ATOM     10  C   UNL     1       4.767   3.546  18.967  0.00  0.00    +0.000 A 
ATOM     11  N   UNL     1       5.801   4.208  19.387  0.00  0.00    +0.000 NA
ATOM     12  C   UNL     1       5.952   5.225  18.474  0.00  0.00    +0.000 A 
ATOM     13  N   UNL     1       6.869   6.133  18.508  0.00  0.00    +0.000 NA
ATOM     14  H   UNL     1       4.256   6.069  15.749  0.00  0.00    +0.000 HD
ENDROOT
BRANCH   1  15
ATOM     15  S   UNL     1       7.936   8.366  17.316  0.00  0.00    +0.000 S 
BRANCH  15  16
ATOM     16  C   UNL     1       8.601   8.604  18.979  0.00  0.00    +0.000 C 
BRANCH  16  18
ATOM     17  N   UNL     1       9.372  10.734  17.981  0.00  0.00    +0.000 N 
ATOM     18  C   UNL     1       9.146  10.034  19.160  0.00  0.00    +0.000 C 
ATOM     19  O   UNL     1       9.377  10.459  20.292  0.00  0.00    +0.000 OA
ATOM     20  H   UNL     1       8.997  10.298  17.144  0.00  0.00    +0.000 HD
BRANCH  17  25
ATOM     21  C   UNL     1      11.567  15.994  17.297  0.00  0.00    +0.000 C 
ATOM     22  C   UNL     1      10.980  14.625  17.487  0.00  0.00    +0.000 A 
ATOM     23  C   UNL     1       9.659  14.467  17.913  0.00  0.00    +0.000 A 
ATOM     24  C   UNL     1       9.108  13.189  18.083  0.00  0.00    +0.000 A 
ATOM     25  C   UNL     1       9.869  12.048  17.837  0.00  0.00    +0.000 A 
ATOM     26  C   UNL     1      11.200  12.205  17.429  0.00  0.00    +0.000 A 
ATOM     27  C   UNL     1      11.749  13.483  17.244  0.00  0.00    +0.000 A 
ENDBRANCH  17  25
ENDBRANCH  16  18
ENDBRANCH  15  16
ENDBRANCH   1  15
TORSDOF 4
ENDMDL
MODEL 6
REMARK VINA RESULT:      -7.7      3.954      6.735
REMARK  Name = 
REMARK  5 active torsions:
REMARK  status: ('A' for Active; 'I' for Inactive)
REMARK    1  A    between atoms: C_1  and  C_2
REMARK    2  A    between atoms: C_5  and  N_6
REMARK    3  A    between atoms: C_7  and  C_9
REMARK    4  A    between atoms: C_9  and  S_10
REMARK    5  A    between atoms: S_10  and  C_11
REMARK                            x       y       z     vdW  Elec       q    Type
REMARK                         _______ _______ _______ _____ _____    ______ ____
ROOT
ATOM      1  C   UNL     1       5.951   6.260  17.987  0.00  0.00    +0.000 A 
ATOM      2  N   UNL     1       6.529   5.323  18.695  0.00  0.00    +0.000 NA
ATOM      3  N   UNL     1       5.762   4.452  19.399  0.00  0.00    +0.000 N 
ATOM      4  C   UNL     1       4.414   4.529  19.380  0.00  0.00    +0.000 A 
ATOM      5  C   UNL     1       3.391   3.879  19.913  0.00  0.00    +0.000 A 
ATOM      6  C   UNL     1       3.261   2.756  20.786  0.00  0.00    +0.000 A 
ATOM      7  C   UNL     1       2.028   2.357  21.138  0.00  0.00    +0.000 A 
ATOM      8  C   UNL     1       0.842   3.044  20.645  0.00  0.00    +0.000 A 
ATOM      9  C   UNL     1       0.898   4.106  19.819  0.00  0.00    +0.000 A 
ATOM     10  C   UNL     1       2.224   4.607  19.390  0.00  0.00    +0.000 A 
ATOM     11  N   UNL     1       2.501   5.607  18.610  0.00  0.00    +0.000 NA
ATOM     12  C   UNL     1       3.875   5.624  18.551  0.00  0.00    +0.000 A 
ATOM     13  N   UNL     1       4.586   6.466  17.877  0.00  0.00    +0.000 NA
ATOM     14  H   UNL     1       6.209   3.717  19.939  0.00  0.00    +0.000 HD
ENDROOT
BRANCH   1  15
ATOM     15  S   UNL     1       7.107   7.282  17.154  0.00  0.00    +0.000 S 
BRANCH  15  16
ATOM     16  C   UNL     1       8.342   7.707  18.401  0.00  0.00    +0.000 C 
BRANCH  16  18
ATOM     17  N   UNL     1       9.406   9.657  19.491  0.00  0.00    +0.000 N 
ATOM     18  C   UNL     1       8.536   9.233  18.494  0.00  0.00    +0.000 C 
ATOM     19  O   UNL     1       7.913   9.974  17.734  0.00  0.00    +0.000 OA
ATOM     20  H   UNL     1       9.946   8.920  19.933  0.00  0.00    +0.000 HD
BRANCH  17  25
ATOM     21  C   UNL     1      10.998  15.057  20.616  0.00  0.00    +0.000 C 
ATOM     22  C   UNL     1      10.576  13.644  20.339  0.00  0.00    +0.000 A 
ATOM     23  C   UNL     1       9.597  13.024  21.120  0.00  0.00    +0.000 A 
ATOM     24  C   UNL     1       9.197  11.707  20.857  0.00  0.00    +0.000 A 
ATOM     25  C   UNL     1       9.771  10.983  19.813  0.00  0.00    +0.000 A 
ATOM     26  C   UNL     1      10.766  11.597  19.042  0.00  0.00    +0.000 A 
ATOM     27  C   UNL     1      11.158  12.920  19.294  0.00  0.00    +0.000 A 
ENDBRANCH  17  25
ENDBRANCH  16  18
ENDBRANCH  15  16
ENDBRANCH   1  15
TORSDOF 4
ENDMDL
MODEL 7
REMARK VINA RESULT:      -7.7      3.835      6.562
REMARK  Name = 
REMARK  5 active torsions:
REMARK  status: ('A' for Active; 'I' for Inactive)
REMARK    1  A    between atoms: C_1  and  C_2
REMARK    2  A    between atoms: C_5  and  N_6
REMARK    3  A    between atoms: C_7  and  C_9
REMARK    4  A    between atoms: C_9  and  S_10
REMARK    5  A    between atoms: S_10  and  C_11
REMARK                            x       y       z     vdW  Elec       q    Type
REMARK                         _______ _______ _______ _____ _____    ______ ____
ROOT
ATOM      1  C   UNL     1       6.109   6.017  17.537  0.00  0.00    +0.000 A 
ATOM      2  N   UNL     1       6.302   4.767  17.200  0.00  0.00    +0.000 NA
ATOM      3  N   UNL     1       5.385   3.832  17.556  0.00  0.00    +0.000 N 
ATOM      4  C   UNL     1       4.274   4.166  18.248  0.00  0.00    +0.000 A 
ATOM      5  C   UNL     1       3.209   3.553  18.741  0.00  0.00    +0.000 A 
ATOM      6  C   UNL     1       2.747   2.202  18.756  0.00  0.00    +0.000 A 
ATOM      7  C   UNL     1       1.585   1.929  19.372  0.00  0.00    +0.000 A 
ATOM      8  C   UNL     1       0.803   2.979  20.010  0.00  0.00    +0.000 A 
ATOM      9  C   UNL     1       1.184   4.270  20.028  0.00  0.00    +0.000 A 
ATOM     10  C   UNL     1       2.456   4.649  19.373  0.00  0.00    +0.000 A 
ATOM     11  N   UNL     1       3.004   5.822  19.279  0.00  0.00    +0.000 NA
ATOM     12  C   UNL     1       4.165   5.602  18.575  0.00  0.00    +0.000 A 
ATOM     13  N   UNL     1       5.027   6.506  18.249  0.00  0.00    +0.000 NA
ATOM     14  H   UNL     1       5.527   2.864  17.284  0.00  0.00    +0.000 HD
ENDROOT
BRANCH   1  15
ATOM     15  S   UNL     1       7.401   7.068  16.987  0.00  0.00    +0.000 S 
BRANCH  15  16
ATOM     16  C   UNL     1       8.244   7.602  18.493  0.00  0.00    +0.000 C 
BRANCH  16  18
ATOM     17  N   UNL     1       9.386   9.582  19.442  0.00  0.00    +0.000 N 
ATOM     18  C   UNL     1       8.493   9.123  18.481  0.00  0.00    +0.000 C 
ATOM     19  O   UNL     1       7.890   9.833  17.677  0.00  0.00    +0.000 OA
ATOM     20  H   UNL     1       9.903   8.858  19.929  0.00  0.00    +0.000 HD
BRANCH  17  25
ATOM     21  C   UNL     1      10.992  14.976  20.575  0.00  0.00    +0.000 C 
ATOM     22  C   UNL     1      10.575  13.569  20.261  0.00  0.00    +0.000 A 
ATOM     23  C   UNL     1      11.016  12.937  19.095  0.00  0.00    +0.000 A 
ATOM     24  C   UNL     1      10.634  11.619  18.805  0.00  0.00    +0.000 A 
ATOM     25  C   UNL     1       9.800  10.913  19.671  0.00  0.00    +0.000 A 
ATOM     26  C   UNL     1       9.343  11.553  20.830  0.00  0.00    +0.000 A 
ATOM     27  C   UNL     1       9.736  12.866  21.130  0.00  0.00    +0.000 A 
ENDBRANCH  17  25
ENDBRANCH  16  18
ENDBRANCH  15  16
ENDBRANCH   1  15
TORSDOF 4
ENDMDL
MODEL 8
REMARK VINA RESULT:      -7.6      4.151      6.732
REMARK  Name = 
REMARK  5 active torsions:
REMARK  status: ('A' for Active; 'I' for Inactive)
REMARK    1  A    between atoms: C_1  and  C_2
REMARK    2  A    between atoms: C_5  and  N_6
REMARK    3  A    between atoms: C_7  and  C_9
REMARK    4  A    between atoms: C_9  and  S_10
REMARK    5  A    between atoms: S_10  and  C_11
REMARK                            x       y       z     vdW  Elec       q    Type
REMARK                         _______ _______ _______ _____ _____    ______ ____
ROOT
ATOM      1  C   UNL     1       6.578   6.102  18.365  0.00  0.00    +0.000 A 
ATOM      2  N   UNL     1       5.654   6.721  17.675  0.00  0.00    +0.000 NA
ATOM      3  N   UNL     1       4.412   6.180  17.590  0.00  0.00    +0.000 N 
ATOM      4  C   UNL     1       4.109   5.016  18.206  0.00  0.00    +0.000 A 
ATOM      5  C   UNL     1       3.053   4.229  18.340  0.00  0.00    +0.000 A 
ATOM      6  C   UNL     1       1.706   4.267  17.868  0.00  0.00    +0.000 A 
ATOM      7  C   UNL     1       0.879   3.265  18.206  0.00  0.00    +0.000 A 
ATOM      8  C   UNL     1       1.334   2.159  19.036  0.00  0.00    +0.000 A 
ATOM      9  C   UNL     1       2.590   2.065  19.514  0.00  0.00    +0.000 A 
ATOM     10  C   UNL     1       3.561   3.132  19.181  0.00  0.00    +0.000 A 
ATOM     11  N   UNL     1       4.807   3.235  19.530  0.00  0.00    +0.000 NA
ATOM     12  C   UNL     1       5.228   4.409  18.951  0.00  0.00    +0.000 A 
ATOM     13  N   UNL     1       6.418   4.905  19.042  0.00  0.00    +0.000 NA
ATOM     14  H   UNL     1       3.691   6.665  17.065  0.00  0.00    +0.000 HD
ENDROOT
BRANCH   1  15
ATOM     15  S   UNL     1       8.109   6.957  18.356  0.00  0.00    +0.000 S 
BRANCH  15  16
ATOM     16  C   UNL     1       7.728   8.593  17.692  0.00  0.00    +0.000 C 
BRANCH  16  18
ATOM     17  N   UNL     1       8.649  10.890  17.659  0.00  0.00    +0.000 N 
ATOM     18  C   UNL     1       8.619   9.675  18.332  0.00  0.00    +0.000 C 
ATOM     19  O   UNL     1       9.261   9.412  19.350  0.00  0.00    +0.000 OA
ATOM     20  H   UNL     1       7.957  10.991  16.923  0.00  0.00    +0.000 HD
BRANCH  17  25
ATOM     21  C   UNL     1      11.766  15.533  18.958  0.00  0.00    +0.000 C 
ATOM     22  C   UNL     1      10.938  14.324  18.630  0.00  0.00    +0.000 A 
ATOM     23  C   UNL     1       9.559  14.321  18.855  0.00  0.00    +0.000 A 
ATOM     24  C   UNL     1       8.784  13.196  18.541  0.00  0.00    +0.000 A 
ATOM     25  C   UNL     1       9.374  12.052  18.005  0.00  0.00    +0.000 A 
ATOM     26  C   UNL     1      10.759  12.048  17.798  0.00  0.00    +0.000 A 
ATOM     27  C   UNL     1      11.535  13.178  18.097  0.00  0.00    +0.000 A 
ENDBRANCH  17  25
ENDBRANCH  16  18
ENDBRANCH  15  16
ENDBRANCH   1  15
TORSDOF 4
ENDMDL
MODEL 9
REMARK VINA RESULT:      -7.6      3.041      6.678
REMARK  Name = 
REMARK  5 active torsions:
REMARK  status: ('A' for Active; 'I' for Inactive)
REMARK    1  A    between atoms: C_1  and  C_2
REMARK    2  A    between atoms: C_5  and  N_6
REMARK    3  A    between atoms: C_7  and  C_9
REMARK    4  A    between atoms: C_9  and  S_10
REMARK    5  A    between atoms: S_10  and  C_11
REMARK                            x       y       z     vdW  Elec       q    Type
REMARK                         _______ _______ _______ _____ _____    ______ ____
ROOT
ATOM      1  C   UNL     1       3.945   2.700  19.867  0.00  0.00    +0.000 A 
ATOM      2  N   UNL     1       3.481   1.987  18.872  0.00  0.00    +0.000 NA
ATOM      3  N   UNL     1       3.894   2.258  17.609  0.00  0.00    +0.000 N 
ATOM      4  C   UNL     1       4.779   3.248  17.356  0.00  0.00    +0.000 A 
ATOM      5  C   UNL     1       5.384   3.771  16.302  0.00  0.00    +0.000 A 
ATOM      6  C   UNL     1       5.363   3.506  14.898  0.00  0.00    +0.000 A 
ATOM      7  C   UNL     1       6.125   4.262  14.091  0.00  0.00    +0.000 A 
ATOM      8  C   UNL     1       6.959   5.331  14.623  0.00  0.00    +0.000 A 
ATOM      9  C   UNL     1       7.023   5.630  15.935  0.00  0.00    +0.000 A 
ATOM     10  C   UNL     1       6.208   4.842  16.887  0.00  0.00    +0.000 A 
ATOM     11  N   UNL     1       6.120   4.964  18.176  0.00  0.00    +0.000 NA
ATOM     12  C   UNL     1       5.230   3.985  18.552  0.00  0.00    +0.000 A 
ATOM     13  N   UNL     1       4.847   3.745  19.763  0.00  0.00    +0.000 NA
ATOM     14  H   UNL     1       3.545   1.698  16.837  0.00  0.00    +0.000 HD
ENDROOT
BRANCH   1  15
ATOM     15  S   UNL     1       3.293   2.196  21.415  0.00  0.00    +0.000 S 
BRANCH  15  16
ATOM     16  C   UNL     1       1.571   2.740  21.398  0.00  0.00    +0.000 C 
BRANCH  16  18
ATOM     17  N   UNL     1       1.993   5.112  20.833  0.00  0.00    +0.000 N 
ATOM     18  C   UNL     1       1.373   3.932  20.442  0.00  0.00    +0.000 C 
ATOM     19  O   UNL     1       0.677   3.797  19.436  0.00  0.00    +0.000 OA
ATOM     20  H   UNL     1       2.644   5.019  21.607  0.00  0.00    +0.000 HD
BRANCH  17  25
ATOM     21  C   UNL     1       2.014  10.072  17.944  0.00  0.00    +0.000 C 
ATOM     22  C   UNL     1       2.007   8.785  18.715  0.00  0.00    +0.000 A 
ATOM     23  C   UNL     1       1.429   8.716  19.985  0.00  0.00    +0.000 A 
ATOM     24  C   UNL     1       1.415   7.512  20.703  0.00  0.00    +0.000 A 
ATOM     25  C   UNL     1       1.983   6.357  20.167  0.00  0.00    +0.000 A 
ATOM     26  C   UNL     1       2.579   6.430  18.902  0.00  0.00    +0.000 A 
ATOM     27  C   UNL     1       2.582   7.630  18.175  0.00  0.00    +0.000 A 
ENDBRANCH  17  25
ENDBRANCH  16  18
ENDBRANCH  15  16
ENDBRANCH   1  15
TORSDOF 4
ENDMDL
