MODEL 1
REMARK VINA RESULT:      -8.1      0.000      0.000
REMARK  Name = 
REMARK  9 active torsions:
REMARK  status: ('A' for Active; 'I' for Inactive)
REMARK    1  A    between atoms: C_1  and  S_2
REMARK    2  A    between atoms: S_2  and  C_5
REMARK    3  A    between atoms: C_7  and  C_8
REMARK    4  A    between atoms: C_11  and  C_12
REMARK    5  A    between atoms: C_12  and  C_13
REMARK    6  A    between atoms: C_13  and  C_14
REMARK    7  A    between atoms: C_13  and  N_16
REMARK    8  A    between atoms: C_17  and  C_19
REMARK    9  A    between atoms: C_31  and  C_32
REMARK                            x       y       z     vdW  Elec       q    Type
REMARK                         _______ _______ _______ _____ _____    ______ ____
ROOT
ATOM      1  C   UNL     1       1.826   7.991  19.512  0.00  0.00    +0.000 A 
ATOM      2  C   UNL     1       1.890   8.787  18.352  0.00  0.00    +0.000 A 
ATOM      3  C   UNL     1       1.310  10.062  18.298  0.00  0.00    +0.000 A 
ATOM      4  C   UNL     1       0.628  10.575  19.403  0.00  0.00    +0.000 A 
ATOM      5  C   UNL     1       0.525   9.772  20.539  0.00  0.00    +0.000 A 
ATOM      6  F   UNL     1      -0.151  10.212  21.608  0.00  0.00    +0.000 F 
ATOM      7  C   UNL     1       1.127   8.518  20.608  0.00  0.00    +0.000 A 
ENDROOT
BRANCH   1  10
ATOM      8  C   UNL     1       4.172   5.063  18.810  0.00  0.00    +0.000 A 
ATOM      9  C   UNL     1       3.559   6.328  18.756  0.00  0.00    +0.000 A 
ATOM     10  C   UNL     1       2.466   6.657  19.577  0.00  0.00    +0.000 A 
ATOM     11  C   UNL     1       2.009   5.662  20.456  0.00  0.00    +0.000 A 
ATOM     12  C   UNL     1       2.618   4.403  20.518  0.00  0.00    +0.000 A 
ATOM     13  C   UNL     1       3.706   4.088  19.695  0.00  0.00    +0.000 A 
BRANCH   8  15
ATOM     14  C   UNL     1       5.711   6.337  16.866  0.00  0.00    +0.000 C 
ATOM     15  S   UNL     1       5.516   4.773  17.681  0.00  0.00    +0.000 S 
ATOM     16  O   UNL     1       5.048   3.815  16.700  0.00  0.00    +0.000 OA
ATOM     17  O   UNL     1       6.707   4.494  18.456  0.00  0.00    +0.000 OA
ENDBRANCH   8  15
BRANCH  13  18
ATOM     18  C   UNL     1       4.300   2.794  19.858  0.00  0.00    +0.000 C 
ATOM     19  N   UNL     1       4.753   1.747  20.081  0.00  0.00    +0.000 NA
ENDBRANCH  13  18
ENDBRANCH   1  10
BRANCH   4  20
ATOM     20  C   UNL     1       0.033  11.964  19.381  0.00  0.00    +0.000 C 
BRANCH  20  21
ATOM     21  C   UNL     1      -1.469  11.993  19.023  0.00  0.00    +0.000 C 
BRANCH  21  22
ATOM     22  N   UNL     1      -2.300  11.972  20.229  0.00  0.00    +0.000 N 
ATOM     23  C   UNL     1      -2.755  13.125  20.847  0.00  0.00    +0.000 C 
ATOM     24  O   UNL     1      -2.418  14.250  20.503  0.00  0.00    +0.000 OA
ATOM     25  H   UNL     1      -2.535  11.082  20.661  0.00  0.00    +0.000 HD
BRANCH  23  26
ATOM     26  C   UNL     1      -3.751  12.818  21.977  0.00  0.00    +0.000 C 
ATOM     27  N   UNL     1      -3.081  12.042  23.071  0.00  0.00    +0.000 NA
ATOM     28  C   UNL     1      -3.617  12.668  24.310  0.00  0.00    +0.000 C 
ATOM     29  C   UNL     1      -5.137  12.427  24.381  0.00  0.00    +0.000 C 
ATOM     30  C   UNL     1      -5.692  13.442  23.363  0.00  0.00    +0.000 C 
ATOM     31  C   UNL     1      -4.400  13.997  22.723  0.00  0.00    +0.000 C 
ATOM     32  C   UNL     1      -3.527  14.148  23.967  0.00  0.00    +0.000 C 
ATOM     33  H   UNL     1      -2.082  12.263  23.045  0.00  0.00    +0.000 HD
ENDBRANCH  23  26
ENDBRANCH  21  22
BRANCH  21  34
ATOM     34  C   UNL     1      -1.810  10.847  18.140  0.00  0.00    +0.000 C 
ATOM     35  N   UNL     1      -2.073   9.959  17.440  0.00  0.00    +0.000 NA
ENDBRANCH  21  34
ENDBRANCH  20  21
ENDBRANCH   4  20
TORSDOF 8
ENDMDL
MODEL 2
REMARK VINA RESULT:      -8.0      2.566      3.819
REMARK  Name = 
REMARK  9 active torsions:
REMARK  status: ('A' for Active; 'I' for Inactive)
REMARK    1  A    between atoms: C_1  and  S_2
REMARK    2  A    between atoms: S_2  and  C_5
REMARK    3  A    between atoms: C_7  and  C_8
REMARK    4  A    between atoms: C_11  and  C_12
REMARK    5  A    between atoms: C_12  and  C_13
REMARK    6  A    between atoms: C_13  and  C_14
REMARK    7  A    between atoms: C_13  and  N_16
REMARK    8  A    between atoms: C_17  and  C_19
REMARK    9  A    between atoms: C_31  and  C_32
REMARK                            x       y       z     vdW  Elec       q    Type
REMARK                         _______ _______ _______ _____ _____    ______ ____
ROOT
ATOM      1  C   UNL     1       1.640   7.729  20.335  0.00  0.00    +0.000 A 
ATOM      2  C   UNL     1       1.485   8.743  19.370  0.00  0.00    +0.000 A 
ATOM      3  C   UNL     1       1.052  10.030  19.714  0.00  0.00    +0.000 A 
ATOM      4  C   UNL     1       0.741  10.340  21.039  0.00  0.00    +0.000 A 
ATOM      5  C   UNL     1       0.851   9.326  21.991  0.00  0.00    +0.000 A 
ATOM      6  F   UNL     1       0.527   9.572  23.267  0.00  0.00    +0.000 F 
ATOM      7  C   UNL     1       1.311   8.055  21.659  0.00  0.00    +0.000 A 
ENDROOT
BRANCH   1  10
ATOM      8  C   UNL     1       3.707   4.921  18.782  0.00  0.00    +0.000 A 
ATOM      9  C   UNL     1       3.239   6.200  19.132  0.00  0.00    +0.000 A 
ATOM     10  C   UNL     1       2.127   6.378  19.973  0.00  0.00    +0.000 A 
ATOM     11  C   UNL     1       1.499   5.215  20.450  0.00  0.00    +0.000 A 
ATOM     12  C   UNL     1       1.964   3.939  20.110  0.00  0.00    +0.000 A 
ATOM     13  C   UNL     1       3.073   3.777  19.271  0.00  0.00    +0.000 A 
BRANCH   8  15
ATOM     14  C   UNL     1       5.387   6.553  17.270  0.00  0.00    +0.000 C 
ATOM     15  S   UNL     1       5.097   4.849  17.673  0.00  0.00    +0.000 S 
ATOM     16  O   UNL     1       4.647   4.178  16.471  0.00  0.00    +0.000 OA
ATOM     17  O   UNL     1       6.236   4.339  18.406  0.00  0.00    +0.000 OA
ENDBRANCH   8  15
BRANCH  13  18
ATOM     18  C   UNL     1       3.511   2.437  19.014  0.00  0.00    +0.000 C 
ATOM     19  N   UNL     1       3.778   1.321  18.826  0.00  0.00    +0.000 NA
ENDBRANCH  13  18
ENDBRANCH   1  10
BRANCH   4  20
ATOM     20  C   UNL     1       0.313  11.734  21.438  0.00  0.00    +0.000 C 
BRANCH  20  21
ATOM     21  C   UNL     1       0.261  12.730  20.260  0.00  0.00    +0.000 C 
BRANCH  21  22
ATOM     22  N   UNL     1      -0.488  12.175  19.130  0.00  0.00    +0.000 N 
ATOM     23  C   UNL     1      -1.867  12.265  19.027  0.00  0.00    +0.000 C 
ATOM     24  O   UNL     1      -2.579  12.719  19.913  0.00  0.00    +0.000 OA
ATOM     25  H   UNL     1       0.007  11.671  18.399  0.00  0.00    +0.000 HD
BRANCH  23  26
ATOM     26  C   UNL     1      -2.376  11.766  17.665  0.00  0.00    +0.000 C 
ATOM     27  N   UNL     1      -1.406  10.791  17.068  0.00  0.00    +0.000 NA
ATOM     28  C   UNL     1      -2.289   9.732  16.507  0.00  0.00    +0.000 C 
ATOM     29  C   UNL     1      -3.151  10.337  15.383  0.00  0.00    +0.000 C 
ATOM     30  C   UNL     1      -4.221  11.128  16.160  0.00  0.00    +0.000 C 
ATOM     31  C   UNL     1      -3.716  11.011  17.615  0.00  0.00    +0.000 C 
ATOM     32  C   UNL     1      -3.292   9.544  17.636  0.00  0.00    +0.000 C 
ATOM     33  H   UNL     1      -0.885  10.356  17.835  0.00  0.00    +0.000 HD
ENDBRANCH  23  26
ENDBRANCH  21  22
BRANCH  21  34
ATOM     34  C   UNL     1       1.637  13.101  19.836  0.00  0.00    +0.000 C 
ATOM     35  N   UNL     1       2.713  13.396  19.516  0.00  0.00    +0.000 NA
ENDBRANCH  21  34
ENDBRANCH  20  21
ENDBRANCH   4  20
TORSDOF 8
ENDMDL
MODEL 3
REMARK VINA RESULT:      -8.0      2.539      4.295
REMARK  Name = 
REMARK  9 active torsions:
REMARK  status: ('A' for Active; 'I' for Inactive)
REMARK    1  A    between atoms: C_1  and  S_2
REMARK    2  A    between atoms: S_2  and  C_5
REMARK    3  A    between atoms: C_7  and  C_8
REMARK    4  A    between atoms: C_11  and  C_12
REMARK    5  A    between atoms: C_12  and  C_13
REMARK    6  A    between atoms: C_13  and  C_14
REMARK    7  A    between atoms: C_13  and  N_16
REMARK    8  A    between atoms: C_17  and  C_19
REMARK    9  A    between atoms: C_31  and  C_32
REMARK                            x       y       z     vdW  Elec       q    Type
REMARK                         _______ _______ _______ _____ _____    ______ ____
ROOT
ATOM      1  C   UNL     1       1.510   8.315  20.112  0.00  0.00    +0.000 A 
ATOM      2  C   UNL     1       1.018   9.452  19.442  0.00  0.00    +0.000 A 
ATOM      3  C   UNL     1       0.328  10.467  20.118  0.00  0.00    +0.000 A 
ATOM      4  C   UNL     1       0.092  10.367  21.490  0.00  0.00    +0.000 A 
ATOM      5  C   UNL     1       0.540   9.223  22.150  0.00  0.00    +0.000 A 
ATOM      6  F   UNL     1       0.302   9.072  23.459  0.00  0.00    +0.000 F 
ATOM      7  C   UNL     1       1.253   8.227  21.488  0.00  0.00    +0.000 A 
ENDROOT
BRANCH   1  10
ATOM      8  C   UNL     1       2.969   4.915  19.174  0.00  0.00    +0.000 A 
ATOM      9  C   UNL     1       2.253   5.924  19.843  0.00  0.00    +0.000 A 
ATOM     10  C   UNL     1       2.265   7.258  19.400  0.00  0.00    +0.000 A 
ATOM     11  C   UNL     1       3.028   7.542  18.256  0.00  0.00    +0.000 A 
ATOM     12  C   UNL     1       3.738   6.541  17.582  0.00  0.00    +0.000 A 
ATOM     13  C   UNL     1       3.718   5.216  18.034  0.00  0.00    +0.000 A 
BRANCH   8  15
ATOM     14  C   UNL     1       2.156   3.548  21.463  0.00  0.00    +0.000 C 
ATOM     15  S   UNL     1       2.898   3.281  19.874  0.00  0.00    +0.000 S 
ATOM     16  O   UNL     1       4.265   2.851  20.088  0.00  0.00    +0.000 OA
ATOM     17  O   UNL     1       2.004   2.479  19.065  0.00  0.00    +0.000 OA
ENDBRANCH   8  15
BRANCH  13  18
ATOM     18  C   UNL     1       4.433   4.246  17.257  0.00  0.00    +0.000 C 
ATOM     19  N   UNL     1       5.028   3.529  16.563  0.00  0.00    +0.000 NA
ENDBRANCH  13  18
ENDBRANCH   1  10
BRANCH   4  20
ATOM     20  C   UNL     1      -0.612  11.471  22.246  0.00  0.00    +0.000 C 
BRANCH  20  21
ATOM     21  C   UNL     1      -0.991  12.684  21.368  0.00  0.00    +0.000 C 
BRANCH  21  22
ATOM     22  N   UNL     1      -1.459  12.254  20.048  0.00  0.00    +0.000 N 
ATOM     23  C   UNL     1      -2.793  12.292  19.676  0.00  0.00    +0.000 C 
ATOM     24  O   UNL     1      -3.698  12.583  20.446  0.00  0.00    +0.000 OA
ATOM     25  H   UNL     1      -0.792  11.882  19.377  0.00  0.00    +0.000 HD
BRANCH  23  26
ATOM     26  C   UNL     1      -2.984  11.962  18.186  0.00  0.00    +0.000 C 
ATOM     27  N   UNL     1      -1.687  11.521  17.575  0.00  0.00    +0.000 NA
ATOM     28  C   UNL     1      -2.089  10.379  16.710  0.00  0.00    +0.000 C 
ATOM     29  C   UNL     1      -3.020  10.893  15.596  0.00  0.00    +0.000 C 
ATOM     30  C   UNL     1      -4.358  11.092  16.334  0.00  0.00    +0.000 C 
ATOM     31  C   UNL     1      -3.958  10.835  17.803  0.00  0.00    +0.000 C 
ATOM     32  C   UNL     1      -3.043   9.626  17.625  0.00  0.00    +0.000 C 
ATOM     33  H   UNL     1      -1.107  11.128  18.322  0.00  0.00    +0.000 HD
ENDBRANCH  23  26
ENDBRANCH  21  22
BRANCH  21  34
ATOM     34  C   UNL     1       0.167  13.605  21.233  0.00  0.00    +0.000 C 
ATOM     35  N   UNL     1       1.077  14.319  21.137  0.00  0.00    +0.000 NA
ENDBRANCH  21  34
ENDBRANCH  20  21
ENDBRANCH   4  20
TORSDOF 8
ENDMDL
MODEL 4
REMARK VINA RESULT:      -8.0      1.892      2.754
REMARK  Name = 
REMARK  9 active torsions:
REMARK  status: ('A' for Active; 'I' for Inactive)
REMARK    1  A    between atoms: C_1  and  S_2
REMARK    2  A    between atoms: S_2  and  C_5
REMARK    3  A    between atoms: C_7  and  C_8
REMARK    4  A    between atoms: C_11  and  C_12
REMARK    5  A    between atoms: C_12  and  C_13
REMARK    6  A    between atoms: C_13  and  C_14
REMARK    7  A    between atoms: C_13  and  N_16
REMARK    8  A    between atoms: C_17  and  C_19
REMARK    9  A    between atoms: C_31  and  C_32
REMARK                            x       y       z     vdW  Elec       q    Type
REMARK                         _______ _______ _______ _____ _____    ______ ____
ROOT
ATOM      1  C   UNL     1       1.585   7.847  20.011  0.00  0.00    +0.000 A 
ATOM      2  C   UNL     1       0.779   8.253  21.093  0.00  0.00    +0.000 A 
ATOM      3  C   UNL     1       0.127   9.494  21.103  0.00  0.00    +0.000 A 
ATOM      4  C   UNL     1       0.278  10.379  20.033  0.00  0.00    +0.000 A 
ATOM      5  C   UNL     1       1.109   9.998  18.980  0.00  0.00    +0.000 A 
ATOM      6  F   UNL     1       1.309  10.833  17.952  0.00  0.00    +0.000 F 
ATOM      7  C   UNL     1       1.733   8.754  18.952  0.00  0.00    +0.000 A 
ENDROOT
BRANCH   1  10
ATOM      8  C   UNL     1       3.995   5.017  19.143  0.00  0.00    +0.000 A 
ATOM      9  C   UNL     1       3.362   6.273  19.170  0.00  0.00    +0.000 A 
ATOM     10  C   UNL     1       2.247   6.522  19.990  0.00  0.00    +0.000 A 
ATOM     11  C   UNL     1       1.791   5.457  20.783  0.00  0.00    +0.000 A 
ATOM     12  C   UNL     1       2.421   4.207  20.765  0.00  0.00    +0.000 A 
ATOM     13  C   UNL     1       3.530   3.972  19.943  0.00  0.00    +0.000 A 
BRANCH   8  15
ATOM     14  C   UNL     1       5.508   6.441  17.283  0.00  0.00    +0.000 C 
ATOM     15  S   UNL     1       5.367   4.834  18.023  0.00  0.00    +0.000 S 
ATOM     16  O   UNL     1       4.952   3.904  16.993  0.00  0.00    +0.000 OA
ATOM     17  O   UNL     1       6.557   4.569  18.804  0.00  0.00    +0.000 OA
ENDBRANCH   8  15
BRANCH  13  18
ATOM     18  C   UNL     1       4.144   2.679  20.022  0.00  0.00    +0.000 C 
ATOM     19  N   UNL     1       4.722   1.671  20.054  0.00  0.00    +0.000 NA
ENDBRANCH  13  18
ENDBRANCH   1  10
BRANCH   4  20
ATOM     20  C   UNL     1      -0.450  11.704  20.005  0.00  0.00    +0.000 C 
BRANCH  20  21
ATOM     21  C   UNL     1      -1.217  12.021  21.307  0.00  0.00    +0.000 C 
BRANCH  21  22
ATOM     22  N   UNL     1      -2.589  12.450  21.022  0.00  0.00    +0.000 N 
ATOM     23  C   UNL     1      -3.577  12.497  21.992  0.00  0.00    +0.000 C 
ATOM     24  O   UNL     1      -3.418  12.088  23.134  0.00  0.00    +0.000 OA
ATOM     25  H   UNL     1      -2.849  12.696  20.070  0.00  0.00    +0.000 HD
BRANCH  23  26
ATOM     26  C   UNL     1      -4.866  13.152  21.469  0.00  0.00    +0.000 C 
ATOM     27  N   UNL     1      -4.629  13.779  20.128  0.00  0.00    +0.000 NA
ATOM     28  C   UNL     1      -5.853  13.419  19.362  0.00  0.00    +0.000 C 
ATOM     29  C   UNL     1      -7.075  14.087  20.021  0.00  0.00    +0.000 C 
ATOM     30  C   UNL     1      -7.321  13.203  21.259  0.00  0.00    +0.000 C 
ATOM     31  C   UNL     1      -6.098  12.261  21.232  0.00  0.00    +0.000 C 
ATOM     32  C   UNL     1      -6.026  11.955  19.738  0.00  0.00    +0.000 C 
ATOM     33  H   UNL     1      -3.852  13.283  19.682  0.00  0.00    +0.000 HD
ENDBRANCH  23  26
ENDBRANCH  21  22
BRANCH  21  34
ATOM     34  C   UNL     1      -0.501  13.064  22.086  0.00  0.00    +0.000 C 
ATOM     35  N   UNL     1       0.050  13.887  22.693  0.00  0.00    +0.000 NA
ENDBRANCH  21  34
ENDBRANCH  20  21
ENDBRANCH   4  20
TORSDOF 8
ENDMDL
MODEL 5
REMARK VINA RESULT:      -8.0      1.961      3.776
REMARK  Name = 
REMARK  9 active torsions:
REMARK  status: ('A' for Active; 'I' for Inactive)
REMARK    1  A    between atoms: C_1  and  S_2
REMARK    2  A    between atoms: S_2  and  C_5
REMARK    3  A    between atoms: C_7  and  C_8
REMARK    4  A    between atoms: C_11  and  C_12
REMARK    5  A    between atoms: C_12  and  C_13
REMARK    6  A    between atoms: C_13  and  C_14
REMARK    7  A    between atoms: C_13  and  N_16
REMARK    8  A    between atoms: C_17  and  C_19
REMARK    9  A    between atoms: C_31  and  C_32
REMARK                            x       y       z     vdW  Elec       q    Type
REMARK                         _______ _______ _______ _____ _____    ______ ____
ROOT
ATOM      1  C   UNL     1       1.600   7.874  20.278  0.00  0.00    +0.000 A 
ATOM      2  C   UNL     1       1.445   8.884  19.309  0.00  0.00    +0.000 A 
ATOM      3  C   UNL     1       1.025  10.177  19.649  0.00  0.00    +0.000 A 
ATOM      4  C   UNL     1       0.726  10.495  20.976  0.00  0.00    +0.000 A 
ATOM      5  C   UNL     1       0.836   9.486  21.932  0.00  0.00    +0.000 A 
ATOM      6  F   UNL     1       0.525   9.741  23.210  0.00  0.00    +0.000 F 
ATOM      7  C   UNL     1       1.284   8.209  21.603  0.00  0.00    +0.000 A 
ENDROOT
BRANCH   1  10
ATOM      8  C   UNL     1       3.487   5.034  18.562  0.00  0.00    +0.000 A 
ATOM      9  C   UNL     1       3.032   6.319  18.910  0.00  0.00    +0.000 A 
ATOM     10  C   UNL     1       2.074   6.517  19.919  0.00  0.00    +0.000 A 
ATOM     11  C   UNL     1       1.587   5.371  20.568  0.00  0.00    +0.000 A 
ATOM     12  C   UNL     1       2.040   4.090  20.230  0.00  0.00    +0.000 A 
ATOM     13  C   UNL     1       2.994   3.907  19.222  0.00  0.00    +0.000 A 
BRANCH   8  15
ATOM     14  C   UNL     1       6.186   4.543  18.066  0.00  0.00    +0.000 C 
ATOM     15  S   UNL     1       4.667   4.932  17.234  0.00  0.00    +0.000 S 
ATOM     16  O   UNL     1       4.794   6.263  16.676  0.00  0.00    +0.000 OA
ATOM     17  O   UNL     1       4.299   3.820  16.384  0.00  0.00    +0.000 OA
ENDBRANCH   8  15
BRANCH  13  18
ATOM     18  C   UNL     1       3.438   2.566  18.974  0.00  0.00    +0.000 C 
ATOM     19  N   UNL     1       3.800   1.501  18.680  0.00  0.00    +0.000 NA
ENDBRANCH  13  18
ENDBRANCH   1  10
BRANCH   4  20
ATOM     20  C   UNL     1       0.312  11.895  21.371  0.00  0.00    +0.000 C 
BRANCH  20  21
ATOM     21  C   UNL     1      -1.190  12.030  21.701  0.00  0.00    +0.000 C 
BRANCH  21  22
ATOM     22  N   UNL     1      -2.011  11.885  20.497  0.00  0.00    +0.000 N 
ATOM     23  C   UNL     1      -1.787  12.619  19.343  0.00  0.00    +0.000 C 
ATOM     24  O   UNL     1      -0.960  13.517  19.268  0.00  0.00    +0.000 OA
ATOM     25  H   UNL     1      -2.801  11.245  20.503  0.00  0.00    +0.000 HD
BRANCH  23  26
ATOM     26  C   UNL     1      -2.670  12.142  18.178  0.00  0.00    +0.000 C 
ATOM     27  N   UNL     1      -1.857  12.004  16.926  0.00  0.00    +0.000 NA
ATOM     28  C   UNL     1      -2.362  10.736  16.330  0.00  0.00    +0.000 C 
ATOM     29  C   UNL     1      -3.844  10.913  15.951  0.00  0.00    +0.000 C 
ATOM     30  C   UNL     1      -4.560  10.817  17.312  0.00  0.00    +0.000 C 
ATOM     31  C   UNL     1      -3.372  10.779  18.299  0.00  0.00    +0.000 C 
ATOM     32  C   UNL     1      -2.432   9.834  17.553  0.00  0.00    +0.000 C 
ATOM     33  H   UNL     1      -0.886  11.828  17.200  0.00  0.00    +0.000 HD
ENDBRANCH  23  26
ENDBRANCH  21  22
BRANCH  21  34
ATOM     34  C   UNL     1      -1.459  13.337  22.356  0.00  0.00    +0.000 C 
ATOM     35  N   UNL     1      -1.673  14.352  22.877  0.00  0.00    +0.000 NA
ENDBRANCH  21  34
ENDBRANCH  20  21
ENDBRANCH   4  20
TORSDOF 8
ENDMDL
MODEL 6
REMARK VINA RESULT:      -8.0      3.099     10.974
REMARK  Name = 
REMARK  9 active torsions:
REMARK  status: ('A' for Active; 'I' for Inactive)
REMARK    1  A    between atoms: C_1  and  S_2
REMARK    2  A    between atoms: S_2  and  C_5
REMARK    3  A    between atoms: C_7  and  C_8
REMARK    4  A    between atoms: C_11  and  C_12
REMARK    5  A    between atoms: C_12  and  C_13
REMARK    6  A    between atoms: C_13  and  C_14
REMARK    7  A    between atoms: C_13  and  N_16
REMARK    8  A    between atoms: C_17  and  C_19
REMARK    9  A    between atoms: C_31  and  C_32
REMARK                            x       y       z     vdW  Elec       q    Type
REMARK                         _______ _______ _______ _____ _____    ______ ____
ROOT
ATOM      1  C   UNL     1       1.564   8.470  19.559  0.00  0.00    +0.000 A 
ATOM      2  C   UNL     1       2.157   8.014  18.366  0.00  0.00    +0.000 A 
ATOM      3  C   UNL     1       2.587   6.689  18.213  0.00  0.00    +0.000 A 
ATOM      4  C   UNL     1       2.453   5.778  19.263  0.00  0.00    +0.000 A 
ATOM      5  C   UNL     1       1.905   6.236  20.462  0.00  0.00    +0.000 A 
ATOM      6  F   UNL     1       1.792   5.404  21.504  0.00  0.00    +0.000 F 
ATOM      7  C   UNL     1       1.448   7.544  20.606  0.00  0.00    +0.000 A 
ENDROOT
BRANCH   1  10
ATOM      8  C   UNL     1      -0.034  11.614  21.020  0.00  0.00    +0.000 A 
ATOM      9  C   UNL     1       0.428  10.293  20.873  0.00  0.00    +0.000 A 
ATOM     10  C   UNL     1       1.083   9.863  19.706  0.00  0.00    +0.000 A 
ATOM     11  C   UNL     1       1.257  10.814  18.687  0.00  0.00    +0.000 A 
ATOM     12  C   UNL     1       0.805  12.131  18.830  0.00  0.00    +0.000 A 
ATOM     13  C   UNL     1       0.153  12.546  19.997  0.00  0.00    +0.000 A 
BRANCH   8  15
ATOM     14  C   UNL     1      -2.513  12.447  21.984  0.00  0.00    +0.000 C 
ATOM     15  S   UNL     1      -0.885  12.003  22.533  0.00  0.00    +0.000 S 
ATOM     16  O   UNL     1      -0.260  13.192  23.077  0.00  0.00    +0.000 OA
ATOM     17  O   UNL     1      -0.969  10.798  23.330  0.00  0.00    +0.000 OA
ENDBRANCH   8  15
BRANCH  13  18
ATOM     18  C   UNL     1      -0.233  13.924  20.079  0.00  0.00    +0.000 C 
ATOM     19  N   UNL     1      -0.454  15.062  20.164  0.00  0.00    +0.000 NA
ENDBRANCH  13  18
ENDBRANCH   1  10
BRANCH   4  20
ATOM     20  C   UNL     1       2.870   4.333  19.105  0.00  0.00    +0.000 C 
BRANCH  20  21
ATOM     21  C   UNL     1       4.396   4.114  19.184  0.00  0.00    +0.000 C 
BRANCH  21  22
ATOM     22  N   UNL     1       5.012   4.201  17.858  0.00  0.00    +0.000 N 
ATOM     23  C   UNL     1       6.362   4.450  17.673  0.00  0.00    +0.000 C 
ATOM     24  O   UNL     1       7.128   4.722  18.588  0.00  0.00    +0.000 OA
ATOM     25  H   UNL     1       4.432   4.107  17.028  0.00  0.00    +0.000 HD
BRANCH  23  26
ATOM     26  C   UNL     1       6.777   4.308  16.199  0.00  0.00    +0.000 C 
ATOM     27  N   UNL     1       5.954   3.254  15.521  0.00  0.00    +0.000 NA
ATOM     28  C   UNL     1       5.651   3.858  14.195  0.00  0.00    +0.000 C 
ATOM     29  C   UNL     1       6.965   4.049  13.415  0.00  0.00    +0.000 C 
ATOM     30  C   UNL     1       7.585   5.289  14.087  0.00  0.00    +0.000 C 
ATOM     31  C   UNL     1       6.625   5.528  15.273  0.00  0.00    +0.000 C 
ATOM     32  C   UNL     1       5.283   5.282  14.588  0.00  0.00    +0.000 C 
ATOM     33  H   UNL     1       5.061   3.185  16.018  0.00  0.00    +0.000 HD
ENDBRANCH  23  26
ENDBRANCH  21  22
BRANCH  21  34
ATOM     34  C   UNL     1       4.697   2.799  19.809  0.00  0.00    +0.000 C 
ATOM     35  N   UNL     1       4.931   1.778  20.308  0.00  0.00    +0.000 NA
ENDBRANCH  21  34
ENDBRANCH  20  21
ENDBRANCH   4  20
TORSDOF 8
ENDMDL
MODEL 7
REMARK VINA RESULT:      -8.0      2.982      4.331
REMARK  Name = 
REMARK  9 active torsions:
REMARK  status: ('A' for Active; 'I' for Inactive)
REMARK    1  A    between atoms: C_1  and  S_2
REMARK    2  A    between atoms: S_2  and  C_5
REMARK    3  A    between atoms: C_7  and  C_8
REMARK    4  A    between atoms: C_11  and  C_12
REMARK    5  A    between atoms: C_12  and  C_13
REMARK    6  A    between atoms: C_13  and  C_14
REMARK    7  A    between atoms: C_13  and  N_16
REMARK    8  A    between atoms: C_17  and  C_19
REMARK    9  A    between atoms: C_31  and  C_32
REMARK                            x       y       z     vdW  Elec       q    Type
REMARK                         _______ _______ _______ _____ _____    ______ ____
ROOT
ATOM      1  C   UNL     1       1.916   8.246  18.780  0.00  0.00    +0.000 A 
ATOM      2  C   UNL     1       1.259   9.193  17.971  0.00  0.00    +0.000 A 
ATOM      3  C   UNL     1       0.376  10.139  18.509  0.00  0.00    +0.000 A 
ATOM      4  C   UNL     1       0.107  10.154  19.879  0.00  0.00    +0.000 A 
ATOM      5  C   UNL     1       0.722   9.190  20.678  0.00  0.00    +0.000 A 
ATOM      6  F   UNL     1       0.463   9.148  21.991  0.00  0.00    +0.000 F 
ATOM      7  C   UNL     1       1.625   8.269  20.152  0.00  0.00    +0.000 A 
ENDROOT
BRANCH   1  10
ATOM      8  C   UNL     1       3.825   5.003  18.136  0.00  0.00    +0.000 A 
ATOM      9  C   UNL     1       2.918   5.938  18.668  0.00  0.00    +0.000 A 
ATOM     10  C   UNL     1       2.872   7.267  18.213  0.00  0.00    +0.000 A 
ATOM     11  C   UNL     1       3.776   7.624  17.199  0.00  0.00    +0.000 A 
ATOM     12  C   UNL     1       4.676   6.696  16.661  0.00  0.00    +0.000 A 
ATOM     13  C   UNL     1       4.712   5.376  17.124  0.00  0.00    +0.000 A 
BRANCH   8  15
ATOM     14  C   UNL     1       2.503   3.464  20.048  0.00  0.00    +0.000 C 
ATOM     15  S   UNL     1       3.801   3.370  18.841  0.00  0.00    +0.000 S 
ATOM     16  O   UNL     1       5.053   3.193  19.547  0.00  0.00    +0.000 OA
ATOM     17  O   UNL     1       3.413   2.435  17.806  0.00  0.00    +0.000 OA
ENDBRANCH   8  15
BRANCH  13  18
ATOM     18  C   UNL     1       5.631   4.480  16.484  0.00  0.00    +0.000 C 
ATOM     19  N   UNL     1       6.302   3.693  15.955  0.00  0.00    +0.000 NA
ENDBRANCH  13  18
ENDBRANCH   1  10
BRANCH   4  20
ATOM     20  C   UNL     1      -0.809  11.193  20.486  0.00  0.00    +0.000 C 
BRANCH  20  21
ATOM     21  C   UNL     1      -1.349  12.219  19.466  0.00  0.00    +0.000 C 
BRANCH  21  22
ATOM     22  N   UNL     1      -0.849  13.565  19.754  0.00  0.00    +0.000 N 
ATOM     23  C   UNL     1       0.237  14.118  19.097  0.00  0.00    +0.000 C 
ATOM     24  O   UNL     1       0.931  13.497  18.303  0.00  0.00    +0.000 OA
ATOM     25  H   UNL     1      -1.289  14.116  20.487  0.00  0.00    +0.000 HD
BRANCH  23  26
ATOM     26  C   UNL     1       0.435  15.600  19.459  0.00  0.00    +0.000 C 
ATOM     27  N   UNL     1       1.469  16.224  18.570  0.00  0.00    +0.000 NA
ATOM     28  C   UNL     1       0.886  17.556  18.252  0.00  0.00    +0.000 C 
ATOM     29  C   UNL     1       0.774  18.379  19.549  0.00  0.00    +0.000 C 
ATOM     30  C   UNL     1      -0.455  17.761  20.242  0.00  0.00    +0.000 C 
ATOM     31  C   UNL     1      -0.766  16.553  19.331  0.00  0.00    +0.000 C 
ATOM     32  C   UNL     1      -0.562  17.191  17.959  0.00  0.00    +0.000 C 
ATOM     33  H   UNL     1       1.486  15.698  17.691  0.00  0.00    +0.000 HD
ENDBRANCH  23  26
ENDBRANCH  21  22
BRANCH  21  34
ATOM     34  C   UNL     1      -2.836  12.208  19.462  0.00  0.00    +0.000 C 
ATOM     35  N   UNL     1      -3.996  12.196  19.448  0.00  0.00    +0.000 NA
ENDBRANCH  21  34
ENDBRANCH  20  21
ENDBRANCH   4  20
TORSDOF 8
ENDMDL
MODEL 8
REMARK VINA RESULT:      -7.9      1.599      2.291
REMARK  Name = 
REMARK  9 active torsions:
REMARK  status: ('A' for Active; 'I' for Inactive)
REMARK    1  A    between atoms: C_1  and  S_2
REMARK    2  A    between atoms: S_2  and  C_5
REMARK    3  A    between atoms: C_7  and  C_8
REMARK    4  A    between atoms: C_11  and  C_12
REMARK    5  A    between atoms: C_12  and  C_13
REMARK    6  A    between atoms: C_13  and  C_14
REMARK    7  A    between atoms: C_13  and  N_16
REMARK    8  A    between atoms: C_17  and  C_19
REMARK    9  A    between atoms: C_31  and  C_32
REMARK                            x       y       z     vdW  Elec       q    Type
REMARK                         _______ _______ _______ _____ _____    ______ ____
ROOT
ATOM      1  C   UNL     1       1.804   7.746  19.903  0.00  0.00    +0.000 A 
ATOM      2  C   UNL     1       1.125   8.205  21.049  0.00  0.00    +0.000 A 
ATOM      3  C   UNL     1       0.463   9.441  21.070  0.00  0.00    +0.000 A 
ATOM      4  C   UNL     1       0.476  10.267  19.945  0.00  0.00    +0.000 A 
ATOM      5  C   UNL     1       1.184   9.836  18.823  0.00  0.00    +0.000 A 
ATOM      6  F   UNL     1       1.251  10.615  17.736  0.00  0.00    +0.000 F 
ATOM      7  C   UNL     1       1.816   8.595  18.787  0.00  0.00    +0.000 A 
ENDROOT
BRANCH   1  10
ATOM      8  C   UNL     1       4.234   4.939  19.018  0.00  0.00    +0.000 A 
ATOM      9  C   UNL     1       3.591   6.190  19.053  0.00  0.00    +0.000 A 
ATOM     10  C   UNL     1       2.476   6.426  19.874  0.00  0.00    +0.000 A 
ATOM     11  C   UNL     1       2.027   5.353  20.662  0.00  0.00    +0.000 A 
ATOM     12  C   UNL     1       2.666   4.108  20.636  0.00  0.00    +0.000 A 
ATOM     13  C   UNL     1       3.777   3.886  19.812  0.00  0.00    +0.000 A 
BRANCH   8  15
ATOM     14  C   UNL     1       5.764   6.396  17.198  0.00  0.00    +0.000 C 
ATOM     15  S   UNL     1       5.607   4.772  17.897  0.00  0.00    +0.000 S 
ATOM     16  O   UNL     1       5.186   3.872  16.842  0.00  0.00    +0.000 OA
ATOM     17  O   UNL     1       6.792   4.477  18.673  0.00  0.00    +0.000 OA
ENDBRANCH   8  15
BRANCH  13  18
ATOM     18  C   UNL     1       4.400   2.597  19.884  0.00  0.00    +0.000 C 
ATOM     19  N   UNL     1       4.840   1.528  20.008  0.00  0.00    +0.000 NA
ENDBRANCH  13  18
ENDBRANCH   1  10
BRANCH   4  20
ATOM     20  C   UNL     1      -0.267  11.584  19.932  0.00  0.00    +0.000 C 
BRANCH  20  21
ATOM     21  C   UNL     1      -0.792  12.016  21.318  0.00  0.00    +0.000 C 
BRANCH  21  22
ATOM     22  N   UNL     1      -2.211  12.377  21.257  0.00  0.00    +0.000 N 
ATOM     23  C   UNL     1      -3.033  12.376  22.372  0.00  0.00    +0.000 C 
ATOM     24  O   UNL     1      -2.675  11.977  23.472  0.00  0.00    +0.000 OA
ATOM     25  H   UNL     1      -2.631  12.609  20.361  0.00  0.00    +0.000 HD
BRANCH  23  26
ATOM     26  C   UNL     1      -4.419  12.967  22.065  0.00  0.00    +0.000 C 
ATOM     27  N   UNL     1      -5.460  12.354  22.953  0.00  0.00    +0.000 NA
ATOM     28  C   UNL     1      -6.308  13.515  23.337  0.00  0.00    +0.000 C 
ATOM     29  C   UNL     1      -6.990  14.080  22.077  0.00  0.00    +0.000 C 
ATOM     30  C   UNL     1      -5.851  14.856  21.389  0.00  0.00    +0.000 C 
ATOM     31  C   UNL     1      -4.632  14.478  22.259  0.00  0.00    +0.000 C 
ATOM     32  C   UNL     1      -5.255  14.568  23.650  0.00  0.00    +0.000 C 
ATOM     33  H   UNL     1      -4.995  12.039  23.809  0.00  0.00    +0.000 HD
ENDBRANCH  23  26
ENDBRANCH  21  22
BRANCH  21  34
ATOM     34  C   UNL     1       0.009  13.154  21.841  0.00  0.00    +0.000 C 
ATOM     35  N   UNL     1       0.644  14.039  22.243  0.00  0.00    +0.000 NA
ENDBRANCH  21  34
ENDBRANCH  20  21
ENDBRANCH   4  20
TORSDOF 8
ENDMDL
MODEL 9
REMARK VINA RESULT:      -7.9      2.716      4.570
REMARK  Name = 
REMARK  9 active torsions:
REMARK  status: ('A' for Active; 'I' for Inactive)
REMARK    1  A    between atoms: C_1  and  S_2
REMARK    2  A    between atoms: S_2  and  C_5
REMARK    3  A    between atoms: C_7  and  C_8
REMARK    4  A    between atoms: C_11  and  C_12
REMARK    5  A    between atoms: C_12  and  C_13
REMARK    6  A    between atoms: C_13  and  C_14
REMARK    7  A    between atoms: C_13  and  N_16
REMARK    8  A    between atoms: C_17  and  C_19
REMARK    9  A    between atoms: C_31  and  C_32
REMARK                            x       y       z     vdW  Elec       q    Type
REMARK                         _______ _______ _______ _____ _____    ______ ____
ROOT
ATOM      1  C   UNL     1       1.927   8.123  19.225  0.00  0.00    +0.000 A 
ATOM      2  C   UNL     1       1.289   9.169  18.529  0.00  0.00    +0.000 A 
ATOM      3  C   UNL     1       0.457  10.090  19.180  0.00  0.00    +0.000 A 
ATOM      4  C   UNL     1       0.221   9.981  20.552  0.00  0.00    +0.000 A 
ATOM      5  C   UNL     1       0.816   8.921  21.237  0.00  0.00    +0.000 A 
ATOM      6  F   UNL     1       0.586   8.760  22.546  0.00  0.00    +0.000 F 
ATOM      7  C   UNL     1       1.669   8.023  20.600  0.00  0.00    +0.000 A 
ENDROOT
BRANCH   1  10
ATOM      8  C   UNL     1       3.777   4.916  18.296  0.00  0.00    +0.000 A 
ATOM      9  C   UNL     1       2.920   5.827  18.941  0.00  0.00    +0.000 A 
ATOM     10  C   UNL     1       2.830   7.171  18.539  0.00  0.00    +0.000 A 
ATOM     11  C   UNL     1       3.639   7.567  17.461  0.00  0.00    +0.000 A 
ATOM     12  C   UNL     1       4.489   6.664  16.812  0.00  0.00    +0.000 A 
ATOM     13  C   UNL     1       4.569   5.328  17.223  0.00  0.00    +0.000 A 
BRANCH   8  15
ATOM     14  C   UNL     1       2.585   3.284  20.217  0.00  0.00    +0.000 C 
ATOM     15  S   UNL     1       3.819   3.258  18.942  0.00  0.00    +0.000 S 
ATOM     16  O   UNL     1       5.110   3.083  19.576  0.00  0.00    +0.000 OA
ATOM     17  O   UNL     1       3.396   2.353  17.895  0.00  0.00    +0.000 OA
ENDBRANCH   8  15
BRANCH  13  18
ATOM     18  C   UNL     1       5.428   4.460  16.472  0.00  0.00    +0.000 C 
ATOM     19  N   UNL     1       6.048   3.734  15.810  0.00  0.00    +0.000 NA
ENDBRANCH  13  18
ENDBRANCH   1  10
BRANCH   4  20
ATOM     20  C   UNL     1      -0.638  10.988  21.282  0.00  0.00    +0.000 C 
BRANCH  20  21
ATOM     21  C   UNL     1      -1.240  12.075  20.363  0.00  0.00    +0.000 C 
BRANCH  21  22
ATOM     22  N   UNL     1      -0.329  13.213  20.225  0.00  0.00    +0.000 N 
ATOM     23  C   UNL     1      -0.054  13.810  19.005  0.00  0.00    +0.000 C 
ATOM     24  O   UNL     1      -0.461  13.375  17.936  0.00  0.00    +0.000 OA
ATOM     25  H   UNL     1       0.154  13.572  21.045  0.00  0.00    +0.000 HD
BRANCH  23  26
ATOM     26  C   UNL     1       0.784  15.089  19.166  0.00  0.00    +0.000 C 
ATOM     27  N   UNL     1       1.057  15.359  20.615  0.00  0.00    +0.000 NA
ATOM     28  C   UNL     1       2.482  15.787  20.620  0.00  0.00    +0.000 C 
ATOM     29  C   UNL     1       2.617  17.102  19.829  0.00  0.00    +0.000 C 
ATOM     30  C   UNL     1       2.533  16.631  18.365  0.00  0.00    +0.000 C 
ATOM     31  C   UNL     1       2.182  15.135  18.526  0.00  0.00    +0.000 C 
ATOM     32  C   UNL     1       3.109  14.765  19.683  0.00  0.00    +0.000 C 
ATOM     33  H   UNL     1       1.022  14.465  21.113  0.00  0.00    +0.000 HD
ENDBRANCH  23  26
ENDBRANCH  21  22
BRANCH  21  34
ATOM     34  C   UNL     1      -2.555  12.525  20.890  0.00  0.00    +0.000 C 
ATOM     35  N   UNL     1      -3.577  12.888  21.305  0.00  0.00    +0.000 NA
ENDBRANCH  21  34
ENDBRANCH  20  21
ENDBRANCH   4  20
TORSDOF 8
ENDMDL
