MODEL 1
REMARK VINA RESULT:      -8.3      0.000      0.000
REMARK  Name = 
REMARK  7 active torsions:
REMARK  status: ('A' for Active; 'I' for Inactive)
REMARK    1  A    between atoms: C_1  and  C_2
REMARK    2  A    between atoms: N_4  and  C_5
REMARK    3  A    between atoms: C_5  and  C_6
REMARK    4  A    between atoms: C_5  and  C_7
REMARK    5  A    between atoms: C_10  and  O_11
REMARK    6  A    between atoms: O_11  and  C_12
REMARK    7  A    between atoms: C_19  and  C_20
REMARK                            x       y       z     vdW  Elec       q    Type
REMARK                         _______ _______ _______ _____ _____    ______ ____
ROOT
ATOM      1  O   UNL     1       5.417   4.415  18.539  0.00  0.00    +0.000 OA
ENDROOT
BRANCH   1   2
ATOM      2  C   UNL     1       4.935   5.703  18.997  0.00  0.00    +0.000 C 
ATOM      3  C   UNL     1       4.317   6.621  17.931  0.00  0.00    +0.000 C 
ATOM      4  N   UNL     1       3.106   6.657  18.690  0.00  0.00    +0.000 N 
ATOM      5  C   UNL     1       2.266   7.765  18.904  0.00  0.00    +0.000 A 
ATOM      6  C   UNL     1       2.056   8.684  17.895  0.00  0.00    +0.000 A 
ATOM      7  C   UNL     1       1.224   9.741  18.178  0.00  0.00    +0.000 A 
ATOM      8  N   UNL     1       0.634   9.919  19.371  0.00  0.00    +0.000 NA
ATOM      9  C   UNL     1       0.882   8.982  20.317  0.00  0.00    +0.000 A 
ATOM     10  N   UNL     1       1.673   7.901  20.104  0.00  0.00    +0.000 NA
ATOM     11  C   UNL     1       3.568   5.745  19.693  0.00  0.00    +0.000 C 
BRANCH   9  12
ATOM     12  C   UNL     1       0.277   9.160  21.714  0.00  0.00    +0.000 C 
ATOM     13  F   UNL     1      -0.740   8.290  21.998  0.00  0.00    +0.000 F 
ATOM     14  F   UNL     1       1.186   8.994  22.723  0.00  0.00    +0.000 F 
ATOM     15  F   UNL     1      -0.257  10.406  21.906  0.00  0.00    +0.000 F 
ENDBRANCH   9  12
ENDBRANCH   1   2
BRANCH   1  19
ATOM     16  C   UNL     1       6.318   4.028  14.458  0.00  0.00    +0.000 A 
ATOM     17  C   UNL     1       5.088   3.618  14.992  0.00  0.00    +0.000 A 
ATOM     18  C   UNL     1       4.822   3.752  16.362  0.00  0.00    +0.000 A 
ATOM     19  C   UNL     1       5.779   4.294  17.218  0.00  0.00    +0.000 A 
ATOM     20  C   UNL     1       6.998   4.723  16.696  0.00  0.00    +0.000 A 
ATOM     21  C   UNL     1       7.272   4.579  15.330  0.00  0.00    +0.000 A 
BRANCH  16  22
ATOM     22  C   UNL     1       6.587   3.891  12.967  0.00  0.00    +0.000 C 
ATOM     23  C   UNL     1       7.548   4.971  12.463  0.00  0.00    +0.000 C 
BRANCH  22  27
ATOM     24  C   UNL     1       3.597   3.095  10.773  0.00  0.00    +0.000 C 
ATOM     25  C   UNL     1       4.902   2.842  11.481  0.00  0.00    +0.000 C 
ATOM     26  O   UNL     1       5.504   1.779  11.396  0.00  0.00    +0.000 OA
ATOM     27  N   UNL     1       5.334   3.913  12.227  0.00  0.00    +0.000 N 
ATOM     28  H   UNL     1       4.770   4.752  12.254  0.00  0.00    +0.000 HD
ENDBRANCH  22  27
ENDBRANCH  16  22
ENDBRANCH   1  19
TORSDOF 5
ENDMDL
MODEL 2
REMARK VINA RESULT:      -8.2      0.128      1.184
REMARK  Name = 
REMARK  7 active torsions:
REMARK  status: ('A' for Active; 'I' for Inactive)
REMARK    1  A    between atoms: C_1  and  C_2
REMARK    2  A    between atoms: N_4  and  C_5
REMARK    3  A    between atoms: C_5  and  C_6
REMARK    4  A    between atoms: C_5  and  C_7
REMARK    5  A    between atoms: C_10  and  O_11
REMARK    6  A    between atoms: O_11  and  C_12
REMARK    7  A    between atoms: C_19  and  C_20
REMARK                            x       y       z     vdW  Elec       q    Type
REMARK                         _______ _______ _______ _____ _____    ______ ____
ROOT
ATOM      1  O   UNL     1       5.607   4.507  18.530  0.00  0.00    +0.000 OA
ENDROOT
BRANCH   1   2
ATOM      2  C   UNL     1       5.076   5.767  19.011  0.00  0.00    +0.000 C 
ATOM      3  C   UNL     1       4.481   6.707  17.952  0.00  0.00    +0.000 C 
ATOM      4  N   UNL     1       3.239   6.689  18.658  0.00  0.00    +0.000 N 
ATOM      5  C   UNL     1       2.364   7.770  18.874  0.00  0.00    +0.000 A 
ATOM      6  C   UNL     1       2.175   8.718  17.888  0.00  0.00    +0.000 A 
ATOM      7  C   UNL     1       1.307   9.746  18.170  0.00  0.00    +0.000 A 
ATOM      8  N   UNL     1       0.663   9.869  19.342  0.00  0.00    +0.000 NA
ATOM      9  C   UNL     1       0.893   8.905  20.266  0.00  0.00    +0.000 A 
ATOM     10  N   UNL     1       1.718   7.851  20.051  0.00  0.00    +0.000 NA
ATOM     11  C   UNL     1       3.680   5.753  19.648  0.00  0.00    +0.000 C 
BRANCH   9  12
ATOM     12  C   UNL     1       0.226   9.021  21.641  0.00  0.00    +0.000 C 
ATOM     13  F   UNL     1       1.081   8.841  22.694  0.00  0.00    +0.000 F 
ATOM     14  F   UNL     1      -0.362  10.237  21.858  0.00  0.00    +0.000 F 
ATOM     15  F   UNL     1      -0.767   8.097  21.828  0.00  0.00    +0.000 F 
ENDBRANCH   9  12
ENDBRANCH   1   2
BRANCH   1  19
ATOM     16  C   UNL     1       6.256   4.014  14.413  0.00  0.00    +0.000 A 
ATOM     17  C   UNL     1       7.234   4.549  15.263  0.00  0.00    +0.000 A 
ATOM     18  C   UNL     1       6.981   4.710  16.633  0.00  0.00    +0.000 A 
ATOM     19  C   UNL     1       5.751   4.342  17.173  0.00  0.00    +0.000 A 
ATOM     20  C   UNL     1       4.778   3.791  16.341  0.00  0.00    +0.000 A 
ATOM     21  C   UNL     1       5.021   3.641  14.971  0.00  0.00    +0.000 A 
BRANCH  16  22
ATOM     22  C   UNL     1       6.549   3.830  12.932  0.00  0.00    +0.000 C 
ATOM     23  C   UNL     1       7.551   4.869  12.421  0.00  0.00    +0.000 C 
BRANCH  22  27
ATOM     24  C   UNL     1       3.587   3.071  10.687  0.00  0.00    +0.000 C 
ATOM     25  C   UNL     1       4.873   2.800  11.423  0.00  0.00    +0.000 C 
ATOM     26  O   UNL     1       5.455   1.725  11.360  0.00  0.00    +0.000 OA
ATOM     27  N   UNL     1       5.312   3.870  12.166  0.00  0.00    +0.000 N 
ATOM     28  H   UNL     1       4.764   4.720  12.175  0.00  0.00    +0.000 HD
ENDBRANCH  22  27
ENDBRANCH  16  22
ENDBRANCH   1  19
TORSDOF 5
ENDMDL
MODEL 3
REMARK VINA RESULT:      -8.0      5.413     11.149
REMARK  Name = 
REMARK  7 active torsions:
REMARK  status: ('A' for Active; 'I' for Inactive)
REMARK    1  A    between atoms: C_1  and  C_2
REMARK    2  A    between atoms: N_4  and  C_5
REMARK    3  A    between atoms: C_5  and  C_6
REMARK    4  A    between atoms: C_5  and  C_7
REMARK    5  A    between atoms: C_10  and  O_11
REMARK    6  A    between atoms: O_11  and  C_12
REMARK    7  A    between atoms: C_19  and  C_20
REMARK                            x       y       z     vdW  Elec       q    Type
REMARK                         _______ _______ _______ _____ _____    ______ ____
ROOT
ATOM      1  O   UNL     1       0.761  10.580  20.695  0.00  0.00    +0.000 OA
ENDROOT
BRANCH   1   2
ATOM      2  C   UNL     1       0.647   9.240  20.155  0.00  0.00    +0.000 C 
ATOM      3  C   UNL     1       1.639   8.864  19.044  0.00  0.00    +0.000 C 
ATOM      4  N   UNL     1       2.097   7.773  19.845  0.00  0.00    +0.000 N 
ATOM      5  C   UNL     1       2.437   6.478  19.411  0.00  0.00    +0.000 A 
ATOM      6  C   UNL     1       3.079   6.298  18.201  0.00  0.00    +0.000 A 
ATOM      7  C   UNL     1       3.380   5.006  17.842  0.00  0.00    +0.000 A 
ATOM      8  N   UNL     1       3.069   3.938  18.595  0.00  0.00    +0.000 NA
ATOM      9  C   UNL     1       2.439   4.185  19.769  0.00  0.00    +0.000 A 
ATOM     10  N   UNL     1       2.130   5.433  20.199  0.00  0.00    +0.000 NA
ATOM     11  C   UNL     1       1.263   8.092  20.966  0.00  0.00    +0.000 C 
BRANCH   9  12
ATOM     12  C   UNL     1       2.013   3.001  20.645  0.00  0.00    +0.000 C 
ATOM     13  F   UNL     1       2.925   2.661  21.607  0.00  0.00    +0.000 F 
ATOM     14  F   UNL     1       0.843   3.219  21.319  0.00  0.00    +0.000 F 
ATOM     15  F   UNL     1       1.811   1.854  19.925  0.00  0.00    +0.000 F 
ENDBRANCH   9  12
ENDBRANCH   1   2
BRANCH   1  19
ATOM     16  C   UNL     1      -2.667  12.245  22.454  0.00  0.00    +0.000 A 
ATOM     17  C   UNL     1      -2.333  12.471  21.111  0.00  0.00    +0.000 A 
ATOM     18  C   UNL     1      -1.174  11.908  20.556  0.00  0.00    +0.000 A 
ATOM     19  C   UNL     1      -0.333  11.115  21.333  0.00  0.00    +0.000 A 
ATOM     20  C   UNL     1      -0.664  10.868  22.665  0.00  0.00    +0.000 A 
ATOM     21  C   UNL     1      -1.813  11.439  23.225  0.00  0.00    +0.000 A 
BRANCH  16  22
ATOM     22  C   UNL     1      -3.934  12.850  23.038  0.00  0.00    +0.000 C 
ATOM     23  C   UNL     1      -4.099  12.499  24.519  0.00  0.00    +0.000 C 
BRANCH  22  27
ATOM     24  C   UNL     1      -7.248  12.623  21.206  0.00  0.00    +0.000 C 
ATOM     25  C   UNL     1      -6.142  13.275  21.993  0.00  0.00    +0.000 C 
ATOM     26  O   UNL     1      -6.185  14.448  22.344  0.00  0.00    +0.000 OA
ATOM     27  N   UNL     1      -5.093  12.429  22.265  0.00  0.00    +0.000 N 
ATOM     28  H   UNL     1      -5.131  11.477  21.927  0.00  0.00    +0.000 HD
ENDBRANCH  22  27
ENDBRANCH  16  22
ENDBRANCH   1  19
TORSDOF 5
ENDMDL
MODEL 4
REMARK VINA RESULT:      -7.8      5.364     11.123
REMARK  Name = 
REMARK  7 active torsions:
REMARK  status: ('A' for Active; 'I' for Inactive)
REMARK    1  A    between atoms: C_1  and  C_2
REMARK    2  A    between atoms: N_4  and  C_5
REMARK    3  A    between atoms: C_5  and  C_6
REMARK    4  A    between atoms: C_5  and  C_7
REMARK    5  A    between atoms: C_10  and  O_11
REMARK    6  A    between atoms: O_11  and  C_12
REMARK    7  A    between atoms: C_19  and  C_20
REMARK                            x       y       z     vdW  Elec       q    Type
REMARK                         _______ _______ _______ _____ _____    ______ ____
ROOT
ATOM      1  O   UNL     1       0.703  10.581  21.019  0.00  0.00    +0.000 OA
ENDROOT
BRANCH   1   2
ATOM      2  C   UNL     1       0.599   9.336  20.284  0.00  0.00    +0.000 C 
ATOM      3  C   UNL     1       1.740   9.023  19.304  0.00  0.00    +0.000 C 
ATOM      4  N   UNL     1       1.985   7.803  20.007  0.00  0.00    +0.000 N 
ATOM      5  C   UNL     1       2.313   6.551  19.454  0.00  0.00    +0.000 A 
ATOM      6  C   UNL     1       3.139   6.473  18.351  0.00  0.00    +0.000 A 
ATOM      7  C   UNL     1       3.415   5.218  17.866  0.00  0.00    +0.000 A 
ATOM      8  N   UNL     1       2.914   4.092  18.400  0.00  0.00    +0.000 NA
ATOM      9  C   UNL     1       2.110   4.239  19.481  0.00  0.00    +0.000 A 
ATOM     10  N   UNL     1       1.811   5.443  20.028  0.00  0.00    +0.000 NA
ATOM     11  C   UNL     1       0.994   8.045  21.012  0.00  0.00    +0.000 C 
BRANCH   9  12
ATOM     12  C   UNL     1       1.467   2.993  20.102  0.00  0.00    +0.000 C 
ATOM     13  F   UNL     1       1.129   3.136  21.420  0.00  0.00    +0.000 F 
ATOM     14  F   UNL     1       0.314   2.608  19.474  0.00  0.00    +0.000 F 
ATOM     15  F   UNL     1       2.288   1.897  20.062  0.00  0.00    +0.000 F 
ENDBRANCH   9  12
ENDBRANCH   1   2
BRANCH   1  19
ATOM     16  C   UNL     1      -2.788  12.413  22.461  0.00  0.00    +0.000 A 
ATOM     17  C   UNL     1      -1.997  11.577  23.264  0.00  0.00    +0.000 A 
ATOM     18  C   UNL     1      -0.842  10.972  22.748  0.00  0.00    +0.000 A 
ATOM     19  C   UNL     1      -0.461  11.190  21.426  0.00  0.00    +0.000 A 
ATOM     20  C   UNL     1      -1.228  12.034  20.624  0.00  0.00    +0.000 A 
ATOM     21  C   UNL     1      -2.388  12.629  21.132  0.00  0.00    +0.000 A 
BRANCH  16  22
ATOM     22  C   UNL     1      -4.029  13.075  23.038  0.00  0.00    +0.000 C 
ATOM     23  C   UNL     1      -3.987  13.121  24.568  0.00  0.00    +0.000 C 
BRANCH  22  27
ATOM     24  C   UNL     1      -7.247  12.084  21.290  0.00  0.00    +0.000 C 
ATOM     25  C   UNL     1      -6.050  12.942  21.608  0.00  0.00    +0.000 C 
ATOM     26  O   UNL     1      -5.841  14.014  21.054  0.00  0.00    +0.000 OA
ATOM     27  N   UNL     1      -5.226  12.397  22.564  0.00  0.00    +0.000 N 
ATOM     28  H   UNL     1      -5.464  11.498  22.963  0.00  0.00    +0.000 HD
ENDBRANCH  22  27
ENDBRANCH  16  22
ENDBRANCH   1  19
TORSDOF 5
ENDMDL
MODEL 5
REMARK VINA RESULT:      -7.8      2.698      3.499
REMARK  Name = 
REMARK  7 active torsions:
REMARK  status: ('A' for Active; 'I' for Inactive)
REMARK    1  A    between atoms: C_1  and  C_2
REMARK    2  A    between atoms: N_4  and  C_5
REMARK    3  A    between atoms: C_5  and  C_6
REMARK    4  A    between atoms: C_5  and  C_7
REMARK    5  A    between atoms: C_10  and  O_11
REMARK    6  A    between atoms: O_11  and  C_12
REMARK    7  A    between atoms: C_19  and  C_20
REMARK                            x       y       z     vdW  Elec       q    Type
REMARK                         _______ _______ _______ _____ _____    ______ ____
ROOT
ATOM      1  O   UNL     1       3.886   6.520  18.787  0.00  0.00    +0.000 OA
ENDROOT
BRANCH   1   2
ATOM      2  C   UNL     1       2.487   6.893  18.855  0.00  0.00    +0.000 C 
ATOM      3  C   UNL     1       2.115   7.963  19.892  0.00  0.00    +0.000 C 
ATOM      4  N   UNL     1       1.581   8.772  18.840  0.00  0.00    +0.000 N 
ATOM      5  C   UNL     1       0.412   9.553  18.875  0.00  0.00    +0.000 A 
ATOM      6  C   UNL     1       0.060  10.228  20.027  0.00  0.00    +0.000 A 
ATOM      7  C   UNL     1      -1.096  10.971  19.986  0.00  0.00    +0.000 A 
ATOM      8  N   UNL     1      -1.884  11.052  18.902  0.00  0.00    +0.000 NA
ATOM      9  C   UNL     1      -1.482  10.366  17.806  0.00  0.00    +0.000 A 
ATOM     10  N   UNL     1      -0.344   9.630  17.764  0.00  0.00    +0.000 NA
ATOM     11  C   UNL     1       1.960   7.869  17.795  0.00  0.00    +0.000 C 
BRANCH   9  12
ATOM     12  C   UNL     1      -2.369  10.379  16.555  0.00  0.00    +0.000 C 
ATOM     13  F   UNL     1      -3.701  10.203  16.813  0.00  0.00    +0.000 F 
ATOM     14  F   UNL     1      -2.291  11.547  15.847  0.00  0.00    +0.000 F 
ATOM     15  F   UNL     1      -2.045   9.391  15.665  0.00  0.00    +0.000 F 
ENDBRANCH   9  12
ENDBRANCH   1   2
BRANCH   1  19
ATOM     16  C   UNL     1       5.349   4.652  15.324  0.00  0.00    +0.000 A 
ATOM     17  C   UNL     1       5.465   6.034  15.532  0.00  0.00    +0.000 A 
ATOM     18  C   UNL     1       4.956   6.629  16.696  0.00  0.00    +0.000 A 
ATOM     19  C   UNL     1       4.324   5.855  17.666  0.00  0.00    +0.000 A 
ATOM     20  C   UNL     1       4.219   4.477  17.480  0.00  0.00    +0.000 A 
ATOM     21  C   UNL     1       4.714   3.882  16.313  0.00  0.00    +0.000 A 
BRANCH  16  22
ATOM     22  C   UNL     1       5.918   4.019  14.064  0.00  0.00    +0.000 C 
ATOM     23  C   UNL     1       7.192   4.731  13.599  0.00  0.00    +0.000 C 
BRANCH  22  27
ATOM     24  C   UNL     1       3.857   3.313  10.959  0.00  0.00    +0.000 C 
ATOM     25  C   UNL     1       4.987   3.141  11.941  0.00  0.00    +0.000 C 
ATOM     26  O   UNL     1       5.873   2.310  11.789  0.00  0.00    +0.000 OA
ATOM     27  N   UNL     1       4.912   3.998  13.013  0.00  0.00    +0.000 N 
ATOM     28  H   UNL     1       4.139   4.647  13.071  0.00  0.00    +0.000 HD
ENDBRANCH  22  27
ENDBRANCH  16  22
ENDBRANCH   1  19
TORSDOF 5
ENDMDL
MODEL 6
REMARK VINA RESULT:      -7.7      1.942      2.554
REMARK  Name = 
REMARK  7 active torsions:
REMARK  status: ('A' for Active; 'I' for Inactive)
REMARK    1  A    between atoms: C_1  and  C_2
REMARK    2  A    between atoms: N_4  and  C_5
REMARK    3  A    between atoms: C_5  and  C_6
REMARK    4  A    between atoms: C_5  and  C_7
REMARK    5  A    between atoms: C_10  and  O_11
REMARK    6  A    between atoms: O_11  and  C_12
REMARK    7  A    between atoms: C_19  and  C_20
REMARK                            x       y       z     vdW  Elec       q    Type
REMARK                         _______ _______ _______ _____ _____    ______ ____
ROOT
ATOM      1  O   UNL     1       4.326   5.581  18.652  0.00  0.00    +0.000 OA
ENDROOT
BRANCH   1   2
ATOM      2  C   UNL     1       2.988   6.126  18.768  0.00  0.00    +0.000 C 
ATOM      3  C   UNL     1       2.481   6.398  20.192  0.00  0.00    +0.000 C 
ATOM      4  N   UNL     1       2.278   7.768  19.839  0.00  0.00    +0.000 N 
ATOM      5  C   UNL     1       1.206   8.597  20.217  0.00  0.00    +0.000 A 
ATOM      6  C   UNL     1       0.658   8.492  21.480  0.00  0.00    +0.000 A 
ATOM      7  C   UNL     1      -0.387   9.333  21.778  0.00  0.00    +0.000 A 
ATOM      8  N   UNL     1      -0.893  10.220  20.906  0.00  0.00    +0.000 NA
ATOM      9  C   UNL     1      -0.311  10.272  19.685  0.00  0.00    +0.000 A 
ATOM     10  N   UNL     1       0.737   9.490  19.327  0.00  0.00    +0.000 NA
ATOM     11  C   UNL     1       2.808   7.628  18.516  0.00  0.00    +0.000 C 
BRANCH   9  12
ATOM     12  C   UNL     1      -0.880  11.229  18.631  0.00  0.00    +0.000 C 
ATOM     13  F   UNL     1      -1.176  10.633  17.436  0.00  0.00    +0.000 F 
ATOM     14  F   UNL     1      -2.037  11.843  19.024  0.00  0.00    +0.000 F 
ATOM     15  F   UNL     1      -0.017  12.245  18.317  0.00  0.00    +0.000 F 
ENDBRANCH   9  12
ENDBRANCH   1   2
BRANCH   1  19
ATOM     16  C   UNL     1       5.633   4.357  14.856  0.00  0.00    +0.000 A 
ATOM     17  C   UNL     1       5.318   3.439  15.868  0.00  0.00    +0.000 A 
ATOM     18  C   UNL     1       4.894   3.881  17.130  0.00  0.00    +0.000 A 
ATOM     19  C   UNL     1       4.781   5.243  17.399  0.00  0.00    +0.000 A 
ATOM     20  C   UNL     1       5.073   6.165  16.395  0.00  0.00    +0.000 A 
ATOM     21  C   UNL     1       5.509   5.727  15.139  0.00  0.00    +0.000 A 
BRANCH  16  22
ATOM     22  C   UNL     1       6.078   3.862  13.488  0.00  0.00    +0.000 C 
ATOM     23  C   UNL     1       7.263   4.670  12.952  0.00  0.00    +0.000 C 
BRANCH  22  27
ATOM     24  C   UNL     1       3.576   3.158  10.725  0.00  0.00    +0.000 C 
ATOM     25  C   UNL     1       4.780   2.918  11.598  0.00  0.00    +0.000 C 
ATOM     26  O   UNL     1       5.513   1.948  11.459  0.00  0.00    +0.000 OA
ATOM     27  N   UNL     1       4.959   3.886  12.558  0.00  0.00    +0.000 N 
ATOM     28  H   UNL     1       4.299   4.650  12.614  0.00  0.00    +0.000 HD
ENDBRANCH  22  27
ENDBRANCH  16  22
ENDBRANCH   1  19
TORSDOF 5
ENDMDL
MODEL 7
REMARK VINA RESULT:      -7.7      2.980      3.994
REMARK  Name = 
REMARK  7 active torsions:
REMARK  status: ('A' for Active; 'I' for Inactive)
REMARK    1  A    between atoms: C_1  and  C_2
REMARK    2  A    between atoms: N_4  and  C_5
REMARK    3  A    between atoms: C_5  and  C_6
REMARK    4  A    between atoms: C_5  and  C_7
REMARK    5  A    between atoms: C_10  and  O_11
REMARK    6  A    between atoms: O_11  and  C_12
REMARK    7  A    between atoms: C_19  and  C_20
REMARK                            x       y       z     vdW  Elec       q    Type
REMARK                         _______ _______ _______ _____ _____    ______ ____
ROOT
ATOM      1  O   UNL     1       7.582   5.293  16.307  0.00  0.00    +0.000 OA
ENDROOT
BRANCH   1   2
ATOM      2  C   UNL     1       6.845   5.258  17.554  0.00  0.00    +0.000 C 
ATOM      3  C   UNL     1       5.819   6.380  17.775  0.00  0.00    +0.000 C 
ATOM      4  N   UNL     1       4.797   5.393  17.925  0.00  0.00    +0.000 N 
ATOM      5  C   UNL     1       3.729   5.402  18.841  0.00  0.00    +0.000 A 
ATOM      6  C   UNL     1       3.098   6.589  19.161  0.00  0.00    +0.000 A 
ATOM      7  C   UNL     1       2.065   6.521  20.064  0.00  0.00    +0.000 A 
ATOM      8  N   UNL     1       1.663   5.378  20.644  0.00  0.00    +0.000 NA
ATOM      9  C   UNL     1       2.324   4.251  20.287  0.00  0.00    +0.000 A 
ATOM     10  N   UNL     1       3.338   4.237  19.387  0.00  0.00    +0.000 NA
ATOM     11  C   UNL     1       5.662   4.285  17.653  0.00  0.00    +0.000 C 
BRANCH   9  12
ATOM     12  C   UNL     1       1.944   2.925  20.955  0.00  0.00    +0.000 C 
ATOM     13  F   UNL     1       0.667   2.892  21.446  0.00  0.00    +0.000 F 
ATOM     14  F   UNL     1       2.035   1.849  20.116  0.00  0.00    +0.000 F 
ATOM     15  F   UNL     1       2.744   2.622  22.024  0.00  0.00    +0.000 F 
ENDBRANCH   9  12
ENDBRANCH   1   2
BRANCH   1  19
ATOM     16  C   UNL     1       5.930   3.727  12.781  0.00  0.00    +0.000 A 
ATOM     17  C   UNL     1       6.993   4.642  12.765  0.00  0.00    +0.000 A 
ATOM     18  C   UNL     1       7.516   5.154  13.961  0.00  0.00    +0.000 A 
ATOM     19  C   UNL     1       6.985   4.764  15.187  0.00  0.00    +0.000 A 
ATOM     20  C   UNL     1       5.941   3.841  15.218  0.00  0.00    +0.000 A 
ATOM     21  C   UNL     1       5.408   3.337  14.025  0.00  0.00    +0.000 A 
BRANCH  16  22
ATOM     22  C   UNL     1       5.384   3.168  11.476  0.00  0.00    +0.000 C 
ATOM     23  C   UNL     1       4.000   3.738  11.152  0.00  0.00    +0.000 C 
BRANCH  22  27
ATOM     24  C   UNL     1       6.196  -0.533  11.304  0.00  0.00    +0.000 C 
ATOM     25  C   UNL     1       6.457   0.948  11.219  0.00  0.00    +0.000 C 
ATOM     26  O   UNL     1       7.549   1.409  10.912  0.00  0.00    +0.000 OA
ATOM     27  N   UNL     1       5.357   1.714  11.525  0.00  0.00    +0.000 N 
ATOM     28  H   UNL     1       4.494   1.254  11.781  0.00  0.00    +0.000 HD
ENDBRANCH  22  27
ENDBRANCH  16  22
ENDBRANCH   1  19
TORSDOF 5
ENDMDL
MODEL 8
REMARK VINA RESULT:      -7.6      2.320      3.165
REMARK  Name = 
REMARK  7 active torsions:
REMARK  status: ('A' for Active; 'I' for Inactive)
REMARK    1  A    between atoms: C_1  and  C_2
REMARK    2  A    between atoms: N_4  and  C_5
REMARK    3  A    between atoms: C_5  and  C_6
REMARK    4  A    between atoms: C_5  and  C_7
REMARK    5  A    between atoms: C_10  and  O_11
REMARK    6  A    between atoms: O_11  and  C_12
REMARK    7  A    between atoms: C_19  and  C_20
REMARK                            x       y       z     vdW  Elec       q    Type
REMARK                         _______ _______ _______ _____ _____    ______ ____
ROOT
ATOM      1  O   UNL     1       4.016   6.188  18.871  0.00  0.00    +0.000 OA
ENDROOT
BRANCH   1   2
ATOM      2  C   UNL     1       2.645   6.651  18.958  0.00  0.00    +0.000 C 
ATOM      3  C   UNL     1       2.255   7.396  20.244  0.00  0.00    +0.000 C 
ATOM      4  N   UNL     1       1.873   8.524  19.453  0.00  0.00    +0.000 N 
ATOM      5  C   UNL     1       0.760   9.364  19.646  0.00  0.00    +0.000 A 
ATOM      6  C   UNL     1       0.355   9.698  20.923  0.00  0.00    +0.000 A 
ATOM      7  C   UNL     1      -0.740  10.521  21.034  0.00  0.00    +0.000 A 
ATOM      8  N   UNL     1      -1.422  10.991  19.977  0.00  0.00    +0.000 NA
ATOM      9  C   UNL     1      -0.972  10.625  18.753  0.00  0.00    +0.000 A 
ATOM     10  N   UNL     1       0.113   9.834  18.565  0.00  0.00    +0.000 NA
ATOM     11  C   UNL     1       2.281   7.940  18.211  0.00  0.00    +0.000 C 
BRANCH   9  12
ATOM     12  C   UNL     1      -1.741  11.088  17.510  0.00  0.00    +0.000 C 
ATOM     13  F   UNL     1      -1.339  12.302  17.024  0.00  0.00    +0.000 F 
ATOM     14  F   UNL     1      -1.637  10.225  16.454  0.00  0.00    +0.000 F 
ATOM     15  F   UNL     1      -3.085  11.224  17.739  0.00  0.00    +0.000 F 
ENDBRANCH   9  12
ENDBRANCH   1   2
BRANCH   1  19
ATOM     16  C   UNL     1       5.402   4.537  15.270  0.00  0.00    +0.000 A 
ATOM     17  C   UNL     1       5.614   5.883  15.604  0.00  0.00    +0.000 A 
ATOM     18  C   UNL     1       5.128   6.406  16.811  0.00  0.00    +0.000 A 
ATOM     19  C   UNL     1       4.425   5.596  17.699  0.00  0.00    +0.000 A 
ATOM     20  C   UNL     1       4.224   4.252  17.388  0.00  0.00    +0.000 A 
ATOM     21  C   UNL     1       4.696   3.730  16.178  0.00  0.00    +0.000 A 
BRANCH  16  22
ATOM     22  C   UNL     1       5.948   3.980  13.965  0.00  0.00    +0.000 C 
ATOM     23  C   UNL     1       7.170   4.765  13.481  0.00  0.00    +0.000 C 
BRANCH  22  27
ATOM     24  C   UNL     1       3.770   3.264  10.943  0.00  0.00    +0.000 C 
ATOM     25  C   UNL     1       4.936   3.096  11.881  0.00  0.00    +0.000 C 
ATOM     26  O   UNL     1       5.816   2.265  11.697  0.00  0.00    +0.000 OA
ATOM     27  N   UNL     1       4.902   3.956  12.953  0.00  0.00    +0.000 N 
ATOM     28  H   UNL     1       4.131   4.604  13.038  0.00  0.00    +0.000 HD
ENDBRANCH  22  27
ENDBRANCH  16  22
ENDBRANCH   1  19
TORSDOF 5
ENDMDL
MODEL 9
REMARK VINA RESULT:      -7.5      5.104     10.036
REMARK  Name = 
REMARK  7 active torsions:
REMARK  status: ('A' for Active; 'I' for Inactive)
REMARK    1  A    between atoms: C_1  and  C_2
REMARK    2  A    between atoms: N_4  and  C_5
REMARK    3  A    between atoms: C_5  and  C_6
REMARK    4  A    between atoms: C_5  and  C_7
REMARK    5  A    between atoms: C_10  and  O_11
REMARK    6  A    between atoms: O_11  and  C_12
REMARK    7  A    between atoms: C_19  and  C_20
REMARK                            x       y       z     vdW  Elec       q    Type
REMARK                         _______ _______ _______ _____ _____    ______ ____
ROOT
ATOM      1  O   UNL     1       1.157  10.059  18.578  0.00  0.00    +0.000 OA
ENDROOT
BRANCH   1   2
ATOM      2  C   UNL     1       1.373   8.646  18.338  0.00  0.00    +0.000 C 
ATOM      3  C   UNL     1       2.715   8.258  17.699  0.00  0.00    +0.000 C 
ATOM      4  N   UNL     1       2.987   7.418  18.823  0.00  0.00    +0.000 N 
ATOM      5  C   UNL     1       3.589   6.145  18.811  0.00  0.00    +0.000 A 
ATOM      6  C   UNL     1       4.617   5.871  17.931  0.00  0.00    +0.000 A 
ATOM      7  C   UNL     1       5.154   4.607  17.976  0.00  0.00    +0.000 A 
ATOM      8  N   UNL     1       4.721   3.648  18.811  0.00  0.00    +0.000 NA
ATOM      9  C   UNL     1       3.710   3.983  19.648  0.00  0.00    +0.000 A 
ATOM     10  N   UNL     1       3.145   5.215  19.676  0.00  0.00    +0.000 NA
ATOM     11  C   UNL     1       1.796   7.778  19.531  0.00  0.00    +0.000 C 
BRANCH   9  12
ATOM     12  C   UNL     1       3.140   2.915  20.587  0.00  0.00    +0.000 C 
ATOM     13  F   UNL     1       4.081   2.071  21.111  0.00  0.00    +0.000 F 
ATOM     14  F   UNL     1       2.483   3.437  21.667  0.00  0.00    +0.000 F 
ATOM     15  F   UNL     1       2.233   2.096  19.970  0.00  0.00    +0.000 F 
ENDBRANCH   9  12
ENDBRANCH   1   2
BRANCH   1  19
ATOM     16  C   UNL     1      -2.851  11.300  18.473  0.00  0.00    +0.000 A 
ATOM     17  C   UNL     1      -2.365  10.278  17.645  0.00  0.00    +0.000 A 
ATOM     18  C   UNL     1      -1.018   9.894  17.698  0.00  0.00    +0.000 A 
ATOM     19  C   UNL     1      -0.137  10.524  18.574  0.00  0.00    +0.000 A 
ATOM     20  C   UNL     1      -0.612  11.529  19.415  0.00  0.00    +0.000 A 
ATOM     21  C   UNL     1      -1.954  11.924  19.356  0.00  0.00    +0.000 A 
BRANCH  16  22
ATOM     22  C   UNL     1      -4.319  11.696  18.416  0.00  0.00    +0.000 C 
ATOM     23  C   UNL     1      -4.821  11.800  16.974  0.00  0.00    +0.000 C 
BRANCH  22  27
ATOM     24  C   UNL     1      -5.426  14.402  20.833  0.00  0.00    +0.000 C 
ATOM     25  C   UNL     1      -5.319  13.011  20.265  0.00  0.00    +0.000 C 
ATOM     26  O   UNL     1      -5.879  12.047  20.771  0.00  0.00    +0.000 OA
ATOM     27  N   UNL     1      -4.532  12.940  19.140  0.00  0.00    +0.000 N 
ATOM     28  H   UNL     1      -4.093  13.783  18.794  0.00  0.00    +0.000 HD
ENDBRANCH  22  27
ENDBRANCH  16  22
ENDBRANCH   1  19
TORSDOF 5
ENDMDL
