MODEL 1
REMARK VINA RESULT:      -8.8      0.000      0.000
REMARK  Name = 
REMARK  6 active torsions:
REMARK  status: ('A' for Active; 'I' for Inactive)
REMARK    1  A    between atoms: C_1  and  C_2
REMARK    2  A    between atoms: C_7  and  C_8
REMARK    3  A    between atoms: N_13  and  C_14
REMARK    4  A    between atoms: C_14  and  C_15
REMARK    5  A    between atoms: C_15  and  N_16
REMARK    6  A    between atoms: N_19  and  C_20
REMARK                            x       y       z     vdW  Elec       q    Type
REMARK                         _______ _______ _______ _____ _____    ______ ____
ROOT
ATOM      1  C   UNL     1       2.819   6.977  18.616  0.00  0.00    +0.000 A 
ATOM      2  C   UNL     1       2.091   8.100  18.246  0.00  0.00    +0.000 A 
ATOM      3  C   UNL     1       1.525   8.669  19.411  0.00  0.00    +0.000 A 
ATOM      4  C   UNL     1       0.629   9.777  19.588  0.00  0.00    +0.000 A 
ATOM      5  O   UNL     1       0.272  10.468  18.639  0.00  0.00    +0.000 OA
ATOM      6  N   UNL     1       0.208   9.993  20.899  0.00  0.00    +0.000 N 
ATOM      7  C   UNL     1       0.652   9.274  21.992  0.00  0.00    +0.000 A 
ATOM      8  O   UNL     1       0.406   9.468  23.169  0.00  0.00    +0.000 OA
ATOM      9  N   UNL     1       1.557   8.199  21.735  0.00  0.00    +0.000 N 
ATOM     10  C   UNL     1       1.957   7.924  20.460  0.00  0.00    +0.000 A 
ATOM     11  N   UNL     1       2.781   6.938  20.003  0.00  0.00    +0.000 N 
ATOM     12  H   UNL     1       1.871   7.670  22.534  0.00  0.00    +0.000 HD
ATOM     13  H   UNL     1       3.250   6.243  20.568  0.00  0.00    +0.000 HD
ENDROOT
BRANCH   1  20
ATOM     14  C   UNL     1       1.613   4.188  18.195  0.00  0.00    +0.000 C 
ATOM     15  C   UNL     1       2.933   4.635  17.621  0.00  0.00    +0.000 A 
ATOM     16  C   UNL     1       3.664   3.687  16.878  0.00  0.00    +0.000 A 
ATOM     17  C   UNL     1       4.898   4.002  16.315  0.00  0.00    +0.000 A 
ATOM     18  C   UNL     1       5.430   5.270  16.493  0.00  0.00    +0.000 A 
ATOM     19  C   UNL     1       4.726   6.218  17.236  0.00  0.00    +0.000 A 
ATOM     20  C   UNL     1       3.471   5.928  17.810  0.00  0.00    +0.000 A 
ENDBRANCH   1  20
BRANCH   6  21
ATOM     21  C   UNL     1      -0.750  11.069  21.111  0.00  0.00    +0.000 C 
BRANCH  21  22
ATOM     22  C   UNL     1      -0.084  12.397  21.549  0.00  0.00    +0.000 C 
BRANCH  22  23
ATOM     23  N   UNL     1      -0.901  13.611  21.339  0.00  0.00    +0.000 NA
ATOM     24  C   UNL     1      -0.147  14.871  21.575  0.00  0.00    +0.000 C 
ATOM     25  C   UNL     1       1.010  15.126  20.587  0.00  0.00    +0.000 C 
ATOM     26  N   UNL     1       0.501  15.144  19.212  0.00  0.00    +0.000 N 
ATOM     27  C   UNL     1      -0.333  13.992  18.830  0.00  0.00    +0.000 C 
ATOM     28  C   UNL     1      -1.392  13.670  19.928  0.00  0.00    +0.000 C 
BRANCH  26  29
ATOM     29  C   UNL     1       0.659  16.262  18.402  0.00  0.00    +0.000 A 
ATOM     30  C   UNL     1      -0.421  17.157  18.239  0.00  0.00    +0.000 A 
ATOM     31  C   UNL     1      -0.331  18.324  17.475  0.00  0.00    +0.000 A 
ATOM     32  C   UNL     1       0.850  18.631  16.818  0.00  0.00    +0.000 A 
ATOM     33  C   UNL     1       1.937  17.769  16.935  0.00  0.00    +0.000 A 
ATOM     34  C   UNL     1       1.851  16.607  17.721  0.00  0.00    +0.000 A 
ATOM     35 CL   UNL     1       3.329  15.710  17.885  0.00  0.00    +0.000 Cl
ENDBRANCH  26  29
ENDBRANCH  22  23
ENDBRANCH  21  22
ENDBRANCH   6  21
TORSDOF 5
ENDMDL
MODEL 2
REMARK VINA RESULT:      -8.6      3.499      5.299
REMARK  Name = 
REMARK  6 active torsions:
REMARK  status: ('A' for Active; 'I' for Inactive)
REMARK    1  A    between atoms: C_1  and  C_2
REMARK    2  A    between atoms: C_7  and  C_8
REMARK    3  A    between atoms: N_13  and  C_14
REMARK    4  A    between atoms: C_14  and  C_15
REMARK    5  A    between atoms: C_15  and  N_16
REMARK    6  A    between atoms: N_19  and  C_20
REMARK                            x       y       z     vdW  Elec       q    Type
REMARK                         _______ _______ _______ _____ _____    ______ ____
ROOT
ATOM      1  C   UNL     1       2.257   6.237  19.160  0.00  0.00    +0.000 A 
ATOM      2  C   UNL     1       2.069   7.458  18.526  0.00  0.00    +0.000 A 
ATOM      3  C   UNL     1       1.685   8.412  19.498  0.00  0.00    +0.000 A 
ATOM      4  C   UNL     1       1.294   9.788  19.377  0.00  0.00    +0.000 A 
ATOM      5  O   UNL     1       1.319  10.366  18.295  0.00  0.00    +0.000 OA
ATOM      6  N   UNL     1       0.891  10.395  20.565  0.00  0.00    +0.000 N 
ATOM      7  C   UNL     1       0.923   9.787  21.805  0.00  0.00    +0.000 A 
ATOM      8  O   UNL     1       0.680  10.282  22.891  0.00  0.00    +0.000 OA
ATOM      9  N   UNL     1       1.341   8.421  21.844  0.00  0.00    +0.000 N 
ATOM     10  C   UNL     1       1.699   7.776  20.698  0.00  0.00    +0.000 A 
ATOM     11  N   UNL     1       2.095   6.483  20.517  0.00  0.00    +0.000 N 
ATOM     12  H   UNL     1       1.354   7.978  22.750  0.00  0.00    +0.000 HD
ATOM     13  H   UNL     1       2.202   5.786  21.240  0.00  0.00    +0.000 HD
ENDROOT
BRANCH   1  20
ATOM     14  C   UNL     1       4.661   5.540  17.388  0.00  0.00    +0.000 C 
ATOM     15  C   UNL     1       3.594   4.556  17.791  0.00  0.00    +0.000 A 
ATOM     16  C   UNL     1       3.702   3.246  17.283  0.00  0.00    +0.000 A 
ATOM     17  C   UNL     1       2.760   2.269  17.592  0.00  0.00    +0.000 A 
ATOM     18  C   UNL     1       1.686   2.584  18.409  0.00  0.00    +0.000 A 
ATOM     19  C   UNL     1       1.556   3.879  18.912  0.00  0.00    +0.000 A 
ATOM     20  C   UNL     1       2.499   4.886  18.622  0.00  0.00    +0.000 A 
ENDBRANCH   1  20
BRANCH   6  21
ATOM     21  C   UNL     1       0.427  11.773  20.472  0.00  0.00    +0.000 C 
BRANCH  21  22
ATOM     22  C   UNL     1      -1.073  11.932  20.822  0.00  0.00    +0.000 C 
BRANCH  22  23
ATOM     23  N   UNL     1      -1.444  13.228  21.431  0.00  0.00    +0.000 NA
ATOM     24  C   UNL     1      -2.628  13.858  20.788  0.00  0.00    +0.000 C 
ATOM     25  C   UNL     1      -3.946  13.073  20.950  0.00  0.00    +0.000 C 
ATOM     26  N   UNL     1      -4.243  12.880  22.373  0.00  0.00    +0.000 N 
ATOM     27  C   UNL     1      -3.143  12.325  23.180  0.00  0.00    +0.000 C 
ATOM     28  C   UNL     1      -1.795  13.043  22.873  0.00  0.00    +0.000 C 
BRANCH  26  29
ATOM     29  C   UNL     1      -5.421  13.359  22.932  0.00  0.00    +0.000 A 
ATOM     30  C   UNL     1      -6.484  12.464  23.180  0.00  0.00    +0.000 A 
ATOM     31  C   UNL     1      -7.685  12.858  23.777  0.00  0.00    +0.000 A 
ATOM     32  C   UNL     1      -7.879  14.184  24.131  0.00  0.00    +0.000 A 
ATOM     33  C   UNL     1      -6.865  15.107  23.889  0.00  0.00    +0.000 A 
ATOM     34  C   UNL     1      -5.650  14.704  23.309  0.00  0.00    +0.000 A 
ATOM     35 CL   UNL     1      -4.433  15.938  23.202  0.00  0.00    +0.000 Cl
ENDBRANCH  26  29
ENDBRANCH  22  23
ENDBRANCH  21  22
ENDBRANCH   6  21
TORSDOF 5
ENDMDL
MODEL 3
REMARK VINA RESULT:      -8.5      1.004      1.301
REMARK  Name = 
REMARK  6 active torsions:
REMARK  status: ('A' for Active; 'I' for Inactive)
REMARK    1  A    between atoms: C_1  and  C_2
REMARK    2  A    between atoms: C_7  and  C_8
REMARK    3  A    between atoms: N_13  and  C_14
REMARK    4  A    between atoms: C_14  and  C_15
REMARK    5  A    between atoms: C_15  and  N_16
REMARK    6  A    between atoms: N_19  and  C_20
REMARK                            x       y       z     vdW  Elec       q    Type
REMARK                         _______ _______ _______ _____ _____    ______ ____
ROOT
ATOM      1  C   UNL     1       2.951   7.030  18.389  0.00  0.00    +0.000 A 
ATOM      2  C   UNL     1       2.258   8.188  18.061  0.00  0.00    +0.000 A 
ATOM      3  C   UNL     1       1.625   8.676  19.229  0.00  0.00    +0.000 A 
ATOM      4  C   UNL     1       0.731   9.779  19.434  0.00  0.00    +0.000 A 
ATOM      5  O   UNL     1       0.440  10.545  18.520  0.00  0.00    +0.000 OA
ATOM      6  N   UNL     1       0.231   9.902  20.729  0.00  0.00    +0.000 N 
ATOM      7  C   UNL     1       0.599   9.097  21.790  0.00  0.00    +0.000 A 
ATOM      8  O   UNL     1       0.280   9.205  22.961  0.00  0.00    +0.000 OA
ATOM      9  N   UNL     1       1.508   8.031  21.508  0.00  0.00    +0.000 N 
ATOM     10  C   UNL     1       1.983   7.847  20.243  0.00  0.00    +0.000 A 
ATOM     11  N   UNL     1       2.825   6.887  19.764  0.00  0.00    +0.000 N 
ATOM     12  H   UNL     1       1.766   7.439  22.282  0.00  0.00    +0.000 HD
ATOM     13  H   UNL     1       3.252   6.145  20.302  0.00  0.00    +0.000 HD
ENDROOT
BRANCH   1  20
ATOM     14  C   UNL     1       2.169   4.065  18.304  0.00  0.00    +0.000 C 
ATOM     15  C   UNL     1       3.301   4.664  17.511  0.00  0.00    +0.000 A 
ATOM     16  C   UNL     1       4.062   3.787  16.713  0.00  0.00    +0.000 A 
ATOM     17  C   UNL     1       5.133   4.244  15.951  0.00  0.00    +0.000 A 
ATOM     18  C   UNL     1       5.471   5.589  15.979  0.00  0.00    +0.000 A 
ATOM     19  C   UNL     1       4.736   6.470  16.771  0.00  0.00    +0.000 A 
ATOM     20  C   UNL     1       3.642   6.036  17.547  0.00  0.00    +0.000 A 
ENDBRANCH   1  20
BRANCH   6  21
ATOM     21  C   UNL     1      -0.729  10.973  20.963  0.00  0.00    +0.000 C 
BRANCH  21  22
ATOM     22  C   UNL     1      -0.107  12.199  21.675  0.00  0.00    +0.000 C 
BRANCH  22  23
ATOM     23  N   UNL     1      -0.849  13.468  21.509  0.00  0.00    +0.000 NA
ATOM     24  C   UNL     1      -0.018  14.670  21.778  0.00  0.00    +0.000 C 
ATOM     25  C   UNL     1       1.148  14.885  20.790  0.00  0.00    +0.000 C 
ATOM     26  N   UNL     1       0.633  14.977  19.420  0.00  0.00    +0.000 N 
ATOM     27  C   UNL     1      -0.273  13.892  19.008  0.00  0.00    +0.000 C 
ATOM     28  C   UNL     1      -1.343  13.600  20.103  0.00  0.00    +0.000 C 
BRANCH  26  29
ATOM     29  C   UNL     1       0.855  16.108  18.644  0.00  0.00    +0.000 A 
ATOM     30  C   UNL     1       2.067  16.232  17.930  0.00  0.00    +0.000 A 
ATOM     31  C   UNL     1       2.350  17.317  17.096  0.00  0.00    +0.000 A 
ATOM     32  C   UNL     1       1.429  18.344  16.963  0.00  0.00    +0.000 A 
ATOM     33  C   UNL     1       0.227  18.275  17.660  0.00  0.00    +0.000 A 
ATOM     34  C   UNL     1      -0.065  17.172  18.482  0.00  0.00    +0.000 A 
ATOM     35 CL   UNL     1      -1.658  17.160  19.172  0.00  0.00    +0.000 Cl
ENDBRANCH  26  29
ENDBRANCH  22  23
ENDBRANCH  21  22
ENDBRANCH   6  21
TORSDOF 5
ENDMDL
MODEL 4
REMARK VINA RESULT:      -8.5      3.486      5.155
REMARK  Name = 
REMARK  6 active torsions:
REMARK  status: ('A' for Active; 'I' for Inactive)
REMARK    1  A    between atoms: C_1  and  C_2
REMARK    2  A    between atoms: C_7  and  C_8
REMARK    3  A    between atoms: N_13  and  C_14
REMARK    4  A    between atoms: C_14  and  C_15
REMARK    5  A    between atoms: C_15  and  N_16
REMARK    6  A    between atoms: N_19  and  C_20
REMARK                            x       y       z     vdW  Elec       q    Type
REMARK                         _______ _______ _______ _____ _____    ______ ____
ROOT
ATOM      1  C   UNL     1       2.430   6.110  19.049  0.00  0.00    +0.000 A 
ATOM      2  C   UNL     1       2.111   7.272  18.359  0.00  0.00    +0.000 A 
ATOM      3  C   UNL     1       1.716   8.255  19.298  0.00  0.00    +0.000 A 
ATOM      4  C   UNL     1       1.214   9.588  19.124  0.00  0.00    +0.000 A 
ATOM      5  O   UNL     1       1.128  10.098  18.011  0.00  0.00    +0.000 OA
ATOM      6  N   UNL     1       0.839  10.237  20.299  0.00  0.00    +0.000 N 
ATOM      7  C   UNL     1       0.993   9.712  21.566  0.00  0.00    +0.000 A 
ATOM      8  O   UNL     1       0.781  10.255  22.636  0.00  0.00    +0.000 OA
ATOM      9  N   UNL     1       1.517   8.385  21.657  0.00  0.00    +0.000 N 
ATOM     10  C   UNL     1       1.851   7.697  20.529  0.00  0.00    +0.000 A 
ATOM     11  N   UNL     1       2.334   6.428  20.397  0.00  0.00    +0.000 N 
ATOM     12  H   UNL     1       1.618   8.001  22.584  0.00  0.00    +0.000 HD
ATOM     13  H   UNL     1       2.538   5.787  21.151  0.00  0.00    +0.000 HD
ENDROOT
BRANCH   1  20
ATOM     14  C   UNL     1       0.857   3.626  19.920  0.00  0.00    +0.000 C 
ATOM     15  C   UNL     1       2.033   3.595  18.981  0.00  0.00    +0.000 A 
ATOM     16  C   UNL     1       2.448   2.333  18.511  0.00  0.00    +0.000 A 
ATOM     17  C   UNL     1       3.531   2.201  17.646  0.00  0.00    +0.000 A 
ATOM     18  C   UNL     1       4.227   3.329  17.240  0.00  0.00    +0.000 A 
ATOM     19  C   UNL     1       3.839   4.586  17.704  0.00  0.00    +0.000 A 
ATOM     20  C   UNL     1       2.741   4.749  18.575  0.00  0.00    +0.000 A 
ENDBRANCH   1  20
BRANCH   6  21
ATOM     21  C   UNL     1       0.266  11.570  20.157  0.00  0.00    +0.000 C 
BRANCH  21  22
ATOM     22  C   UNL     1      -1.128  11.703  20.817  0.00  0.00    +0.000 C 
BRANCH  22  23
ATOM     23  N   UNL     1      -1.436  13.038  21.375  0.00  0.00    +0.000 NA
ATOM     24  C   UNL     1      -2.604  13.687  20.723  0.00  0.00    +0.000 C 
ATOM     25  C   UNL     1      -3.950  12.965  20.938  0.00  0.00    +0.000 C 
ATOM     26  N   UNL     1      -4.231  12.844  22.372  0.00  0.00    +0.000 N 
ATOM     27  C   UNL     1      -3.142  12.279  23.187  0.00  0.00    +0.000 C 
ATOM     28  C   UNL     1      -1.770  12.928  22.829  0.00  0.00    +0.000 C 
BRANCH  26  29
ATOM     29  C   UNL     1      -5.379  13.394  22.928  0.00  0.00    +0.000 A 
ATOM     30  C   UNL     1      -6.467  12.552  23.245  0.00  0.00    +0.000 A 
ATOM     31  C   UNL     1      -7.641  13.021  23.843  0.00  0.00    +0.000 A 
ATOM     32  C   UNL     1      -7.781  14.370  24.128  0.00  0.00    +0.000 A 
ATOM     33  C   UNL     1      -6.741  15.241  23.817  0.00  0.00    +0.000 A 
ATOM     34  C   UNL     1      -5.553  14.765  23.235  0.00  0.00    +0.000 A 
ATOM     35 CL   UNL     1      -4.297  15.947  23.038  0.00  0.00    +0.000 Cl
ENDBRANCH  26  29
ENDBRANCH  22  23
ENDBRANCH  21  22
ENDBRANCH   6  21
TORSDOF 5
ENDMDL
MODEL 5
REMARK VINA RESULT:      -8.5      3.097      4.183
REMARK  Name = 
REMARK  6 active torsions:
REMARK  status: ('A' for Active; 'I' for Inactive)
REMARK    1  A    between atoms: C_1  and  C_2
REMARK    2  A    between atoms: C_7  and  C_8
REMARK    3  A    between atoms: N_13  and  C_14
REMARK    4  A    between atoms: C_14  and  C_15
REMARK    5  A    between atoms: C_15  and  N_16
REMARK    6  A    between atoms: N_19  and  C_20
REMARK                            x       y       z     vdW  Elec       q    Type
REMARK                         _______ _______ _______ _____ _____    ______ ____
ROOT
ATOM      1  C   UNL     1       2.850   6.906  18.601  0.00  0.00    +0.000 A 
ATOM      2  C   UNL     1       2.160   8.027  18.156  0.00  0.00    +0.000 A 
ATOM      3  C   UNL     1       1.518   8.626  19.265  0.00  0.00    +0.000 A 
ATOM      4  C   UNL     1       0.623   9.744  19.355  0.00  0.00    +0.000 A 
ATOM      5  O   UNL     1       0.339  10.416  18.368  0.00  0.00    +0.000 OA
ATOM      6  N   UNL     1       0.113   9.993  20.628  0.00  0.00    +0.000 N 
ATOM      7  C   UNL     1       0.472   9.296  21.765  0.00  0.00    +0.000 A 
ATOM      8  O   UNL     1       0.145   9.519  22.917  0.00  0.00    +0.000 OA
ATOM      9  N   UNL     1       1.383   8.208  21.596  0.00  0.00    +0.000 N 
ATOM     10  C   UNL     1       1.868   7.901  20.359  0.00  0.00    +0.000 A 
ATOM     11  N   UNL     1       2.714   6.899  19.983  0.00  0.00    +0.000 N 
ATOM     12  H   UNL     1       1.635   7.695  22.426  0.00  0.00    +0.000 HD
ATOM     13  H   UNL     1       3.136   6.214  20.594  0.00  0.00    +0.000 HD
ENDROOT
BRANCH   1  20
ATOM     14  C   UNL     1       1.573   4.187  17.984  0.00  0.00    +0.000 C 
ATOM     15  C   UNL     1       2.975   4.572  17.589  0.00  0.00    +0.000 A 
ATOM     16  C   UNL     1       3.748   3.597  16.928  0.00  0.00    +0.000 A 
ATOM     17  C   UNL     1       5.057   3.856  16.531  0.00  0.00    +0.000 A 
ATOM     18  C   UNL     1       5.623   5.093  16.796  0.00  0.00    +0.000 A 
ATOM     19  C   UNL     1       4.877   6.067  17.460  0.00  0.00    +0.000 A 
ATOM     20  C   UNL     1       3.547   5.835  17.866  0.00  0.00    +0.000 A 
ENDBRANCH   1  20
BRANCH   6  21
ATOM     21  C   UNL     1      -0.848  11.081  20.748  0.00  0.00    +0.000 C 
BRANCH  21  22
ATOM     22  C   UNL     1      -0.184  12.444  21.063  0.00  0.00    +0.000 C 
BRANCH  22  23
ATOM     23  N   UNL     1      -0.325  12.905  22.461  0.00  0.00    +0.000 NA
ATOM     24  C   UNL     1      -0.296  14.385  22.594  0.00  0.00    +0.000 C 
ATOM     25  C   UNL     1      -1.477  15.118  21.927  0.00  0.00    +0.000 C 
ATOM     26  N   UNL     1      -2.746  14.631  22.478  0.00  0.00    +0.000 N 
ATOM     27  C   UNL     1      -2.913  13.168  22.489  0.00  0.00    +0.000 C 
ATOM     28  C   UNL     1      -1.635  12.456  23.026  0.00  0.00    +0.000 C 
BRANCH  26  29
ATOM     29  C   UNL     1      -3.636  15.496  23.104  0.00  0.00    +0.000 A 
ATOM     30  C   UNL     1      -4.749  15.984  22.385  0.00  0.00    +0.000 A 
ATOM     31  C   UNL     1      -5.711  16.823  22.953  0.00  0.00    +0.000 A 
ATOM     32  C   UNL     1      -5.582  17.230  24.272  0.00  0.00    +0.000 A 
ATOM     33  C   UNL     1      -4.491  16.788  25.015  0.00  0.00    +0.000 A 
ATOM     34  C   UNL     1      -3.536  15.927  24.448  0.00  0.00    +0.000 A 
ATOM     35 CL   UNL     1      -2.315  15.350  25.540  0.00  0.00    +0.000 Cl
ENDBRANCH  26  29
ENDBRANCH  22  23
ENDBRANCH  21  22
ENDBRANCH   6  21
TORSDOF 5
ENDMDL
MODEL 6
REMARK VINA RESULT:      -8.4      3.184      4.301
REMARK  Name = 
REMARK  6 active torsions:
REMARK  status: ('A' for Active; 'I' for Inactive)
REMARK    1  A    between atoms: C_1  and  C_2
REMARK    2  A    between atoms: C_7  and  C_8
REMARK    3  A    between atoms: N_13  and  C_14
REMARK    4  A    between atoms: C_14  and  C_15
REMARK    5  A    between atoms: C_15  and  N_16
REMARK    6  A    between atoms: N_19  and  C_20
REMARK                            x       y       z     vdW  Elec       q    Type
REMARK                         _______ _______ _______ _____ _____    ______ ____
ROOT
ATOM      1  C   UNL     1       2.951   6.907  18.454  0.00  0.00    +0.000 A 
ATOM      2  C   UNL     1       2.243   8.031  18.046  0.00  0.00    +0.000 A 
ATOM      3  C   UNL     1       1.585   8.578  19.174  0.00  0.00    +0.000 A 
ATOM      4  C   UNL     1       0.669   9.676  19.299  0.00  0.00    +0.000 A 
ATOM      5  O   UNL     1       0.379  10.379  18.336  0.00  0.00    +0.000 OA
ATOM      6  N   UNL     1       0.149   9.868  20.578  0.00  0.00    +0.000 N 
ATOM      7  C   UNL     1       0.515   9.136  21.690  0.00  0.00    +0.000 A 
ATOM      8  O   UNL     1       0.178   9.309  22.848  0.00  0.00    +0.000 OA
ATOM      9  N   UNL     1       1.445   8.071  21.486  0.00  0.00    +0.000 N 
ATOM     10  C   UNL     1       1.942   7.819  20.241  0.00  0.00    +0.000 A 
ATOM     11  N   UNL     1       2.807   6.846  19.833  0.00  0.00    +0.000 N 
ATOM     12  H   UNL     1       1.702   7.532  22.298  0.00  0.00    +0.000 HD
ATOM     13  H   UNL     1       3.238   6.147  20.421  0.00  0.00    +0.000 HD
ENDROOT
BRANCH   1  20
ATOM     14  C   UNL     1       1.846   4.085  17.983  0.00  0.00    +0.000 C 
ATOM     15  C   UNL     1       3.179   4.568  17.473  0.00  0.00    +0.000 A 
ATOM     16  C   UNL     1       3.972   3.640  16.769  0.00  0.00    +0.000 A 
ATOM     17  C   UNL     1       5.222   3.989  16.266  0.00  0.00    +0.000 A 
ATOM     18  C   UNL     1       5.709   5.272  16.465  0.00  0.00    +0.000 A 
ATOM     19  C   UNL     1       4.943   6.201  17.170  0.00  0.00    +0.000 A 
ATOM     20  C   UNL     1       3.670   5.876  17.684  0.00  0.00    +0.000 A 
ENDBRANCH   1  20
BRANCH   6  21
ATOM     21  C   UNL     1      -0.832  10.934  20.732  0.00  0.00    +0.000 C 
BRANCH  21  22
ATOM     22  C   UNL     1      -0.194  12.296  21.099  0.00  0.00    +0.000 C 
BRANCH  22  23
ATOM     23  N   UNL     1      -0.395  12.730  22.499  0.00  0.00    +0.000 NA
ATOM     24  C   UNL     1      -0.434  14.208  22.653  0.00  0.00    +0.000 C 
ATOM     25  C   UNL     1      -1.627  14.899  21.960  0.00  0.00    +0.000 C 
ATOM     26  N   UNL     1      -2.888  14.350  22.468  0.00  0.00    +0.000 N 
ATOM     27  C   UNL     1      -2.991  12.881  22.453  0.00  0.00    +0.000 C 
ATOM     28  C   UNL     1      -1.700  12.216  23.019  0.00  0.00    +0.000 C 
BRANCH  26  29
ATOM     29  C   UNL     1      -3.833  15.165  23.078  0.00  0.00    +0.000 A 
ATOM     30  C   UNL     1      -3.508  15.813  24.290  0.00  0.00    +0.000 A 
ATOM     31  C   UNL     1      -4.387  16.681  24.946  0.00  0.00    +0.000 A 
ATOM     32  C   UNL     1      -5.647  16.916  24.420  0.00  0.00    +0.000 A 
ATOM     33  C   UNL     1      -6.018  16.285  23.236  0.00  0.00    +0.000 A 
ATOM     34  C   UNL     1      -5.126  15.430  22.567  0.00  0.00    +0.000 A 
ATOM     35 CL   UNL     1      -5.679  14.832  21.034  0.00  0.00    +0.000 Cl
ENDBRANCH  26  29
ENDBRANCH  22  23
ENDBRANCH  21  22
ENDBRANCH   6  21
TORSDOF 5
ENDMDL
MODEL 7
REMARK VINA RESULT:      -8.3      3.624      5.164
REMARK  Name = 
REMARK  6 active torsions:
REMARK  status: ('A' for Active; 'I' for Inactive)
REMARK    1  A    between atoms: C_1  and  C_2
REMARK    2  A    between atoms: C_7  and  C_8
REMARK    3  A    between atoms: N_13  and  C_14
REMARK    4  A    between atoms: C_14  and  C_15
REMARK    5  A    between atoms: C_15  and  N_16
REMARK    6  A    between atoms: N_19  and  C_20
REMARK                            x       y       z     vdW  Elec       q    Type
REMARK                         _______ _______ _______ _____ _____    ______ ____
ROOT
ATOM      1  C   UNL     1       2.384   6.101  19.178  0.00  0.00    +0.000 A 
ATOM      2  C   UNL     1       2.136   7.269  18.469  0.00  0.00    +0.000 A 
ATOM      3  C   UNL     1       1.741   8.273  19.385  0.00  0.00    +0.000 A 
ATOM      4  C   UNL     1       1.298   9.623  19.183  0.00  0.00    +0.000 A 
ATOM      5  O   UNL     1       1.275  10.127  18.065  0.00  0.00    +0.000 OA
ATOM      6  N   UNL     1       0.901  10.294  20.338  0.00  0.00    +0.000 N 
ATOM      7  C   UNL     1       0.986   9.773  21.614  0.00  0.00    +0.000 A 
ATOM      8  O   UNL     1       0.752  10.332  22.671  0.00  0.00    +0.000 OA
ATOM      9  N   UNL     1       1.455   8.428  21.734  0.00  0.00    +0.000 N 
ATOM     10  C   UNL     1       1.807   7.719  20.624  0.00  0.00    +0.000 A 
ATOM     11  N   UNL     1       2.246   6.432  20.519  0.00  0.00    +0.000 N 
ATOM     12  H   UNL     1       1.505   8.047  22.666  0.00  0.00    +0.000 HD
ATOM     13  H   UNL     1       2.396   5.789  21.284  0.00  0.00    +0.000 HD
ENDROOT
BRANCH   1  20
ATOM     14  C   UNL     1       0.741   3.671  20.074  0.00  0.00    +0.000 C 
ATOM     15  C   UNL     1       1.922   3.597  19.142  0.00  0.00    +0.000 A 
ATOM     16  C   UNL     1       2.306   2.317  18.692  0.00  0.00    +0.000 A 
ATOM     17  C   UNL     1       3.389   2.145  17.836  0.00  0.00    +0.000 A 
ATOM     18  C   UNL     1       4.117   3.249  17.419  0.00  0.00    +0.000 A 
ATOM     19  C   UNL     1       3.759   4.521  17.863  0.00  0.00    +0.000 A 
ATOM     20  C   UNL     1       2.662   4.726  18.724  0.00  0.00    +0.000 A 
ENDBRANCH   1  20
BRANCH   6  21
ATOM     21  C   UNL     1       0.385  11.646  20.166  0.00  0.00    +0.000 C 
BRANCH  21  22
ATOM     22  C   UNL     1      -1.053  11.819  20.713  0.00  0.00    +0.000 C 
BRANCH  22  23
ATOM     23  N   UNL     1      -1.318  13.106  21.392  0.00  0.00    +0.000 NA
ATOM     24  C   UNL     1      -2.365  13.918  20.719  0.00  0.00    +0.000 C 
ATOM     25  C   UNL     1      -3.774  13.290  20.725  0.00  0.00    +0.000 C 
ATOM     26  N   UNL     1      -4.204  13.037  22.104  0.00  0.00    +0.000 N 
ATOM     27  C   UNL     1      -3.244  12.298  22.942  0.00  0.00    +0.000 C 
ATOM     28  C   UNL     1      -1.801  12.866  22.787  0.00  0.00    +0.000 C 
BRANCH  26  29
ATOM     29  C   UNL     1      -5.359  13.616  22.615  0.00  0.00    +0.000 A 
ATOM     30  C   UNL     1      -5.264  14.818  23.350  0.00  0.00    +0.000 A 
ATOM     31  C   UNL     1      -6.382  15.485  23.862  0.00  0.00    +0.000 A 
ATOM     32  C   UNL     1      -7.648  14.955  23.675  0.00  0.00    +0.000 A 
ATOM     33  C   UNL     1      -7.790  13.763  22.972  0.00  0.00    +0.000 A 
ATOM     34  C   UNL     1      -6.667  13.105  22.439  0.00  0.00    +0.000 A 
ATOM     35 CL   UNL     1      -7.016  11.708  21.468  0.00  0.00    +0.000 Cl
ENDBRANCH  26  29
ENDBRANCH  22  23
ENDBRANCH  21  22
ENDBRANCH   6  21
TORSDOF 5
ENDMDL
MODEL 8
REMARK VINA RESULT:      -8.2      3.303      4.921
REMARK  Name = 
REMARK  6 active torsions:
REMARK  status: ('A' for Active; 'I' for Inactive)
REMARK    1  A    between atoms: C_1  and  C_2
REMARK    2  A    between atoms: C_7  and  C_8
REMARK    3  A    between atoms: N_13  and  C_14
REMARK    4  A    between atoms: C_14  and  C_15
REMARK    5  A    between atoms: C_15  and  N_16
REMARK    6  A    between atoms: N_19  and  C_20
REMARK                            x       y       z     vdW  Elec       q    Type
REMARK                         _______ _______ _______ _____ _____    ______ ____
ROOT
ATOM      1  C   UNL     1       2.723   7.071  18.630  0.00  0.00    +0.000 A 
ATOM      2  C   UNL     1       2.064   8.231  18.243  0.00  0.00    +0.000 A 
ATOM      3  C   UNL     1       1.423   8.781  19.379  0.00  0.00    +0.000 A 
ATOM      4  C   UNL     1       0.553   9.913  19.523  0.00  0.00    +0.000 A 
ATOM      5  O   UNL     1       0.297  10.648  18.575  0.00  0.00    +0.000 OA
ATOM      6  N   UNL     1       0.033  10.099  20.803  0.00  0.00    +0.000 N 
ATOM      7  C   UNL     1       0.362   9.329  21.901  0.00  0.00    +0.000 A 
ATOM      8  O   UNL     1       0.025   9.491  23.061  0.00  0.00    +0.000 OA
ATOM      9  N   UNL     1       1.249   8.231  21.679  0.00  0.00    +0.000 N 
ATOM     10  C   UNL     1       1.742   7.985  20.432  0.00  0.00    +0.000 A 
ATOM     11  N   UNL     1       2.569   6.986  20.007  0.00  0.00    +0.000 N 
ATOM     12  H   UNL     1       1.478   7.664  22.481  0.00  0.00    +0.000 HD
ATOM     13  H   UNL     1       2.967   6.257  20.582  0.00  0.00    +0.000 HD
ENDROOT
BRANCH   1  20
ATOM     14  C   UNL     1       1.613   4.232  18.285  0.00  0.00    +0.000 C 
ATOM     15  C   UNL     1       2.910   4.712  17.688  0.00  0.00    +0.000 A 
ATOM     16  C   UNL     1       3.668   3.774  16.959  0.00  0.00    +0.000 A 
ATOM     17  C   UNL     1       4.884   4.119  16.376  0.00  0.00    +0.000 A 
ATOM     18  C   UNL     1       5.372   5.409  16.519  0.00  0.00    +0.000 A 
ATOM     19  C   UNL     1       4.641   6.348  17.247  0.00  0.00    +0.000 A 
ATOM     20  C   UNL     1       3.403   6.028  17.841  0.00  0.00    +0.000 A 
ENDBRANCH   1  20
BRANCH   6  21
ATOM     21  C   UNL     1      -0.904  11.201  20.976  0.00  0.00    +0.000 C 
BRANCH  21  22
ATOM     22  C   UNL     1      -0.322  12.366  21.814  0.00  0.00    +0.000 C 
BRANCH  22  23
ATOM     23  N   UNL     1      -1.014  13.663  21.657  0.00  0.00    +0.000 NA
ATOM     24  C   UNL     1      -2.295  13.555  20.910  0.00  0.00    +0.000 C 
ATOM     25  C   UNL     1      -3.388  12.726  21.615  0.00  0.00    +0.000 C 
ATOM     26  N   UNL     1      -3.672  13.293  22.937  0.00  0.00    +0.000 N 
ATOM     27  C   UNL     1      -2.497  13.534  23.791  0.00  0.00    +0.000 C 
ATOM     28  C   UNL     1      -1.354  14.236  22.996  0.00  0.00    +0.000 C 
BRANCH  26  29
ATOM     29  C   UNL     1      -4.948  13.731  23.271  0.00  0.00    +0.000 A 
ATOM     30  C   UNL     1      -5.887  12.806  23.778  0.00  0.00    +0.000 A 
ATOM     31  C   UNL     1      -7.176  13.173  24.175  0.00  0.00    +0.000 A 
ATOM     32  C   UNL     1      -7.587  14.492  24.057  0.00  0.00    +0.000 A 
ATOM     33  C   UNL     1      -6.701  15.436  23.546  0.00  0.00    +0.000 A 
ATOM     34  C   UNL     1      -5.398  15.069  23.167  0.00  0.00    +0.000 A 
ATOM     35 CL   UNL     1      -4.368  16.380  22.684  0.00  0.00    +0.000 Cl
ENDBRANCH  26  29
ENDBRANCH  22  23
ENDBRANCH  21  22
ENDBRANCH   6  21
TORSDOF 5
ENDMDL
MODEL 9
REMARK VINA RESULT:      -8.1      1.977      2.582
REMARK  Name = 
REMARK  6 active torsions:
REMARK  status: ('A' for Active; 'I' for Inactive)
REMARK    1  A    between atoms: C_1  and  C_2
REMARK    2  A    between atoms: C_7  and  C_8
REMARK    3  A    between atoms: N_13  and  C_14
REMARK    4  A    between atoms: C_14  and  C_15
REMARK    5  A    between atoms: C_15  and  N_16
REMARK    6  A    between atoms: N_19  and  C_20
REMARK                            x       y       z     vdW  Elec       q    Type
REMARK                         _______ _______ _______ _____ _____    ______ ____
ROOT
ATOM      1  C   UNL     1       2.621   7.062  18.696  0.00  0.00    +0.000 A 
ATOM      2  C   UNL     1       1.964   8.208  18.267  0.00  0.00    +0.000 A 
ATOM      3  C   UNL     1       1.434   8.870  19.400  0.00  0.00    +0.000 A 
ATOM      4  C   UNL     1       0.610  10.039  19.518  0.00  0.00    +0.000 A 
ATOM      5  O   UNL     1       0.296  10.701  18.534  0.00  0.00    +0.000 OA
ATOM      6  N   UNL     1       0.203  10.347  20.815  0.00  0.00    +0.000 N 
ATOM      7  C   UNL     1       0.602   9.659  21.944  0.00  0.00    +0.000 A 
ATOM      8  O   UNL     1       0.367   9.927  23.109  0.00  0.00    +0.000 OA
ATOM      9  N   UNL     1       1.437   8.517  21.745  0.00  0.00    +0.000 N 
ATOM     10  C   UNL     1       1.819   8.153  20.487  0.00  0.00    +0.000 A 
ATOM     11  N   UNL     1       2.580   7.096  20.083  0.00  0.00    +0.000 N 
ATOM     12  H   UNL     1       1.718   8.011  22.570  0.00  0.00    +0.000 HD
ATOM     13  H   UNL     1       3.005   6.403  20.684  0.00  0.00    +0.000 HD
ENDROOT
BRANCH   1  20
ATOM     14  C   UNL     1       1.420   4.239  18.696  0.00  0.00    +0.000 C 
ATOM     15  C   UNL     1       2.671   4.627  17.951  0.00  0.00    +0.000 A 
ATOM     16  C   UNL     1       3.340   3.607  17.244  0.00  0.00    +0.000 A 
ATOM     17  C   UNL     1       4.508   3.865  16.532  0.00  0.00    +0.000 A 
ATOM     18  C   UNL     1       5.036   5.147  16.520  0.00  0.00    +0.000 A 
ATOM     19  C   UNL     1       4.394   6.166  17.223  0.00  0.00    +0.000 A 
ATOM     20  C   UNL     1       3.206   5.935  17.946  0.00  0.00    +0.000 A 
ENDBRANCH   1  20
BRANCH   6  21
ATOM     21  C   UNL     1      -0.687  11.490  20.968  0.00  0.00    +0.000 C 
BRANCH  21  22
ATOM     22  C   UNL     1       0.007  12.714  21.616  0.00  0.00    +0.000 C 
BRANCH  22  23
ATOM     23  N   UNL     1       0.121  13.906  20.748  0.00  0.00    +0.000 NA
ATOM     24  C   UNL     1       0.799  15.050  21.413  0.00  0.00    +0.000 C 
ATOM     25  C   UNL     1       2.280  14.806  21.769  0.00  0.00    +0.000 C 
ATOM     26  N   UNL     1       3.036  14.462  20.560  0.00  0.00    +0.000 N 
ATOM     27  C   UNL     1       2.461  13.384  19.738  0.00  0.00    +0.000 C 
ATOM     28  C   UNL     1       0.929  13.585  19.531  0.00  0.00    +0.000 C 
BRANCH  26  29
ATOM     29  C   UNL     1       4.118  15.229  20.146  0.00  0.00    +0.000 A 
ATOM     30  C   UNL     1       5.410  14.919  20.623  0.00  0.00    +0.000 A 
ATOM     31  C   UNL     1       6.555  15.616  20.224  0.00  0.00    +0.000 A 
ATOM     32  C   UNL     1       6.444  16.678  19.340  0.00  0.00    +0.000 A 
ATOM     33  C   UNL     1       5.188  17.032  18.857  0.00  0.00    +0.000 A 
ATOM     34  C   UNL     1       4.041  16.316  19.243  0.00  0.00    +0.000 A 
ATOM     35 CL   UNL     1       2.570  16.785  18.448  0.00  0.00    +0.000 Cl
ENDBRANCH  26  29
ENDBRANCH  22  23
ENDBRANCH  21  22
ENDBRANCH   6  21
TORSDOF 5
ENDMDL
