MODEL 1
REMARK VINA RESULT:      -7.9      0.000      0.000
REMARK  Name = 
REMARK  2 active torsions:
REMARK  status: ('A' for Active; 'I' for Inactive)
REMARK    1  A    between atoms: C_3  and  N_4
REMARK    2  A    between atoms: N_4  and  C_5
REMARK                            x       y       z     vdW  Elec       q    Type
REMARK                         _______ _______ _______ _____ _____    ______ ____
ROOT
ATOM      1  N   UNL     1       4.913   3.245  18.186  0.00  0.00    +0.000 N 
ATOM      2  H   UNL     1       5.250   2.292  18.054  0.00  0.00    +0.000 HD
ENDROOT
BRANCH   1   5
ATOM      3  C   UNL     1       1.372   4.051  17.383  0.00  0.00    +0.000 A 
ATOM      4  C   UNL     1       2.737   3.845  17.251  0.00  0.00    +0.000 A 
ATOM      5  C   UNL     1       3.503   3.353  18.323  0.00  0.00    +0.000 A 
ATOM      6  C   UNL     1       2.877   3.029  19.547  0.00  0.00    +0.000 A 
ATOM      7  N   UNL     1       3.577   2.536  20.599  0.00  0.00    +0.000 NA
ATOM      8  C   UNL     1       2.889   2.305  21.739  0.00  0.00    +0.000 A 
ATOM      9  C   UNL     1       1.536   2.542  21.844  0.00  0.00    +0.000 A 
ATOM     10  N   UNL     1       0.809   3.017  20.815  0.00  0.00    +0.000 NA
ATOM     11  C   UNL     1       1.480   3.261  19.675  0.00  0.00    +0.000 A 
ATOM     12  C   UNL     1       0.760   3.766  18.597  0.00  0.00    +0.000 A 
ENDBRANCH   1   5
BRANCH   1  13
ATOM     13  C   UNL     1       5.857   4.253  17.856  0.00  0.00    +0.000 A 
ATOM     14  C   UNL     1       6.338   5.110  18.862  0.00  0.00    +0.000 A 
ATOM     15  C   UNL     1       7.192   6.159  18.557  0.00  0.00    +0.000 A 
ATOM     16  C   UNL     1       7.580   6.352  17.237  0.00  0.00    +0.000 A 
ATOM     17  C   UNL     1       7.155   5.503  16.224  0.00  0.00    +0.000 A 
ATOM     18  N   UNL     1       7.590   5.739  14.972  0.00  0.00    +0.000 NA
ATOM     19  C   UNL     1       7.163   4.889  14.017  0.00  0.00    +0.000 A 
ATOM     20  C   UNL     1       6.319   3.834  14.296  0.00  0.00    +0.000 A 
ATOM     21  N   UNL     1       5.859   3.587  15.542  0.00  0.00    +0.000 NA
ATOM     22  C   UNL     1       6.279   4.423  16.526  0.00  0.00    +0.000 A 
ENDBRANCH   1  13
TORSDOF 2
ENDMDL
MODEL 2
REMARK VINA RESULT:      -7.9      0.048      6.741
REMARK  Name = 
REMARK  2 active torsions:
REMARK  status: ('A' for Active; 'I' for Inactive)
REMARK    1  A    between atoms: C_3  and  N_4
REMARK    2  A    between atoms: N_4  and  C_5
REMARK                            x       y       z     vdW  Elec       q    Type
REMARK                         _______ _______ _______ _____ _____    ______ ____
ROOT
ATOM      1  N   UNL     1       4.939   3.277  18.265  0.00  0.00    +0.000 N 
ATOM      2  H   UNL     1       5.339   2.476  18.753  0.00  0.00    +0.000 HD
ENDROOT
BRANCH   1   5
ATOM      3  C   UNL     1       7.211   6.207  18.547  0.00  0.00    +0.000 A 
ATOM      4  C   UNL     1       6.361   5.165  18.883  0.00  0.00    +0.000 A 
ATOM      5  C   UNL     1       5.884   4.275  17.905  0.00  0.00    +0.000 A 
ATOM      6  C   UNL     1       6.298   4.415  16.561  0.00  0.00    +0.000 A 
ATOM      7  N   UNL     1       5.875   3.566  15.591  0.00  0.00    +0.000 NA
ATOM      8  C   UNL     1       6.293   3.819  14.331  0.00  0.00    +0.000 A 
ATOM      9  C   UNL     1       7.120   4.878  14.027  0.00  0.00    +0.000 A 
ATOM     10  N   UNL     1       7.570   5.729  14.968  0.00  0.00    +0.000 NA
ATOM     11  C   UNL     1       7.156   5.498  16.227  0.00  0.00    +0.000 A 
ATOM     12  C   UNL     1       7.592   6.369  17.220  0.00  0.00    +0.000 A 
ENDBRANCH   1   5
BRANCH   1  13
ATOM     13  C   UNL     1       3.527   3.383  18.369  0.00  0.00    +0.000 A 
ATOM     14  C   UNL     1       2.782   3.845  17.269  0.00  0.00    +0.000 A 
ATOM     15  C   UNL     1       1.413   4.044  17.368  0.00  0.00    +0.000 A 
ATOM     16  C   UNL     1       0.775   3.768  18.571  0.00  0.00    +0.000 A 
ATOM     17  C   UNL     1       1.473   3.274  19.666  0.00  0.00    +0.000 A 
ATOM     18  N   UNL     1       0.784   3.010  20.792  0.00  0.00    +0.000 NA
ATOM     19  C   UNL     1       1.493   2.524  21.830  0.00  0.00    +0.000 A 
ATOM     20  C   UNL     1       2.854   2.312  21.755  0.00  0.00    +0.000 A 
ATOM     21  N   UNL     1       3.567   2.583  20.641  0.00  0.00    +0.000 NA
ATOM     22  C   UNL     1       2.877   3.067  19.576  0.00  0.00    +0.000 A 
ENDBRANCH   1  13
TORSDOF 2
ENDMDL
MODEL 3
REMARK VINA RESULT:      -7.9      4.526      5.902
REMARK  Name = 
REMARK  2 active torsions:
REMARK  status: ('A' for Active; 'I' for Inactive)
REMARK    1  A    between atoms: C_3  and  N_4
REMARK    2  A    between atoms: N_4  and  C_5
REMARK                            x       y       z     vdW  Elec       q    Type
REMARK                         _______ _______ _______ _____ _____    ______ ____
ROOT
ATOM      1  N   UNL     1       2.553   6.838  20.194  0.00  0.00    +0.000 N 
ATOM      2  H   UNL     1       3.077   6.978  21.057  0.00  0.00    +0.000 HD
ENDROOT
BRANCH   1   5
ATOM      3  C   UNL     1       1.544   9.560  17.869  0.00  0.00    +0.000 A 
ATOM      4  C   UNL     1       2.079   8.378  18.357  0.00  0.00    +0.000 A 
ATOM      5  C   UNL     1       1.911   8.008  19.703  0.00  0.00    +0.000 A 
ATOM      6  C   UNL     1       1.160   8.829  20.572  0.00  0.00    +0.000 A 
ATOM      7  N   UNL     1       0.961   8.498  21.873  0.00  0.00    +0.000 NA
ATOM      8  C   UNL     1       0.268   9.379  22.629  0.00  0.00    +0.000 A 
ATOM      9  C   UNL     1      -0.230  10.557  22.119  0.00  0.00    +0.000 A 
ATOM     10  N   UNL     1      -0.063  10.908  20.830  0.00  0.00    +0.000 NA
ATOM     11  C   UNL     1       0.632  10.047  20.064  0.00  0.00    +0.000 A 
ATOM     12  C   UNL     1       0.835  10.388  18.731  0.00  0.00    +0.000 A 
ENDBRANCH   1   5
BRANCH   1  13
ATOM     13  C   UNL     1       2.291   5.479  19.880  0.00  0.00    +0.000 A 
ATOM     14  C   UNL     1       1.292   4.783  20.584  0.00  0.00    +0.000 A 
ATOM     15  C   UNL     1       1.073   3.431  20.362  0.00  0.00    +0.000 A 
ATOM     16  C   UNL     1       1.849   2.767  19.421  0.00  0.00    +0.000 A 
ATOM     17  C   UNL     1       2.819   3.431  18.681  0.00  0.00    +0.000 A 
ATOM     18  N   UNL     1       3.518   2.726  17.771  0.00  0.00    +0.000 NA
ATOM     19  C   UNL     1       4.444   3.406  17.065  0.00  0.00    +0.000 A 
ATOM     20  C   UNL     1       4.675   4.751  17.263  0.00  0.00    +0.000 A 
ATOM     21  N   UNL     1       3.997   5.474  18.180  0.00  0.00    +0.000 NA
ATOM     22  C   UNL     1       3.052   4.817  18.900  0.00  0.00    +0.000 A 
ENDBRANCH   1  13
TORSDOF 2
ENDMDL
MODEL 4
REMARK VINA RESULT:      -7.9      4.540      6.796
REMARK  Name = 
REMARK  2 active torsions:
REMARK  status: ('A' for Active; 'I' for Inactive)
REMARK    1  A    between atoms: C_3  and  N_4
REMARK    2  A    between atoms: N_4  and  C_5
REMARK                            x       y       z     vdW  Elec       q    Type
REMARK                         _______ _______ _______ _____ _____    ______ ____
ROOT
ATOM      1  N   UNL     1       2.516   6.855  20.205  0.00  0.00    +0.000 N 
ATOM      2  H   UNL     1       3.422   7.015  20.645  0.00  0.00    +0.000 HD
ENDROOT
BRANCH   1   5
ATOM      3  C   UNL     1       1.070   3.432  20.338  0.00  0.00    +0.000 A 
ATOM      4  C   UNL     1       1.281   4.781  20.578  0.00  0.00    +0.000 A 
ATOM      5  C   UNL     1       2.259   5.499  19.868  0.00  0.00    +0.000 A 
ATOM      6  C   UNL     1       3.023   4.854  18.870  0.00  0.00    +0.000 A 
ATOM      7  N   UNL     1       3.964   5.516  18.151  0.00  0.00    +0.000 NA
ATOM      8  C   UNL     1       4.670   4.793  17.254  0.00  0.00    +0.000 A 
ATOM      9  C   UNL     1       4.452   3.447  17.056  0.00  0.00    +0.000 A 
ATOM     10  N   UNL     1       3.516   2.764  17.742  0.00  0.00    +0.000 NA
ATOM     11  C   UNL     1       2.809   3.467  18.646  0.00  0.00    +0.000 A 
ATOM     12  C   UNL     1       1.844   2.786  19.381  0.00  0.00    +0.000 A 
ENDBRANCH   1   5
BRANCH   1  13
ATOM     13  C   UNL     1       1.886   8.030  19.717  0.00  0.00    +0.000 A 
ATOM     14  C   UNL     1       2.032   8.386  18.364  0.00  0.00    +0.000 A 
ATOM     15  C   UNL     1       1.504   9.572  17.878  0.00  0.00    +0.000 A 
ATOM     16  C   UNL     1       0.812  10.409  18.744  0.00  0.00    +0.000 A 
ATOM     17  C   UNL     1       0.616  10.072  20.077  0.00  0.00    +0.000 A 
ATOM     18  N   UNL     1      -0.083  10.923  20.851  0.00  0.00    +0.000 NA
ATOM     19  C   UNL     1      -0.261  10.558  22.137  0.00  0.00    +0.000 A 
ATOM     20  C   UNL     1       0.249   9.380  22.643  0.00  0.00    +0.000 A 
ATOM     21  N   UNL     1       0.966   8.519  21.888  0.00  0.00    +0.000 NA
ATOM     22  C   UNL     1       1.154   8.858  20.587  0.00  0.00    +0.000 A 
ENDBRANCH   1  13
TORSDOF 2
ENDMDL
MODEL 5
REMARK VINA RESULT:      -7.6      4.339      5.878
REMARK  Name = 
REMARK  2 active torsions:
REMARK  status: ('A' for Active; 'I' for Inactive)
REMARK    1  A    between atoms: C_3  and  N_4
REMARK    2  A    between atoms: N_4  and  C_5
REMARK                            x       y       z     vdW  Elec       q    Type
REMARK                         _______ _______ _______ _____ _____    ______ ____
ROOT
ATOM      1  N   UNL     1       2.650   6.515  20.286  0.00  0.00    +0.000 N 
ATOM      2  H   UNL     1       2.338   6.344  21.241  0.00  0.00    +0.000 HD
ENDROOT
BRANCH   1   5
ATOM      3  C   UNL     1       1.768   9.024  17.686  0.00  0.00    +0.000 A 
ATOM      4  C   UNL     1       2.246   7.875  18.296  0.00  0.00    +0.000 A 
ATOM      5  C   UNL     1       2.065   7.657  19.673  0.00  0.00    +0.000 A 
ATOM      6  C   UNL     1       1.359   8.601  20.451  0.00  0.00    +0.000 A 
ATOM      7  N   UNL     1       1.149   8.419  21.779  0.00  0.00    +0.000 NA
ATOM      8  C   UNL     1       0.504   9.407  22.437  0.00  0.00    +0.000 A 
ATOM      9  C   UNL     1       0.062  10.549  21.805  0.00  0.00    +0.000 A 
ATOM     10  N   UNL     1       0.241  10.754  20.487  0.00  0.00    +0.000 NA
ATOM     11  C   UNL     1       0.890   9.784  19.817  0.00  0.00    +0.000 A 
ATOM     12  C   UNL     1       1.105   9.972  18.456  0.00  0.00    +0.000 A 
ENDBRANCH   1   5
BRANCH   1  13
ATOM     13  C   UNL     1       3.303   5.412  19.675  0.00  0.00    +0.000 A 
ATOM     14  C   UNL     1       4.664   5.510  19.337  0.00  0.00    +0.000 A 
ATOM     15  C   UNL     1       5.307   4.485  18.660  0.00  0.00    +0.000 A 
ATOM     16  C   UNL     1       4.590   3.343  18.326  0.00  0.00    +0.000 A 
ATOM     17  C   UNL     1       3.255   3.195  18.678  0.00  0.00    +0.000 A 
ATOM     18  N   UNL     1       2.631   2.051  18.339  0.00  0.00    +0.000 NA
ATOM     19  C   UNL     1       1.338   1.941  18.705  0.00  0.00    +0.000 A 
ATOM     20  C   UNL     1       0.678   2.944  19.384  0.00  0.00    +0.000 A 
ATOM     21  N   UNL     1       1.280   4.105  19.721  0.00  0.00    +0.000 NA
ATOM     22  C   UNL     1       2.585   4.241  19.372  0.00  0.00    +0.000 A 
ENDBRANCH   1  13
TORSDOF 2
ENDMDL
MODEL 6
REMARK VINA RESULT:      -7.5      1.679      2.458
REMARK  Name = 
REMARK  2 active torsions:
REMARK  status: ('A' for Active; 'I' for Inactive)
REMARK    1  A    between atoms: C_3  and  N_4
REMARK    2  A    between atoms: N_4  and  C_5
REMARK                            x       y       z     vdW  Elec       q    Type
REMARK                         _______ _______ _______ _____ _____    ______ ____
ROOT
ATOM      1  N   UNL     1       4.861   3.458  18.557  0.00  0.00    +0.000 N 
ATOM      2  H   UNL     1       4.628   2.746  17.865  0.00  0.00    +0.000 HD
ENDROOT
BRANCH   1   5
ATOM      3  C   UNL     1       2.658   2.557  21.414  0.00  0.00    +0.000 A 
ATOM      4  C   UNL     1       3.644   2.491  20.442  0.00  0.00    +0.000 A 
ATOM      5  C   UNL     1       3.911   3.590  19.606  0.00  0.00    +0.000 A 
ATOM      6  C   UNL     1       3.192   4.794  19.771  0.00  0.00    +0.000 A 
ATOM      7  N   UNL     1       3.433   5.882  18.996  0.00  0.00    +0.000 NA
ATOM      8  C   UNL     1       2.655   6.967  19.206  0.00  0.00    +0.000 A 
ATOM      9  C   UNL     1       1.667   6.991  20.166  0.00  0.00    +0.000 A 
ATOM     10  N   UNL     1       1.413   5.936  20.961  0.00  0.00    +0.000 NA
ATOM     11  C   UNL     1       2.172   4.843  20.760  0.00  0.00    +0.000 A 
ATOM     12  C   UNL     1       1.925   3.729  21.556  0.00  0.00    +0.000 A 
ENDBRANCH   1   5
BRANCH   1  13
ATOM     13  C   UNL     1       5.863   4.374  18.140  0.00  0.00    +0.000 A 
ATOM     14  C   UNL     1       6.488   5.199  19.092  0.00  0.00    +0.000 A 
ATOM     15  C   UNL     1       7.405   6.165  18.705  0.00  0.00    +0.000 A 
ATOM     16  C   UNL     1       7.713   6.304  17.358  0.00  0.00    +0.000 A 
ATOM     17  C   UNL     1       7.143   5.482  16.395  0.00  0.00    +0.000 A 
ATOM     18  N   UNL     1       7.505   5.661  15.111  0.00  0.00    +0.000 NA
ATOM     19  C   UNL     1       6.938   4.839  14.206  0.00  0.00    +0.000 A 
ATOM     20  C   UNL     1       6.028   3.866  14.566  0.00  0.00    +0.000 A 
ATOM     21  N   UNL     1       5.639   3.678  15.845  0.00  0.00    +0.000 NA
ATOM     22  C   UNL     1       6.201   4.488  16.780  0.00  0.00    +0.000 A 
ENDBRANCH   1  13
TORSDOF 2
ENDMDL
MODEL 7
REMARK VINA RESULT:      -7.5      1.674      6.409
REMARK  Name = 
REMARK  2 active torsions:
REMARK  status: ('A' for Active; 'I' for Inactive)
REMARK    1  A    between atoms: C_3  and  N_4
REMARK    2  A    between atoms: N_4  and  C_5
REMARK                            x       y       z     vdW  Elec       q    Type
REMARK                         _______ _______ _______ _____ _____    ______ ____
ROOT
ATOM      1  N   UNL     1       4.910   3.422  18.613  0.00  0.00    +0.000 N 
ATOM      2  H   UNL     1       5.084   2.457  18.334  0.00  0.00    +0.000 HD
ENDROOT
BRANCH   1   5
ATOM      3  C   UNL     1       7.421   6.164  18.723  0.00  0.00    +0.000 A 
ATOM      4  C   UNL     1       6.518   5.191  19.122  0.00  0.00    +0.000 A 
ATOM      5  C   UNL     1       5.903   4.343  18.183  0.00  0.00    +0.000 A 
ATOM      6  C   UNL     1       6.230   4.454  16.813  0.00  0.00    +0.000 A 
ATOM      7  N   UNL     1       5.672   3.644  15.878  0.00  0.00    +0.000 NA
ATOM      8  C   UNL     1       6.018   3.866  14.591  0.00  0.00    +0.000 A 
ATOM      9  C   UNL     1       6.902   4.857  14.225  0.00  0.00    +0.000 A 
ATOM     10  N   UNL     1       7.484   5.668  15.128  0.00  0.00    +0.000 NA
ATOM     11  C   UNL     1       7.144   5.467  16.415  0.00  0.00    +0.000 A 
ATOM     12  C   UNL     1       7.717   6.298  17.372  0.00  0.00    +0.000 A 
ENDBRANCH   1   5
BRANCH   1  13
ATOM     13  C   UNL     1       3.939   3.572  19.637  0.00  0.00    +0.000 A 
ATOM     14  C   UNL     1       3.676   2.500  20.508  0.00  0.00    +0.000 A 
ATOM     15  C   UNL     1       2.672   2.584  21.461  0.00  0.00    +0.000 A 
ATOM     16  C   UNL     1       1.929   3.753  21.557  0.00  0.00    +0.000 A 
ATOM     17  C   UNL     1       2.185   4.846  20.739  0.00  0.00    +0.000 A 
ATOM     18  N   UNL     1       1.437   5.953  20.904  0.00  0.00    +0.000 NA
ATOM     19  C   UNL     1       1.721   6.996  20.098  0.00  0.00    +0.000 A 
ATOM     20  C   UNL     1       2.719   6.939  19.147  0.00  0.00    +0.000 A 
ATOM     21  N   UNL     1       3.472   5.834  18.955  0.00  0.00    +0.000 NA
ATOM     22  C   UNL     1       3.213   4.770  19.758  0.00  0.00    +0.000 A 
ENDBRANCH   1  13
TORSDOF 2
ENDMDL
MODEL 8
REMARK VINA RESULT:      -7.5      4.513      6.532
REMARK  Name = 
REMARK  2 active torsions:
REMARK  status: ('A' for Active; 'I' for Inactive)
REMARK    1  A    between atoms: C_3  and  N_4
REMARK    2  A    between atoms: N_4  and  C_5
REMARK                            x       y       z     vdW  Elec       q    Type
REMARK                         _______ _______ _______ _____ _____    ______ ____
ROOT
ATOM      1  N   UNL     1       2.647   6.837  19.880  0.00  0.00    +0.000 N 
ATOM      2  H   UNL     1       3.079   6.887  20.802  0.00  0.00    +0.000 HD
ENDROOT
BRANCH   1   5
ATOM      3  C   UNL     1       4.671   4.992  17.364  0.00  0.00    +0.000 A 
ATOM      4  C   UNL     1       4.239   5.978  18.237  0.00  0.00    +0.000 A 
ATOM      5  C   UNL     1       3.123   5.773  19.067  0.00  0.00    +0.000 A 
ATOM      6  C   UNL     1       2.444   4.534  19.043  0.00  0.00    +0.000 A 
ATOM      7  N   UNL     1       1.374   4.291  19.842  0.00  0.00    +0.000 NA
ATOM      8  C   UNL     1       0.769   3.090  19.705  0.00  0.00    +0.000 A 
ATOM      9  C   UNL     1       1.210   2.140  18.810  0.00  0.00    +0.000 A 
ATOM     10  N   UNL     1       2.277   2.344  18.015  0.00  0.00    +0.000 NA
ATOM     11  C   UNL     1       2.886   3.538  18.132  0.00  0.00    +0.000 A 
ATOM     12  C   UNL     1       3.983   3.785  17.313  0.00  0.00    +0.000 A 
ENDBRANCH   1   5
BRANCH   1  13
ATOM     13  C   UNL     1       1.954   8.014  19.492  0.00  0.00    +0.000 A 
ATOM     14  C   UNL     1       1.992   8.433  18.150  0.00  0.00    +0.000 A 
ATOM     15  C   UNL     1       1.400   9.624  17.757  0.00  0.00    +0.000 A 
ATOM     16  C   UNL     1       0.753  10.402  18.708  0.00  0.00    +0.000 A 
ATOM     17  C   UNL     1       0.663  10.002  20.035  0.00  0.00    +0.000 A 
ATOM     18  N   UNL     1       0.001  10.798  20.896  0.00  0.00    +0.000 NA
ATOM     19  C   UNL     1      -0.073  10.372  22.173  0.00  0.00    +0.000 A 
ATOM     20  C   UNL     1       0.502   9.188  22.587  0.00  0.00    +0.000 A 
ATOM     21  N   UNL     1       1.183   8.382  21.744  0.00  0.00    +0.000 NA
ATOM     22  C   UNL     1       1.267   8.782  20.449  0.00  0.00    +0.000 A 
ENDBRANCH   1  13
TORSDOF 2
ENDMDL
MODEL 9
REMARK VINA RESULT:      -7.3      4.414      5.396
REMARK  Name = 
REMARK  2 active torsions:
REMARK  status: ('A' for Active; 'I' for Inactive)
REMARK    1  A    between atoms: C_3  and  N_4
REMARK    2  A    between atoms: N_4  and  C_5
REMARK                            x       y       z     vdW  Elec       q    Type
REMARK                         _______ _______ _______ _____ _____    ______ ____
ROOT
ATOM      1  N   UNL     1       2.651   6.673  19.651  0.00  0.00    +0.000 N 
ATOM      2  H   UNL     1       2.829   6.532  20.645  0.00  0.00    +0.000 HD
ENDROOT
BRANCH   1   5
ATOM      3  C   UNL     1       1.748   9.731  17.736  0.00  0.00    +0.000 A 
ATOM      4  C   UNL     1       2.232   8.470  18.049  0.00  0.00    +0.000 A 
ATOM      5  C   UNL     1       2.060   7.926  19.334  0.00  0.00    +0.000 A 
ATOM      6  C   UNL     1       1.356   8.653  20.320  0.00  0.00    +0.000 A 
ATOM      7  N   UNL     1       1.154   8.156  21.566  0.00  0.00    +0.000 NA
ATOM      8  C   UNL     1       0.510   8.954  22.446  0.00  0.00    +0.000 A 
ATOM      9  C   UNL     1       0.062  10.212  22.110  0.00  0.00    +0.000 A 
ATOM     10  N   UNL     1       0.233  10.729  20.879  0.00  0.00    +0.000 NA
ATOM     11  C   UNL     1       0.880   9.952  19.991  0.00  0.00    +0.000 A 
ATOM     12  C   UNL     1       1.086  10.463  18.714  0.00  0.00    +0.000 A 
ENDBRANCH   1   5
BRANCH   1  13
ATOM     13  C   UNL     1       2.700   5.488  18.871  0.00  0.00    +0.000 A 
ATOM     14  C   UNL     1       1.612   4.596  18.894  0.00  0.00    +0.000 A 
ATOM     15  C   UNL     1       1.666   3.388  18.214  0.00  0.00    +0.000 A 
ATOM     16  C   UNL     1       2.809   3.069  17.493  0.00  0.00    +0.000 A 
ATOM     17  C   UNL     1       3.887   3.942  17.418  0.00  0.00    +0.000 A 
ATOM     18  N   UNL     1       4.953   3.573  16.682  0.00  0.00    +0.000 NA
ATOM     19  C   UNL     1       5.976   4.450  16.625  0.00  0.00    +0.000 A 
ATOM     20  C   UNL     1       5.944   5.660  17.287  0.00  0.00    +0.000 A 
ATOM     21  N   UNL     1       4.891   6.043  18.041  0.00  0.00    +0.000 NA
ATOM     22  C   UNL     1       3.843   5.183  18.111  0.00  0.00    +0.000 A 
ENDBRANCH   1  13
TORSDOF 2
ENDMDL
