MODEL 1
REMARK VINA RESULT:      -7.3      0.000      0.000
REMARK  Name = 
REMARK  8 active torsions:
REMARK  status: ('A' for Active; 'I' for Inactive)
REMARK    1  A    between atoms: C_1  and  O_2
REMARK    2  A    between atoms: O_2  and  C_3
REMARK    3  A    between atoms: C_3  and  C_4
REMARK    4  A    between atoms: C_4  and  N_5
REMARK    5  A    between atoms: C_6  and  C_8
REMARK    6  A    between atoms: C_13  and  C_15
REMARK    7  A    between atoms: C_20  and  O_21
REMARK    8  A    between atoms: O_21  and  C_22
REMARK                            x       y       z     vdW  Elec       q    Type
REMARK                         _______ _______ _______ _____ _____    ______ ____
ROOT
ATOM      1  C   UNL     1       0.036   9.434  19.012  0.00  0.00    +0.000 C 
ATOM      2  C   UNL     1      -0.261   9.662  20.504  0.00  0.00    +0.000 C 
ATOM      3  C   UNL     1       0.239   8.587  21.480  0.00  0.00    +0.000 C 
ATOM      4  C   UNL     1       1.709   8.182  21.373  0.00  0.00    +0.000 C 
ATOM      5  N   UNL     1       1.966   7.387  20.170  0.00  0.00    +0.000 N 
ATOM      6  C   UNL     1       2.134   5.993  20.300  0.00  0.00    +0.000 C 
ATOM      7  O   UNL     1       1.993   5.442  21.389  0.00  0.00    +0.000 OA
ATOM      8  C   UNL     1       2.180   8.121  18.938  0.00  0.00    +0.000 C 
ATOM      9  C   UNL     1       1.538   9.481  18.764  0.00  0.00    +0.000 C 
ENDROOT
BRANCH   6  10
ATOM     10  C   UNL     1       2.396   5.078  19.136  0.00  0.00    +0.000 A 
ATOM     11  C   UNL     1       1.260   4.616  18.444  0.00  0.00    +0.000 A 
ATOM     12  C   UNL     1       1.380   3.733  17.370  0.00  0.00    +0.000 A 
ATOM     13  C   UNL     1       2.645   3.345  16.987  0.00  0.00    +0.000 A 
ATOM     14  N   UNL     1       3.759   3.758  17.614  0.00  0.00    +0.000 NA
ATOM     15  C   UNL     1       3.619   4.565  18.703  0.00  0.00    +0.000 A 
BRANCH  15  16
ATOM     16  O   UNL     1       4.768   4.883  19.403  0.00  0.00    +0.000 OA
BRANCH  16  17
ATOM     17  C   UNL     1       5.773   5.593  18.803  0.00  0.00    +0.000 A 
ATOM     18  C   UNL     1       5.437   6.429  17.727  0.00  0.00    +0.000 A 
ATOM     19  C   UNL     1       6.409   7.265  17.177  0.00  0.00    +0.000 A 
ATOM     20  C   UNL     1       7.701   7.263  17.694  0.00  0.00    +0.000 A 
ATOM     21  C   UNL     1       8.030   6.429  18.763  0.00  0.00    +0.000 A 
ATOM     22  C   UNL     1       7.058   5.612  19.329  0.00  0.00    +0.000 A 
ENDBRANCH  16  17
ENDBRANCH  15  16
ENDBRANCH   6  10
BRANCH   1  24
ATOM     23  N   UNL     1      -1.468   9.981  17.179  0.00  0.00    +0.000 N 
ATOM     24  C   UNL     1      -0.657  10.501  18.158  0.00  0.00    +0.000 C 
ATOM     25  O   UNL     1      -0.512  11.709  18.324  0.00  0.00    +0.000 OA
ATOM     26  H   UNL     1      -1.333   9.019  16.895  0.00  0.00    +0.000 HD
BRANCH  23  27
ATOM     27  C   UNL     1      -2.212  10.828  16.265  0.00  0.00    +0.000 C 
BRANCH  27  28
ATOM     28  C   UNL     1      -3.711  10.530  16.285  0.00  0.00    +0.000 C 
BRANCH  28  30
ATOM     29  C   UNL     1      -3.234  10.165  14.007  0.00  0.00    +0.000 C 
ATOM     30  O   UNL     1      -4.059   9.796  15.105  0.00  0.00    +0.000 OA
ENDBRANCH  28  30
ENDBRANCH  27  28
ENDBRANCH  23  27
ENDBRANCH   1  24
TORSDOF 7
ENDMDL
MODEL 2
REMARK VINA RESULT:      -7.3      0.780      1.021
REMARK  Name = 
REMARK  8 active torsions:
REMARK  status: ('A' for Active; 'I' for Inactive)
REMARK    1  A    between atoms: C_1  and  O_2
REMARK    2  A    between atoms: O_2  and  C_3
REMARK    3  A    between atoms: C_3  and  C_4
REMARK    4  A    between atoms: C_4  and  N_5
REMARK    5  A    between atoms: C_6  and  C_8
REMARK    6  A    between atoms: C_13  and  C_15
REMARK    7  A    between atoms: C_20  and  O_21
REMARK    8  A    between atoms: O_21  and  C_22
REMARK                            x       y       z     vdW  Elec       q    Type
REMARK                         _______ _______ _______ _____ _____    ______ ____
ROOT
ATOM      1  C   UNL     1       0.010   9.357  19.071  0.00  0.00    +0.000 C 
ATOM      2  C   UNL     1      -0.255   9.572  20.570  0.00  0.00    +0.000 C 
ATOM      3  C   UNL     1       0.284   8.499  21.528  0.00  0.00    +0.000 C 
ATOM      4  C   UNL     1       1.757   8.117  21.384  0.00  0.00    +0.000 C 
ATOM      5  N   UNL     1       1.998   7.333  20.171  0.00  0.00    +0.000 N 
ATOM      6  C   UNL     1       2.190   5.941  20.289  0.00  0.00    +0.000 C 
ATOM      7  O   UNL     1       2.082   5.382  21.377  0.00  0.00    +0.000 OA
ATOM      8  C   UNL     1       2.172   8.077  18.939  0.00  0.00    +0.000 C 
ATOM      9  C   UNL     1       1.505   9.428  18.787  0.00  0.00    +0.000 C 
ENDROOT
BRANCH   6  10
ATOM     10  C   UNL     1       2.439   5.037  19.114  0.00  0.00    +0.000 A 
ATOM     11  C   UNL     1       1.295   4.582  18.430  0.00  0.00    +0.000 A 
ATOM     12  C   UNL     1       1.402   3.708  17.347  0.00  0.00    +0.000 A 
ATOM     13  C   UNL     1       2.662   3.323  16.947  0.00  0.00    +0.000 A 
ATOM     14  N   UNL     1       3.783   3.729  17.565  0.00  0.00    +0.000 NA
ATOM     15  C   UNL     1       3.656   4.526  18.663  0.00  0.00    +0.000 A 
BRANCH  15  16
ATOM     16  O   UNL     1       4.813   4.837  19.353  0.00  0.00    +0.000 OA
BRANCH  16  17
ATOM     17  C   UNL     1       5.800   5.576  18.758  0.00  0.00    +0.000 A 
ATOM     18  C   UNL     1       5.448   6.393  17.674  0.00  0.00    +0.000 A 
ATOM     19  C   UNL     1       6.398   7.256  17.127  0.00  0.00    +0.000 A 
ATOM     20  C   UNL     1       7.684   7.299  17.657  0.00  0.00    +0.000 A 
ATOM     21  C   UNL     1       8.029   6.483  18.734  0.00  0.00    +0.000 A 
ATOM     22  C   UNL     1       7.079   5.639  19.296  0.00  0.00    +0.000 A 
ENDBRANCH  16  17
ENDBRANCH  15  16
ENDBRANCH   6  10
BRANCH   1  24
ATOM     23  N   UNL     1      -1.782   9.922  17.524  0.00  0.00    +0.000 N 
ATOM     24  C   UNL     1      -0.718  10.417  18.239  0.00  0.00    +0.000 C 
ATOM     25  O   UNL     1      -0.394  11.601  18.207  0.00  0.00    +0.000 OA
ATOM     26  H   UNL     1      -1.831   8.926  17.352  0.00  0.00    +0.000 HD
BRANCH  23  27
ATOM     27  C   UNL     1      -2.600  10.768  16.676  0.00  0.00    +0.000 C 
BRANCH  27  28
ATOM     28  C   UNL     1      -3.731  11.447  17.447  0.00  0.00    +0.000 C 
BRANCH  28  30
ATOM     29  C   UNL     1      -5.808  12.494  17.071  0.00  0.00    +0.000 C 
ATOM     30  O   UNL     1      -4.901  11.494  16.621  0.00  0.00    +0.000 OA
ENDBRANCH  28  30
ENDBRANCH  27  28
ENDBRANCH  23  27
ENDBRANCH   1  24
TORSDOF 7
ENDMDL
MODEL 3
REMARK VINA RESULT:      -7.1      0.413      1.008
REMARK  Name = 
REMARK  8 active torsions:
REMARK  status: ('A' for Active; 'I' for Inactive)
REMARK    1  A    between atoms: C_1  and  O_2
REMARK    2  A    between atoms: O_2  and  C_3
REMARK    3  A    between atoms: C_3  and  C_4
REMARK    4  A    between atoms: C_4  and  N_5
REMARK    5  A    between atoms: C_6  and  C_8
REMARK    6  A    between atoms: C_13  and  C_15
REMARK    7  A    between atoms: C_20  and  O_21
REMARK    8  A    between atoms: O_21  and  C_22
REMARK                            x       y       z     vdW  Elec       q    Type
REMARK                         _______ _______ _______ _____ _____    ______ ____
ROOT
ATOM      1  C   UNL     1      -0.096   9.380  19.186  0.00  0.00    +0.000 C 
ATOM      2  C   UNL     1      -0.320   9.574  20.694  0.00  0.00    +0.000 C 
ATOM      3  C   UNL     1       0.263   8.499  21.623  0.00  0.00    +0.000 C 
ATOM      4  C   UNL     1       1.737   8.141  21.433  0.00  0.00    +0.000 C 
ATOM      5  N   UNL     1       1.954   7.374  20.204  0.00  0.00    +0.000 N 
ATOM      6  C   UNL     1       2.170   5.984  20.301  0.00  0.00    +0.000 C 
ATOM      7  O   UNL     1       2.102   5.411  21.385  0.00  0.00    +0.000 OA
ATOM      8  C   UNL     1       2.080   8.134  18.976  0.00  0.00    +0.000 C 
ATOM      9  C   UNL     1       1.389   9.476  18.860  0.00  0.00    +0.000 C 
ENDROOT
BRANCH   6  10
ATOM     10  C   UNL     1       2.397   5.096  19.108  0.00  0.00    +0.000 A 
ATOM     11  C   UNL     1       1.243   4.688  18.412  0.00  0.00    +0.000 A 
ATOM     12  C   UNL     1       1.330   3.833  17.312  0.00  0.00    +0.000 A 
ATOM     13  C   UNL     1       2.580   3.420  16.908  0.00  0.00    +0.000 A 
ATOM     14  N   UNL     1       3.710   3.782  17.537  0.00  0.00    +0.000 NA
ATOM     15  C   UNL     1       3.602   4.561  18.651  0.00  0.00    +0.000 A 
BRANCH  15  16
ATOM     16  O   UNL     1       4.763   4.825  19.350  0.00  0.00    +0.000 OA
BRANCH  16  17
ATOM     17  C   UNL     1       5.703   5.680  18.840  0.00  0.00    +0.000 A 
ATOM     18  C   UNL     1       7.002   5.622  19.365  0.00  0.00    +0.000 A 
ATOM     19  C   UNL     1       8.015   6.384  18.782  0.00  0.00    +0.000 A 
ATOM     20  C   UNL     1       7.730   7.197  17.688  0.00  0.00    +0.000 A 
ATOM     21  C   UNL     1       6.436   7.252  17.171  0.00  0.00    +0.000 A 
ATOM     22  C   UNL     1       5.430   6.477  17.735  0.00  0.00    +0.000 A 
ENDBRANCH  16  17
ENDBRANCH  15  16
ENDBRANCH   6  10
BRANCH   1  24
ATOM     23  N   UNL     1      -2.124  10.039  18.014  0.00  0.00    +0.000 N 
ATOM     24  C   UNL     1      -0.864  10.438  18.388  0.00  0.00    +0.000 C 
ATOM     25  O   UNL     1      -0.409  11.543  18.105  0.00  0.00    +0.000 OA
ATOM     26  H   UNL     1      -2.340   9.050  18.010  0.00  0.00    +0.000 HD
BRANCH  23  27
ATOM     27  C   UNL     1      -3.010  10.899  17.253  0.00  0.00    +0.000 C 
BRANCH  27  28
ATOM     28  C   UNL     1      -2.657  10.930  15.767  0.00  0.00    +0.000 C 
BRANCH  28  30
ATOM     29  C   UNL     1      -3.719   9.913  13.926  0.00  0.00    +0.000 C 
ATOM     30  O   UNL     1      -3.054   9.692  15.164  0.00  0.00    +0.000 OA
ENDBRANCH  28  30
ENDBRANCH  27  28
ENDBRANCH  23  27
ENDBRANCH   1  24
TORSDOF 7
ENDMDL
MODEL 4
REMARK VINA RESULT:      -7.0      3.121      5.276
REMARK  Name = 
REMARK  8 active torsions:
REMARK  status: ('A' for Active; 'I' for Inactive)
REMARK    1  A    between atoms: C_1  and  O_2
REMARK    2  A    between atoms: O_2  and  C_3
REMARK    3  A    between atoms: C_3  and  C_4
REMARK    4  A    between atoms: C_4  and  N_5
REMARK    5  A    between atoms: C_6  and  C_8
REMARK    6  A    between atoms: C_13  and  C_15
REMARK    7  A    between atoms: C_20  and  O_21
REMARK    8  A    between atoms: O_21  and  C_22
REMARK                            x       y       z     vdW  Elec       q    Type
REMARK                         _______ _______ _______ _____ _____    ______ ____
ROOT
ATOM      1  C   UNL     1       1.931   8.654  20.460  0.00  0.00    +0.000 C 
ATOM      2  C   UNL     1       1.164   9.435  19.381  0.00  0.00    +0.000 C 
ATOM      3  C   UNL     1       1.608   9.220  17.926  0.00  0.00    +0.000 C 
ATOM      4  C   UNL     1       1.719   7.776  17.439  0.00  0.00    +0.000 C 
ATOM      5  N   UNL     1       2.875   7.094  18.024  0.00  0.00    +0.000 N 
ATOM      6  C   UNL     1       4.022   6.898  17.227  0.00  0.00    +0.000 C 
ATOM      7  O   UNL     1       4.082   7.356  16.090  0.00  0.00    +0.000 OA
ATOM      8  C   UNL     1       2.698   6.531  19.349  0.00  0.00    +0.000 C 
ATOM      9  C   UNL     1       1.695   7.158  20.293  0.00  0.00    +0.000 C 
ENDROOT
BRANCH   6  10
ATOM     10  C   UNL     1       5.268   6.217  17.723  0.00  0.00    +0.000 A 
ATOM     11  C   UNL     1       6.324   7.064  18.110  0.00  0.00    +0.000 A 
ATOM     12  C   UNL     1       7.541   6.543  18.550  0.00  0.00    +0.000 A 
ATOM     13  C   UNL     1       7.674   5.174  18.622  0.00  0.00    +0.000 A 
ATOM     14  N   UNL     1       6.697   4.325  18.266  0.00  0.00    +0.000 NA
ATOM     15  C   UNL     1       5.540   4.849  17.773  0.00  0.00    +0.000 A 
BRANCH  15  16
ATOM     16  O   UNL     1       4.593   3.958  17.303  0.00  0.00    +0.000 OA
BRANCH  16  17
ATOM     17  C   UNL     1       3.633   3.458  18.141  0.00  0.00    +0.000 A 
ATOM     18  C   UNL     1       4.006   3.144  19.456  0.00  0.00    +0.000 A 
ATOM     19  C   UNL     1       3.029   2.756  20.374  0.00  0.00    +0.000 A 
ATOM     20  C   UNL     1       1.696   2.683  19.980  0.00  0.00    +0.000 A 
ATOM     21  C   UNL     1       1.331   2.996  18.671  0.00  0.00    +0.000 A 
ATOM     22  C   UNL     1       2.298   3.404  17.760  0.00  0.00    +0.000 A 
ENDBRANCH  16  17
ENDBRANCH  15  16
ENDBRANCH   6  10
BRANCH   1  24
ATOM     23  N   UNL     1       0.150   9.417  21.932  0.00  0.00    +0.000 N 
ATOM     24  C   UNL     1       1.482   9.089  21.859  0.00  0.00    +0.000 C 
ATOM     25  O   UNL     1       2.230   9.142  22.831  0.00  0.00    +0.000 OA
ATOM     26  H   UNL     1      -0.345   9.638  21.077  0.00  0.00    +0.000 HD
BRANCH  23  27
ATOM     27  C   UNL     1      -0.469   9.854  23.170  0.00  0.00    +0.000 C 
BRANCH  27  28
ATOM     28  C   UNL     1      -1.366  11.075  22.974  0.00  0.00    +0.000 C 
BRANCH  28  30
ATOM     29  C   UNL     1      -0.473  12.983  21.920  0.00  0.00    +0.000 C 
ATOM     30  O   UNL     1      -0.584  12.264  23.142  0.00  0.00    +0.000 OA
ENDBRANCH  28  30
ENDBRANCH  27  28
ENDBRANCH  23  27
ENDBRANCH   1  24
TORSDOF 7
ENDMDL
MODEL 5
REMARK VINA RESULT:      -7.0      3.138      5.243
REMARK  Name = 
REMARK  8 active torsions:
REMARK  status: ('A' for Active; 'I' for Inactive)
REMARK    1  A    between atoms: C_1  and  O_2
REMARK    2  A    between atoms: O_2  and  C_3
REMARK    3  A    between atoms: C_3  and  C_4
REMARK    4  A    between atoms: C_4  and  N_5
REMARK    5  A    between atoms: C_6  and  C_8
REMARK    6  A    between atoms: C_13  and  C_15
REMARK    7  A    between atoms: C_20  and  O_21
REMARK    8  A    between atoms: O_21  and  C_22
REMARK                            x       y       z     vdW  Elec       q    Type
REMARK                         _______ _______ _______ _____ _____    ______ ____
ROOT
ATOM      1  C   UNL     1       1.869   8.731  20.456  0.00  0.00    +0.000 C 
ATOM      2  C   UNL     1       1.118   9.505  19.360  0.00  0.00    +0.000 C 
ATOM      3  C   UNL     1       1.576   9.272  17.913  0.00  0.00    +0.000 C 
ATOM      4  C   UNL     1       1.685   7.822  17.442  0.00  0.00    +0.000 C 
ATOM      5  N   UNL     1       2.832   7.140  18.047  0.00  0.00    +0.000 N 
ATOM      6  C   UNL     1       3.986   6.930  17.265  0.00  0.00    +0.000 C 
ATOM      7  O   UNL     1       4.061   7.375  16.123  0.00  0.00    +0.000 OA
ATOM      8  C   UNL     1       2.637   6.593  19.375  0.00  0.00    +0.000 C 
ATOM      9  C   UNL     1       1.627   7.235  20.302  0.00  0.00    +0.000 C 
ENDROOT
BRANCH   6  10
ATOM     10  C   UNL     1       5.223   6.248  17.782  0.00  0.00    +0.000 A 
ATOM     11  C   UNL     1       6.310   7.088  18.091  0.00  0.00    +0.000 A 
ATOM     12  C   UNL     1       7.521   6.563  18.543  0.00  0.00    +0.000 A 
ATOM     13  C   UNL     1       7.617   5.198  18.703  0.00  0.00    +0.000 A 
ATOM     14  N   UNL     1       6.610   4.356  18.423  0.00  0.00    +0.000 NA
ATOM     15  C   UNL     1       5.458   4.879  17.917  0.00  0.00    +0.000 A 
BRANCH  15  16
ATOM     16  O   UNL     1       4.479   3.987  17.525  0.00  0.00    +0.000 OA
BRANCH  16  17
ATOM     17  C   UNL     1       3.493   3.609  18.398  0.00  0.00    +0.000 A 
ATOM     18  C   UNL     1       2.194   3.447  17.895  0.00  0.00    +0.000 A 
ATOM     19  C   UNL     1       1.194   2.938  18.724  0.00  0.00    +0.000 A 
ATOM     20  C   UNL     1       1.490   2.599  20.042  0.00  0.00    +0.000 A 
ATOM     21  C   UNL     1       2.783   2.764  20.537  0.00  0.00    +0.000 A 
ATOM     22  C   UNL     1       3.787   3.248  19.707  0.00  0.00    +0.000 A 
ENDBRANCH  16  17
ENDBRANCH  15  16
ENDBRANCH   6  10
BRANCH   1  24
ATOM     23  N   UNL     1       0.070   9.492  21.907  0.00  0.00    +0.000 N 
ATOM     24  C   UNL     1       1.407   9.184  21.845  0.00  0.00    +0.000 C 
ATOM     25  O   UNL     1       2.150   9.265  22.819  0.00  0.00    +0.000 OA
ATOM     26  H   UNL     1      -0.424   9.690  21.046  0.00  0.00    +0.000 HD
BRANCH  23  27
ATOM     27  C   UNL     1      -0.561   9.940  23.134  0.00  0.00    +0.000 C 
BRANCH  27  28
ATOM     28  C   UNL     1      -1.200  11.320  22.991  0.00  0.00    +0.000 C 
BRANCH  28  30
ATOM     29  C   UNL     1      -3.141  12.559  23.489  0.00  0.00    +0.000 C 
ATOM     30  O   UNL     1      -2.549  11.265  23.470  0.00  0.00    +0.000 OA
ENDBRANCH  28  30
ENDBRANCH  27  28
ENDBRANCH  23  27
ENDBRANCH   1  24
TORSDOF 7
ENDMDL
MODEL 6
REMARK VINA RESULT:      -6.9      3.727      7.852
REMARK  Name = 
REMARK  8 active torsions:
REMARK  status: ('A' for Active; 'I' for Inactive)
REMARK    1  A    between atoms: C_1  and  O_2
REMARK    2  A    between atoms: O_2  and  C_3
REMARK    3  A    between atoms: C_3  and  C_4
REMARK    4  A    between atoms: C_4  and  N_5
REMARK    5  A    between atoms: C_6  and  C_8
REMARK    6  A    between atoms: C_13  and  C_15
REMARK    7  A    between atoms: C_20  and  O_21
REMARK    8  A    between atoms: O_21  and  C_22
REMARK                            x       y       z     vdW  Elec       q    Type
REMARK                         _______ _______ _______ _____ _____    ______ ____
ROOT
ATOM      1  C   UNL     1       6.608   4.970  15.250  0.00  0.00    +0.000 C 
ATOM      2  C   UNL     1       7.589   5.991  15.850  0.00  0.00    +0.000 C 
ATOM      3  C   UNL     1       7.342   6.414  17.305  0.00  0.00    +0.000 C 
ATOM      4  C   UNL     1       7.174   5.297  18.335  0.00  0.00    +0.000 C 
ATOM      5  N   UNL     1       5.890   4.610  18.185  0.00  0.00    +0.000 N 
ATOM      6  C   UNL     1       4.857   4.895  19.102  0.00  0.00    +0.000 C 
ATOM      7  O   UNL     1       5.002   5.758  19.963  0.00  0.00    +0.000 OA
ATOM      8  C   UNL     1       5.824   3.564  17.183  0.00  0.00    +0.000 C 
ATOM      9  C   UNL     1       6.733   3.636  15.974  0.00  0.00    +0.000 C 
ENDROOT
BRANCH   6  10
ATOM     10  C   UNL     1       3.497   4.255  19.041  0.00  0.00    +0.000 A 
ATOM     11  C   UNL     1       3.408   2.942  19.543  0.00  0.00    +0.000 A 
ATOM     12  C   UNL     1       2.205   2.236  19.504  0.00  0.00    +0.000 A 
ATOM     13  C   UNL     1       1.097   2.869  18.985  0.00  0.00    +0.000 A 
ATOM     14  N   UNL     1       1.131   4.119  18.496  0.00  0.00    +0.000 NA
ATOM     15  C   UNL     1       2.329   4.769  18.478  0.00  0.00    +0.000 A 
BRANCH  15  16
ATOM     16  O   UNL     1       2.366   6.006  17.864  0.00  0.00    +0.000 OA
BRANCH  16  17
ATOM     17  C   UNL     1       2.069   7.141  18.571  0.00  0.00    +0.000 A 
ATOM     18  C   UNL     1       1.822   8.319  17.852  0.00  0.00    +0.000 A 
ATOM     19  C   UNL     1       1.390   9.461  18.529  0.00  0.00    +0.000 A 
ATOM     20  C   UNL     1       1.211   9.424  19.908  0.00  0.00    +0.000 A 
ATOM     21  C   UNL     1       1.460   8.250  20.619  0.00  0.00    +0.000 A 
ATOM     22  C   UNL     1       1.868   7.105  19.945  0.00  0.00    +0.000 A 
ENDBRANCH  16  17
ENDBRANCH  15  16
ENDBRANCH   6  10
BRANCH   1  24
ATOM     23  N   UNL     1       6.299   3.644  13.233  0.00  0.00    +0.000 N 
ATOM     24  C   UNL     1       6.889   4.769  13.758  0.00  0.00    +0.000 C 
ATOM     25  O   UNL     1       7.571   5.534  13.082  0.00  0.00    +0.000 OA
ATOM     26  H   UNL     1       6.004   2.910  13.864  0.00  0.00    +0.000 HD
BRANCH  23  27
ATOM     27  C   UNL     1       6.445   3.279  11.836  0.00  0.00    +0.000 C 
BRANCH  27  28
ATOM     28  C   UNL     1       5.644   2.029  11.475  0.00  0.00    +0.000 C 
BRANCH  28  30
ATOM     29  C   UNL     1       6.100  -0.273  11.275  0.00  0.00    +0.000 C 
ATOM     30  O   UNL     1       6.532   1.041  10.939  0.00  0.00    +0.000 OA
ENDBRANCH  28  30
ENDBRANCH  27  28
ENDBRANCH  23  27
ENDBRANCH   1  24
TORSDOF 7
ENDMDL
MODEL 7
REMARK VINA RESULT:      -6.9      1.243      1.562
REMARK  Name = 
REMARK  8 active torsions:
REMARK  status: ('A' for Active; 'I' for Inactive)
REMARK    1  A    between atoms: C_1  and  O_2
REMARK    2  A    between atoms: O_2  and  C_3
REMARK    3  A    between atoms: C_3  and  C_4
REMARK    4  A    between atoms: C_4  and  N_5
REMARK    5  A    between atoms: C_6  and  C_8
REMARK    6  A    between atoms: C_13  and  C_15
REMARK    7  A    between atoms: C_20  and  O_21
REMARK    8  A    between atoms: O_21  and  C_22
REMARK                            x       y       z     vdW  Elec       q    Type
REMARK                         _______ _______ _______ _____ _____    ______ ____
ROOT
ATOM      1  C   UNL     1      -0.459   9.486  19.234  0.00  0.00    +0.000 C 
ATOM      2  C   UNL     1      -0.388   9.885  20.717  0.00  0.00    +0.000 C 
ATOM      3  C   UNL     1       0.401   8.952  21.647  0.00  0.00    +0.000 C 
ATOM      4  C   UNL     1       1.818   8.576  21.216  0.00  0.00    +0.000 C 
ATOM      5  N   UNL     1       1.813   7.648  20.083  0.00  0.00    +0.000 N 
ATOM      6  C   UNL     1       2.088   6.286  20.321  0.00  0.00    +0.000 C 
ATOM      7  O   UNL     1       2.254   5.868  21.464  0.00  0.00    +0.000 OA
ATOM      8  C   UNL     1       1.671   8.233  18.764  0.00  0.00    +0.000 C 
ATOM      9  C   UNL     1       0.929   9.543  18.609  0.00  0.00    +0.000 C 
ENDROOT
BRANCH   6  10
ATOM     10  C   UNL     1       2.104   5.244  19.237  0.00  0.00    +0.000 A 
ATOM     11  C   UNL     1       1.158   4.208  19.360  0.00  0.00    +0.000 A 
ATOM     12  C   UNL     1       1.105   3.166  18.433  0.00  0.00    +0.000 A 
ATOM     13  C   UNL     1       1.989   3.192  17.377  0.00  0.00    +0.000 A 
ATOM     14  N   UNL     1       2.909   4.157  17.215  0.00  0.00    +0.000 NA
ATOM     15  C   UNL     1       2.992   5.129  18.166  0.00  0.00    +0.000 A 
BRANCH  15  16
ATOM     16  O   UNL     1       4.019   6.045  18.044  0.00  0.00    +0.000 OA
BRANCH  16  17
ATOM     17  C   UNL     1       5.180   5.705  17.401  0.00  0.00    +0.000 A 
ATOM     18  C   UNL     1       6.216   5.148  18.165  0.00  0.00    +0.000 A 
ATOM     19  C   UNL     1       7.361   4.670  17.526  0.00  0.00    +0.000 A 
ATOM     20  C   UNL     1       7.468   4.751  16.140  0.00  0.00    +0.000 A 
ATOM     21  C   UNL     1       6.435   5.308  15.386  0.00  0.00    +0.000 A 
ATOM     22  C   UNL     1       5.284   5.764  16.018  0.00  0.00    +0.000 A 
ENDBRANCH  16  17
ENDBRANCH  15  16
ENDBRANCH   6  10
BRANCH   1  24
ATOM     23  N   UNL     1      -1.481  10.146  17.127  0.00  0.00    +0.000 N 
ATOM     24  C   UNL     1      -1.402  10.421  18.471  0.00  0.00    +0.000 C 
ATOM     25  O   UNL     1      -2.035  11.332  18.998  0.00  0.00    +0.000 OA
ATOM     26  H   UNL     1      -0.746   9.600  16.698  0.00  0.00    +0.000 HD
BRANCH  23  27
ATOM     27  C   UNL     1      -2.322  10.919  16.232  0.00  0.00    +0.000 C 
BRANCH  27  28
ATOM     28  C   UNL     1      -3.227  10.036  15.375  0.00  0.00    +0.000 C 
BRANCH  28  30
ATOM     29  C   UNL     1      -3.817   9.833  13.103  0.00  0.00    +0.000 C 
ATOM     30  O   UNL     1      -2.753  10.049  14.023  0.00  0.00    +0.000 OA
ENDBRANCH  28  30
ENDBRANCH  27  28
ENDBRANCH  23  27
ENDBRANCH   1  24
TORSDOF 7
ENDMDL
MODEL 8
REMARK VINA RESULT:      -6.8      1.558      2.664
REMARK  Name = 
REMARK  8 active torsions:
REMARK  status: ('A' for Active; 'I' for Inactive)
REMARK    1  A    between atoms: C_1  and  O_2
REMARK    2  A    between atoms: O_2  and  C_3
REMARK    3  A    between atoms: C_3  and  C_4
REMARK    4  A    between atoms: C_4  and  N_5
REMARK    5  A    between atoms: C_6  and  C_8
REMARK    6  A    between atoms: C_13  and  C_15
REMARK    7  A    between atoms: C_20  and  O_21
REMARK    8  A    between atoms: O_21  and  C_22
REMARK                            x       y       z     vdW  Elec       q    Type
REMARK                         _______ _______ _______ _____ _____    ______ ____
ROOT
ATOM      1  C   UNL     1       0.127   9.207  19.101  0.00  0.00    +0.000 C 
ATOM      2  C   UNL     1      -0.153   9.416  20.598  0.00  0.00    +0.000 C 
ATOM      3  C   UNL     1       0.357   8.330  21.555  0.00  0.00    +0.000 C 
ATOM      4  C   UNL     1       1.825   7.924  21.428  0.00  0.00    +0.000 C 
ATOM      5  N   UNL     1       2.069   7.144  20.213  0.00  0.00    +0.000 N 
ATOM      6  C   UNL     1       2.237   5.748  20.325  0.00  0.00    +0.000 C 
ATOM      7  O   UNL     1       2.106   5.185  21.408  0.00  0.00    +0.000 OA
ATOM      8  C   UNL     1       2.270   7.893  18.988  0.00  0.00    +0.000 C 
ATOM      9  C   UNL     1       1.627   9.255  18.837  0.00  0.00    +0.000 C 
ENDROOT
BRANCH   6  10
ATOM     10  C   UNL     1       2.486   4.847  19.147  0.00  0.00    +0.000 A 
ATOM     11  C   UNL     1       1.341   4.379  18.473  0.00  0.00    +0.000 A 
ATOM     12  C   UNL     1       1.449   3.507  17.388  0.00  0.00    +0.000 A 
ATOM     13  C   UNL     1       2.710   3.137  16.977  0.00  0.00    +0.000 A 
ATOM     14  N   UNL     1       3.832   3.557  17.585  0.00  0.00    +0.000 NA
ATOM     15  C   UNL     1       3.705   4.352  18.684  0.00  0.00    +0.000 A 
BRANCH  15  16
ATOM     16  O   UNL     1       4.864   4.676  19.364  0.00  0.00    +0.000 OA
BRANCH  16  17
ATOM     17  C   UNL     1       5.748   5.581  18.839  0.00  0.00    +0.000 A 
ATOM     18  C   UNL     1       7.052   5.602  19.354  0.00  0.00    +0.000 A 
ATOM     19  C   UNL     1       8.014   6.418  18.756  0.00  0.00    +0.000 A 
ATOM     20  C   UNL     1       7.674   7.203  17.659  0.00  0.00    +0.000 A 
ATOM     21  C   UNL     1       6.375   7.178  17.151  0.00  0.00    +0.000 A 
ATOM     22  C   UNL     1       5.420   6.350  17.730  0.00  0.00    +0.000 A 
ENDBRANCH  16  17
ENDBRANCH  15  16
ENDBRANCH   6  10
BRANCH   1  24
ATOM     23  N   UNL     1      -0.353  11.562  18.722  0.00  0.00    +0.000 N 
ATOM     24  C   UNL     1      -0.574  10.284  18.267  0.00  0.00    +0.000 C 
ATOM     25  O   UNL     1      -1.267  10.043  17.284  0.00  0.00    +0.000 OA
ATOM     26  H   UNL     1      -0.033  11.692  19.673  0.00  0.00    +0.000 HD
BRANCH  23  27
ATOM     27  C   UNL     1      -0.930  12.722  18.067  0.00  0.00    +0.000 C 
BRANCH  27  28
ATOM     28  C   UNL     1      -0.321  14.032  18.563  0.00  0.00    +0.000 C 
BRANCH  28  30
ATOM     29  C   UNL     1      -0.362  15.399  20.482  0.00  0.00    +0.000 C 
ATOM     30  O   UNL     1      -0.373  14.062  19.995  0.00  0.00    +0.000 OA
ENDBRANCH  28  30
ENDBRANCH  27  28
ENDBRANCH  23  27
ENDBRANCH   1  24
TORSDOF 7
ENDMDL
MODEL 9
REMARK VINA RESULT:      -6.8      3.551      7.380
REMARK  Name = 
REMARK  8 active torsions:
REMARK  status: ('A' for Active; 'I' for Inactive)
REMARK    1  A    between atoms: C_1  and  O_2
REMARK    2  A    between atoms: O_2  and  C_3
REMARK    3  A    between atoms: C_3  and  C_4
REMARK    4  A    between atoms: C_4  and  N_5
REMARK    5  A    between atoms: C_6  and  C_8
REMARK    6  A    between atoms: C_13  and  C_15
REMARK    7  A    between atoms: C_20  and  O_21
REMARK    8  A    between atoms: O_21  and  C_22
REMARK                            x       y       z     vdW  Elec       q    Type
REMARK                         _______ _______ _______ _____ _____    ______ ____
ROOT
ATOM      1  C   UNL     1       6.555   4.909  15.289  0.00  0.00    +0.000 C 
ATOM      2  C   UNL     1       7.566   5.909  15.872  0.00  0.00    +0.000 C 
ATOM      3  C   UNL     1       7.344   6.348  17.327  0.00  0.00    +0.000 C 
ATOM      4  C   UNL     1       7.159   5.243  18.366  0.00  0.00    +0.000 C 
ATOM      5  N   UNL     1       5.856   4.586  18.233  0.00  0.00    +0.000 N 
ATOM      6  C   UNL     1       4.839   4.903  19.158  0.00  0.00    +0.000 C 
ATOM      7  O   UNL     1       5.014   5.768  20.012  0.00  0.00    +0.000 OA
ATOM      8  C   UNL     1       5.755   3.536  17.239  0.00  0.00    +0.000 C 
ATOM      9  C   UNL     1       6.654   3.577  16.022  0.00  0.00    +0.000 C 
ENDROOT
BRANCH   6  10
ATOM     10  C   UNL     1       3.464   4.297  19.115  0.00  0.00    +0.000 A 
ATOM     11  C   UNL     1       3.345   2.995  19.639  0.00  0.00    +0.000 A 
ATOM     12  C   UNL     1       2.124   2.319  19.618  0.00  0.00    +0.000 A 
ATOM     13  C   UNL     1       1.030   2.970  19.094  0.00  0.00    +0.000 A 
ATOM     14  N   UNL     1       1.092   4.211  18.583  0.00  0.00    +0.000 NA
ATOM     15  C   UNL     1       2.306   4.830  18.548  0.00  0.00    +0.000 A 
BRANCH  15  16
ATOM     16  O   UNL     1       2.370   6.055  17.914  0.00  0.00    +0.000 OA
BRANCH  16  17
ATOM     17  C   UNL     1       2.062   7.205  18.591  0.00  0.00    +0.000 A 
ATOM     18  C   UNL     1       1.785   8.357  17.840  0.00  0.00    +0.000 A 
ATOM     19  C   UNL     1       1.341   9.510  18.488  0.00  0.00    +0.000 A 
ATOM     20  C   UNL     1       1.178   9.511  19.871  0.00  0.00    +0.000 A 
ATOM     21  C   UNL     1       1.456   8.363  20.612  0.00  0.00    +0.000 A 
ATOM     22  C   UNL     1       1.877   7.206  19.967  0.00  0.00    +0.000 A 
ENDBRANCH  16  17
ENDBRANCH  15  16
ENDBRANCH   6  10
BRANCH   1  24
ATOM     23  N   UNL     1       6.238   3.548  13.297  0.00  0.00    +0.000 N 
ATOM     24  C   UNL     1       6.815   4.691  13.796  0.00  0.00    +0.000 C 
ATOM     25  O   UNL     1       7.474   5.458  13.098  0.00  0.00    +0.000 OA
ATOM     26  H   UNL     1       5.966   2.819  13.943  0.00  0.00    +0.000 HD
BRANCH  23  27
ATOM     27  C   UNL     1       6.369   3.165  11.903  0.00  0.00    +0.000 C 
BRANCH  27  28
ATOM     28  C   UNL     1       5.065   2.616  11.326  0.00  0.00    +0.000 C 
BRANCH  28  30
ATOM     29  C   UNL     1       3.173   3.443  10.192  0.00  0.00    +0.000 C 
ATOM     30  O   UNL     1       4.106   3.677  11.241  0.00  0.00    +0.000 OA
ENDBRANCH  28  30
ENDBRANCH  27  28
ENDBRANCH  23  27
ENDBRANCH   1  24
TORSDOF 7
ENDMDL
