MODEL 1
REMARK VINA RESULT:      -7.2      0.000      0.000
REMARK  Name = 
REMARK  2 active torsions:
REMARK  status: ('A' for Active; 'I' for Inactive)
REMARK    1  A    between atoms: C_4  and  C_5
REMARK    2  A    between atoms: C_10  and  C_11
REMARK                            x       y       z     vdW  Elec       q    Type
REMARK                         _______ _______ _______ _____ _____    ______ ____
ROOT
ATOM      1  C   UNL     1       4.229   4.884  17.543  0.00  0.00    +0.000 A 
ATOM      2  C   UNL     1       4.193   3.483  17.365  0.00  0.00    +0.000 A 
ATOM      3  C   UNL     1       3.007   2.760  17.468  0.00  0.00    +0.000 A 
ATOM      4  C   UNL     1       1.821   3.416  17.756  0.00  0.00    +0.000 A 
ATOM      5  C   UNL     1       1.831   4.792  17.969  0.00  0.00    +0.000 A 
ATOM      6  C   UNL     1       3.025   5.546  17.886  0.00  0.00    +0.000 A 
ENDROOT
BRANCH   1  10
ATOM      7  N   UNL     1       7.589   5.310  14.509  0.00  0.00    +0.000 N 
ATOM      8  C   UNL     1       6.948   5.333  15.692  0.00  0.00    +0.000 C 
ATOM      9  N   UNL     1       5.842   5.937  15.946  0.00  0.00    +0.000 NA
ATOM     10  C   UNL     1       5.559   5.609  17.362  0.00  0.00    +0.000 C 
ATOM     11  C   UNL     1       6.759   4.784  17.816  0.00  0.00    +0.000 C 
ATOM     12  O   UNL     1       7.552   4.599  16.648  0.00  0.00    +0.000 OA
ATOM     13  H   UNL     1       6.995   5.551  13.725  0.00  0.00    +0.000 HD
ATOM     14  H   UNL     1       8.177   4.500  14.365  0.00  0.00    +0.000 HD
ENDBRANCH   1  10
BRANCH   6  15
ATOM     15  C   UNL     1       2.897   7.028  18.171  0.00  0.00    +0.000 C 
ATOM     16  F   UNL     1       3.896   7.806  17.675  0.00  0.00    +0.000 F 
ATOM     17  F   UNL     1       1.737   7.553  17.688  0.00  0.00    +0.000 F 
ATOM     18  F   UNL     1       2.884   7.285  19.512  0.00  0.00    +0.000 F 
ENDBRANCH   6  15
TORSDOF 2
ENDMDL
MODEL 2
REMARK VINA RESULT:      -7.2      3.302      4.030
REMARK  Name = 
REMARK  2 active torsions:
REMARK  status: ('A' for Active; 'I' for Inactive)
REMARK    1  A    between atoms: C_4  and  C_5
REMARK    2  A    between atoms: C_10  and  C_11
REMARK                            x       y       z     vdW  Elec       q    Type
REMARK                         _______ _______ _______ _____ _____    ______ ____
ROOT
ATOM      1  C   UNL     1       3.583   4.642  19.088  0.00  0.00    +0.000 A 
ATOM      2  C   UNL     1       3.189   5.899  19.599  0.00  0.00    +0.000 A 
ATOM      3  C   UNL     1       2.012   6.058  20.328  0.00  0.00    +0.000 A 
ATOM      4  C   UNL     1       1.192   4.966  20.563  0.00  0.00    +0.000 A 
ATOM      5  C   UNL     1       1.538   3.722  20.043  0.00  0.00    +0.000 A 
ATOM      6  C   UNL     1       2.720   3.538  19.287  0.00  0.00    +0.000 A 
ENDROOT
BRANCH   1  10
ATOM      7  N   UNL     1       7.989   5.605  19.669  0.00  0.00    +0.000 N 
ATOM      8  C   UNL     1       6.828   5.340  19.041  0.00  0.00    +0.000 C 
ATOM      9  N   UNL     1       6.060   4.332  19.257  0.00  0.00    +0.000 NA
ATOM     10  C   UNL     1       4.912   4.541  18.346  0.00  0.00    +0.000 C 
ATOM     11  C   UNL     1       5.261   5.804  17.565  0.00  0.00    +0.000 C 
ATOM     12  O   UNL     1       6.472   6.280  18.143  0.00  0.00    +0.000 OA
ATOM     13  H   UNL     1       8.089   5.119  20.551  0.00  0.00    +0.000 HD
ATOM     14  H   UNL     1       8.241   6.584  19.689  0.00  0.00    +0.000 HD
ENDBRANCH   1  10
BRANCH   6  15
ATOM     15  C   UNL     1       2.958   2.139  18.755  0.00  0.00    +0.000 C 
ATOM     16  F   UNL     1       3.001   2.030  17.400  0.00  0.00    +0.000 F 
ATOM     17  F   UNL     1       4.122   1.600  19.213  0.00  0.00    +0.000 F 
ATOM     18  F   UNL     1       1.976   1.276  19.147  0.00  0.00    +0.000 F 
ENDBRANCH   6  15
TORSDOF 2
ENDMDL
MODEL 3
REMARK VINA RESULT:      -7.1      2.672      3.883
REMARK  Name = 
REMARK  2 active torsions:
REMARK  status: ('A' for Active; 'I' for Inactive)
REMARK    1  A    between atoms: C_4  and  C_5
REMARK    2  A    between atoms: C_10  and  C_11
REMARK                            x       y       z     vdW  Elec       q    Type
REMARK                         _______ _______ _______ _____ _____    ______ ____
ROOT
ATOM      1  C   UNL     1       4.209   4.466  17.297  0.00  0.00    +0.000 A 
ATOM      2  C   UNL     1       4.999   3.791  16.341  0.00  0.00    +0.000 A 
ATOM      3  C   UNL     1       5.707   4.478  15.356  0.00  0.00    +0.000 A 
ATOM      4  C   UNL     1       5.640   5.861  15.295  0.00  0.00    +0.000 A 
ATOM      5  C   UNL     1       4.842   6.551  16.204  0.00  0.00    +0.000 A 
ATOM      6  C   UNL     1       4.103   5.875  17.202  0.00  0.00    +0.000 A 
ENDROOT
BRANCH   1  10
ATOM      7  N   UNL     1       5.165   1.456  20.568  0.00  0.00    +0.000 N 
ATOM      8  C   UNL     1       4.454   2.141  19.653  0.00  0.00    +0.000 C 
ATOM      9  N   UNL     1       4.359   3.420  19.564  0.00  0.00    +0.000 NA
ATOM     10  C   UNL     1       3.508   3.646  18.375  0.00  0.00    +0.000 C 
ATOM     11  C   UNL     1       3.118   2.248  17.906  0.00  0.00    +0.000 C 
ATOM     12  O   UNL     1       3.841   1.354  18.745  0.00  0.00    +0.000 OA
ATOM     13  H   UNL     1       5.881   2.012  21.018  0.00  0.00    +0.000 HD
ATOM     14  H   UNL     1       5.462   0.538  20.267  0.00  0.00    +0.000 HD
ENDBRANCH   1  10
BRANCH   6  15
ATOM     15  C   UNL     1       3.252   6.747  18.104  0.00  0.00    +0.000 C 
ATOM     16  F   UNL     1       3.454   6.579  19.438  0.00  0.00    +0.000 F 
ATOM     17  F   UNL     1       3.429   8.075  17.861  0.00  0.00    +0.000 F 
ATOM     18  F   UNL     1       1.920   6.516  17.918  0.00  0.00    +0.000 F 
ENDBRANCH   6  15
TORSDOF 2
ENDMDL
MODEL 4
REMARK VINA RESULT:      -7.1      3.112      3.963
REMARK  Name = 
REMARK  2 active torsions:
REMARK  status: ('A' for Active; 'I' for Inactive)
REMARK    1  A    between atoms: C_4  and  C_5
REMARK    2  A    between atoms: C_10  and  C_11
REMARK                            x       y       z     vdW  Elec       q    Type
REMARK                         _______ _______ _______ _____ _____    ______ ____
ROOT
ATOM      1  C   UNL     1       3.518   4.665  19.336  0.00  0.00    +0.000 A 
ATOM      2  C   UNL     1       3.442   6.013  18.918  0.00  0.00    +0.000 A 
ATOM      3  C   UNL     1       2.542   6.910  19.490  0.00  0.00    +0.000 A 
ATOM      4  C   UNL     1       1.686   6.484  20.493  0.00  0.00    +0.000 A 
ATOM      5  C   UNL     1       1.715   5.153  20.901  0.00  0.00    +0.000 A 
ATOM      6  C   UNL     1       2.609   4.220  20.326  0.00  0.00    +0.000 A 
ENDROOT
BRANCH   1  10
ATOM      7  N   UNL     1       7.677   4.890  17.512  0.00  0.00    +0.000 N 
ATOM      8  C   UNL     1       6.443   4.426  17.786  0.00  0.00    +0.000 C 
ATOM      9  N   UNL     1       5.950   4.221  18.955  0.00  0.00    +0.000 NA
ATOM     10  C   UNL     1       4.567   3.761  18.697  0.00  0.00    +0.000 C 
ATOM     11  C   UNL     1       4.457   3.696  17.177  0.00  0.00    +0.000 C 
ATOM     12  O   UNL     1       5.688   4.218  16.688  0.00  0.00    +0.000 OA
ATOM     13  H   UNL     1       8.111   5.364  18.294  0.00  0.00    +0.000 HD
ATOM     14  H   UNL     1       7.758   5.367  16.625  0.00  0.00    +0.000 HD
ENDBRANCH   1  10
BRANCH   6  15
ATOM     15  C   UNL     1       2.511   2.799  20.842  0.00  0.00    +0.000 C 
ATOM     16  F   UNL     1       3.674   2.264  21.302  0.00  0.00    +0.000 F 
ATOM     17  F   UNL     1       1.613   2.676  21.859  0.00  0.00    +0.000 F 
ATOM     18  F   UNL     1       2.087   1.937  19.873  0.00  0.00    +0.000 F 
ENDBRANCH   6  15
TORSDOF 2
ENDMDL
MODEL 5
REMARK VINA RESULT:      -7.0      2.959      3.725
REMARK  Name = 
REMARK  2 active torsions:
REMARK  status: ('A' for Active; 'I' for Inactive)
REMARK    1  A    between atoms: C_4  and  C_5
REMARK    2  A    between atoms: C_10  and  C_11
REMARK                            x       y       z     vdW  Elec       q    Type
REMARK                         _______ _______ _______ _____ _____    ______ ____
ROOT
ATOM      1  C   UNL     1       3.118   4.846  18.525  0.00  0.00    +0.000 A 
ATOM      2  C   UNL     1       3.060   6.109  19.155  0.00  0.00    +0.000 A 
ATOM      3  C   UNL     1       2.176   6.368  20.201  0.00  0.00    +0.000 A 
ATOM      4  C   UNL     1       1.320   5.372  20.644  0.00  0.00    +0.000 A 
ATOM      5  C   UNL     1       1.332   4.128  20.020  0.00  0.00    +0.000 A 
ATOM      6  C   UNL     1       2.209   3.845  18.947  0.00  0.00    +0.000 A 
ENDROOT
BRANCH   1  10
ATOM      7  N   UNL     1       7.611   4.399  17.988  0.00  0.00    +0.000 N 
ATOM      8  C   UNL     1       6.324   4.648  17.685  0.00  0.00    +0.000 C 
ATOM      9  N   UNL     1       5.328   3.861  17.889  0.00  0.00    +0.000 NA
ATOM     10  C   UNL     1       4.150   4.627  17.423  0.00  0.00    +0.000 C 
ATOM     11  C   UNL     1       4.726   5.927  16.873  0.00  0.00    +0.000 C 
ATOM     12  O   UNL     1       6.119   5.874  17.161  0.00  0.00    +0.000 OA
ATOM     13  H   UNL     1       7.728   3.663  18.673  0.00  0.00    +0.000 HD
ATOM     14  H   UNL     1       8.172   5.225  18.149  0.00  0.00    +0.000 HD
ENDBRANCH   1  10
BRANCH   6  15
ATOM     15  C   UNL     1       2.094   2.462  18.340  0.00  0.00    +0.000 C 
ATOM     16  F   UNL     1       3.016   1.558  18.768  0.00  0.00    +0.000 F 
ATOM     17  F   UNL     1       0.878   1.893  18.569  0.00  0.00    +0.000 F 
ATOM     18  F   UNL     1       2.235   2.492  16.983  0.00  0.00    +0.000 F 
ENDBRANCH   6  15
TORSDOF 2
ENDMDL
MODEL 6
REMARK VINA RESULT:      -6.9      3.139      3.706
REMARK  Name = 
REMARK  2 active torsions:
REMARK  status: ('A' for Active; 'I' for Inactive)
REMARK    1  A    between atoms: C_4  and  C_5
REMARK    2  A    between atoms: C_10  and  C_11
REMARK                            x       y       z     vdW  Elec       q    Type
REMARK                         _______ _______ _______ _____ _____    ______ ____
ROOT
ATOM      1  C   UNL     1       4.356   4.617  18.188  0.00  0.00    +0.000 A 
ATOM      2  C   UNL     1       3.987   5.951  17.904  0.00  0.00    +0.000 A 
ATOM      3  C   UNL     1       2.653   6.353  17.870  0.00  0.00    +0.000 A 
ATOM      4  C   UNL     1       1.648   5.431  18.114  0.00  0.00    +0.000 A 
ATOM      5  C   UNL     1       1.980   4.102  18.363  0.00  0.00    +0.000 A 
ATOM      6  C   UNL     1       3.325   3.667  18.388  0.00  0.00    +0.000 A 
ENDROOT
BRANCH   1  10
ATOM      7  N   UNL     1       8.347   6.535  19.222  0.00  0.00    +0.000 N 
ATOM      8  C   UNL     1       7.463   5.675  18.682  0.00  0.00    +0.000 C 
ATOM      9  N   UNL     1       6.553   5.023  19.314  0.00  0.00    +0.000 NA
ATOM     10  C   UNL     1       5.839   4.269  18.258  0.00  0.00    +0.000 C 
ATOM     11  C   UNL     1       6.593   4.593  16.973  0.00  0.00    +0.000 C 
ATOM     12  O   UNL     1       7.566   5.564  17.342  0.00  0.00    +0.000 OA
ATOM     13  H   UNL     1       8.066   6.882  20.131  0.00  0.00    +0.000 HD
ATOM     14  H   UNL     1       8.691   7.239  18.584  0.00  0.00    +0.000 HD
ENDBRANCH   1  10
BRANCH   6  15
ATOM     15  C   UNL     1       3.541   2.188  18.639  0.00  0.00    +0.000 C 
ATOM     16  F   UNL     1       4.012   1.479  17.579  0.00  0.00    +0.000 F 
ATOM     17  F   UNL     1       4.411   1.957  19.662  0.00  0.00    +0.000 F 
ATOM     18  F   UNL     1       2.382   1.562  18.995  0.00  0.00    +0.000 F 
ENDBRANCH   6  15
TORSDOF 2
ENDMDL
MODEL 7
REMARK VINA RESULT:      -6.9      2.832      3.644
REMARK  Name = 
REMARK  2 active torsions:
REMARK  status: ('A' for Active; 'I' for Inactive)
REMARK    1  A    between atoms: C_4  and  C_5
REMARK    2  A    between atoms: C_10  and  C_11
REMARK                            x       y       z     vdW  Elec       q    Type
REMARK                         _______ _______ _______ _____ _____    ______ ____
ROOT
ATOM      1  C   UNL     1       4.648   5.710  17.716  0.00  0.00    +0.000 A 
ATOM      2  C   UNL     1       4.307   7.080  17.753  0.00  0.00    +0.000 A 
ATOM      3  C   UNL     1       2.995   7.506  17.945  0.00  0.00    +0.000 A 
ATOM      4  C   UNL     1       1.982   6.573  18.101  0.00  0.00    +0.000 A 
ATOM      5  C   UNL     1       2.283   5.215  18.035  0.00  0.00    +0.000 A 
ATOM      6  C   UNL     1       3.605   4.759  17.826  0.00  0.00    +0.000 A 
ENDROOT
BRANCH   1  10
ATOM      7  N   UNL     1       8.468   5.412  20.164  0.00  0.00    +0.000 N 
ATOM      8  C   UNL     1       7.664   5.522  19.090  0.00  0.00    +0.000 C 
ATOM      9  N   UNL     1       6.691   4.739  18.786  0.00  0.00    +0.000 NA
ATOM     10  C   UNL     1       6.115   5.327  17.555  0.00  0.00    +0.000 C 
ATOM     11  C   UNL     1       7.015   6.516  17.236  0.00  0.00    +0.000 C 
ATOM     12  O   UNL     1       7.928   6.600  18.325  0.00  0.00    +0.000 OA
ATOM     13  H   UNL     1       8.078   4.840  20.902  0.00  0.00    +0.000 HD
ATOM     14  H   UNL     1       8.880   6.283  20.470  0.00  0.00    +0.000 HD
ENDBRANCH   1  10
BRANCH   6  15
ATOM     15  C   UNL     1       3.785   3.256  17.745  0.00  0.00    +0.000 C 
ATOM     16  F   UNL     1       4.672   2.824  16.809  0.00  0.00    +0.000 F 
ATOM     17  F   UNL     1       4.194   2.717  18.927  0.00  0.00    +0.000 F 
ATOM     18  F   UNL     1       2.615   2.624  17.439  0.00  0.00    +0.000 F 
ENDBRANCH   6  15
TORSDOF 2
ENDMDL
MODEL 8
REMARK VINA RESULT:      -6.9      2.886      3.604
REMARK  Name = 
REMARK  2 active torsions:
REMARK  status: ('A' for Active; 'I' for Inactive)
REMARK    1  A    between atoms: C_4  and  C_5
REMARK    2  A    between atoms: C_10  and  C_11
REMARK                            x       y       z     vdW  Elec       q    Type
REMARK                         _______ _______ _______ _____ _____    ______ ____
ROOT
ATOM      1  C   UNL     1       3.420   4.871  18.198  0.00  0.00    +0.000 A 
ATOM      2  C   UNL     1       3.321   6.199  18.667  0.00  0.00    +0.000 A 
ATOM      3  C   UNL     1       2.526   6.535  19.761  0.00  0.00    +0.000 A 
ATOM      4  C   UNL     1       1.802   5.551  20.415  0.00  0.00    +0.000 A 
ATOM      5  C   UNL     1       1.854   4.238  19.954  0.00  0.00    +0.000 A 
ATOM      6  C   UNL     1       2.642   3.876  18.837  0.00  0.00    +0.000 A 
ENDROOT
BRANCH   1  10
ATOM      7  N   UNL     1       7.852   4.379  17.304  0.00  0.00    +0.000 N 
ATOM      8  C   UNL     1       6.542   4.611  17.098  0.00  0.00    +0.000 C 
ATOM      9  N   UNL     1       5.570   3.841  17.438  0.00  0.00    +0.000 NA
ATOM     10  C   UNL     1       4.354   4.578  17.027  0.00  0.00    +0.000 C 
ATOM     11  C   UNL     1       4.876   5.839  16.346  0.00  0.00    +0.000 C 
ATOM     12  O   UNL     1       6.289   5.800  16.515  0.00  0.00    +0.000 OA
ATOM     13  H   UNL     1       8.029   3.688  18.023  0.00  0.00    +0.000 HD
ATOM     14  H   UNL     1       8.421   5.211  17.362  0.00  0.00    +0.000 HD
ENDBRANCH   1  10
BRANCH   6  15
ATOM     15  C   UNL     1       2.581   2.419  18.424  0.00  0.00    +0.000 C 
ATOM     16  F   UNL     1       2.352   2.196  17.103  0.00  0.00    +0.000 F 
ATOM     17  F   UNL     1       3.726   1.746  18.726  0.00  0.00    +0.000 F 
ATOM     18  F   UNL     1       1.583   1.752  19.072  0.00  0.00    +0.000 F 
ENDBRANCH   6  15
TORSDOF 2
ENDMDL
MODEL 9
REMARK VINA RESULT:      -6.9      3.250      4.615
REMARK  Name = 
REMARK  2 active torsions:
REMARK  status: ('A' for Active; 'I' for Inactive)
REMARK    1  A    between atoms: C_4  and  C_5
REMARK    2  A    between atoms: C_10  and  C_11
REMARK                            x       y       z     vdW  Elec       q    Type
REMARK                         _______ _______ _______ _____ _____    ______ ____
ROOT
ATOM      1  C   UNL     1       3.011   4.782  18.032  0.00  0.00    +0.000 A 
ATOM      2  C   UNL     1       3.737   3.711  17.466  0.00  0.00    +0.000 A 
ATOM      3  C   UNL     1       4.871   3.924  16.684  0.00  0.00    +0.000 A 
ATOM      4  C   UNL     1       5.308   5.216  16.440  0.00  0.00    +0.000 A 
ATOM      5  C   UNL     1       4.593   6.292  16.956  0.00  0.00    +0.000 A 
ATOM      6  C   UNL     1       3.431   6.103  17.740  0.00  0.00    +0.000 A 
ENDROOT
BRANCH   1  10
ATOM      7  N   UNL     1       2.041   2.805  22.010  0.00  0.00    +0.000 N 
ATOM      8  C   UNL     1       1.866   3.286  20.765  0.00  0.00    +0.000 C 
ATOM      9  N   UNL     1       2.151   4.473  20.361  0.00  0.00    +0.000 NA
ATOM     10  C   UNL     1       1.812   4.464  18.919  0.00  0.00    +0.000 C 
ATOM     11  C   UNL     1       1.230   3.077  18.667  0.00  0.00    +0.000 C 
ATOM     12  O   UNL     1       1.383   2.375  19.896  0.00  0.00    +0.000 OA
ATOM     13  H   UNL     1       2.699   3.343  22.559  0.00  0.00    +0.000 HD
ATOM     14  H   UNL     1       2.160   1.803  22.060  0.00  0.00    +0.000 HD
ENDBRANCH   1  10
BRANCH   6  15
ATOM     15  C   UNL     1       2.733   7.363  18.211  0.00  0.00    +0.000 C 
ATOM     16  F   UNL     1       1.473   7.545  17.734  0.00  0.00    +0.000 F 
ATOM     17  F   UNL     1       2.634   7.425  19.568  0.00  0.00    +0.000 F 
ATOM     18  F   UNL     1       3.415   8.486  17.841  0.00  0.00    +0.000 F 
ENDBRANCH   6  15
TORSDOF 2
ENDMDL
