MODEL 1
REMARK VINA RESULT:      -8.6      0.000      0.000
REMARK  Name = 
REMARK  4 active torsions:
REMARK  status: ('A' for Active; 'I' for Inactive)
REMARK    1  A    between atoms: C_2  and  C_5
REMARK    2  A    between atoms: N_3  and  O_4
REMARK    3  A    between atoms: N_15  and  C_16
REMARK    4  A    between atoms: C_16  and  C_17
REMARK                            x       y       z     vdW  Elec       q    Type
REMARK                         _______ _______ _______ _____ _____    ______ ____
ROOT
ATOM      1  C   UNL     1       3.072   4.061  19.643  0.00  0.00    +0.000 A 
ATOM      2  C   UNL     1       3.487   5.041  18.779  0.00  0.00    +0.000 A 
ATOM      3  N   UNL     1       3.079   6.328  18.867  0.00  0.00    +0.000 NA
ATOM      4  C   UNL     1       2.252   6.665  19.874  0.00  0.00    +0.000 A 
ATOM      5  N   UNL     1       1.794   7.954  19.963  0.00  0.00    +0.000 N 
ATOM      6  C   UNL     1       2.149   8.942  18.962  0.00  0.00    +0.000 C 
ATOM      7  C   UNL     1       0.866   9.641  18.495  0.00  0.00    +0.000 C 
ATOM      8  C   UNL     1       0.033  10.223  19.666  0.00  0.00    +0.000 C 
ATOM      9  C   UNL     1      -1.293  10.815  19.146  0.00  0.00    +0.000 C 
ATOM     10  C   UNL     1      -1.280  12.288  19.545  0.00  0.00    +0.000 C 
ATOM     11  N   UNL     1       0.129  12.649  19.760  0.00  0.00    +0.000 NA
ATOM     12  C   UNL     1       0.714  11.430  20.339  0.00  0.00    +0.000 C 
ATOM     13  C   UNL     1      -0.225   9.087  20.685  0.00  0.00    +0.000 C 
ATOM     14  C   UNL     1       1.074   8.416  21.138  0.00  0.00    +0.000 C 
ATOM     15  N   UNL     1       1.829   5.765  20.779  0.00  0.00    +0.000 NA
ATOM     16  C   UNL     1       2.246   4.489  20.651  0.00  0.00    +0.000 A 
ENDROOT
BRANCH   1  18
ATOM     17  O   UNL     1       2.777   1.796  19.104  0.00  0.00    +0.000 OA
ATOM     18  C   UNL     1       3.532   2.677  19.507  0.00  0.00    +0.000 C 
ATOM     19  N   UNL     1       4.831   2.420  19.887  0.00  0.00    +0.000 N 
ATOM     20  H   UNL     1       5.338   2.998  20.552  0.00  0.00    +0.000 HD
BRANCH  19  21
ATOM     21  O   UNL     1       5.203   1.054  19.853  0.00  0.00    +0.000 OA
ATOM     22  H   UNL     1       6.115   1.091  19.488  0.00  0.00    +0.000 HD
ENDBRANCH  19  21
ENDBRANCH   1  18
BRANCH  11  23
ATOM     23  C   UNL     1       0.753  13.120  18.512  0.00  0.00    +0.000 C 
BRANCH  23  24
ATOM     24  C   UNL     1       1.898  14.087  18.690  0.00  0.00    +0.000 A 
ATOM     25  C   UNL     1       1.724  15.258  19.415  0.00  0.00    +0.000 A 
ATOM     26  N   UNL     1       2.688  16.185  19.625  0.00  0.00    +0.000 NA
ATOM     27  C   UNL     1       3.911  15.947  19.116  0.00  0.00    +0.000 A 
ATOM     28  C   UNL     1       4.920  16.885  19.293  0.00  0.00    +0.000 A 
ATOM     29  C   UNL     1       6.210  16.678  18.795  0.00  0.00    +0.000 A 
ATOM     30  C   UNL     1       6.507  15.507  18.106  0.00  0.00    +0.000 A 
ATOM     31  C   UNL     1       5.509  14.554  17.908  0.00  0.00    +0.000 A 
ATOM     32  C   UNL     1       4.211  14.770  18.401  0.00  0.00    +0.000 A 
ATOM     33  C   UNL     1       3.183  13.838  18.204  0.00  0.00    +0.000 A 
ENDBRANCH  23  24
ENDBRANCH  11  23
TORSDOF 4
ENDMDL
MODEL 2
REMARK VINA RESULT:      -8.3      3.758      6.837
REMARK  Name = 
REMARK  4 active torsions:
REMARK  status: ('A' for Active; 'I' for Inactive)
REMARK    1  A    between atoms: C_2  and  C_5
REMARK    2  A    between atoms: N_3  and  O_4
REMARK    3  A    between atoms: N_15  and  C_16
REMARK    4  A    between atoms: C_16  and  C_17
REMARK                            x       y       z     vdW  Elec       q    Type
REMARK                         _______ _______ _______ _____ _____    ______ ____
ROOT
ATOM      1  C   UNL     1       4.107   5.833  18.288  0.00  0.00    +0.000 A 
ATOM      2  C   UNL     1       3.355   5.837  19.434  0.00  0.00    +0.000 A 
ATOM      3  N   UNL     1       2.504   6.837  19.759  0.00  0.00    +0.000 NA
ATOM      4  C   UNL     1       2.368   7.862  18.897  0.00  0.00    +0.000 A 
ATOM      5  N   UNL     1       1.542   8.907  19.221  0.00  0.00    +0.000 N 
ATOM      6  C   UNL     1       0.854   8.945  20.498  0.00  0.00    +0.000 C 
ATOM      7  C   UNL     1       1.091  10.319  21.135  0.00  0.00    +0.000 C 
ATOM      8  C   UNL     1       0.713  11.495  20.197  0.00  0.00    +0.000 C 
ATOM      9  C   UNL     1       1.075  12.846  20.848  0.00  0.00    +0.000 C 
ATOM     10  C   UNL     1      -0.234  13.625  20.951  0.00  0.00    +0.000 C 
ATOM     11  N   UNL     1      -1.315  12.631  20.901  0.00  0.00    +0.000 NA
ATOM     12  C   UNL     1      -0.806  11.611  19.971  0.00  0.00    +0.000 C 
ATOM     13  C   UNL     1       1.465  11.303  18.858  0.00  0.00    +0.000 C 
ATOM     14  C   UNL     1       1.201   9.926  18.243  0.00  0.00    +0.000 C 
ATOM     15  N   UNL     1       3.048   7.911  17.738  0.00  0.00    +0.000 NA
ATOM     16  C   UNL     1       3.897   6.902  17.454  0.00  0.00    +0.000 A 
ENDROOT
BRANCH   1  18
ATOM     17  O   UNL     1       5.579   4.102  18.871  0.00  0.00    +0.000 OA
ATOM     18  C   UNL     1       5.022   4.733  17.977  0.00  0.00    +0.000 C 
ATOM     19  N   UNL     1       5.244   4.476  16.641  0.00  0.00    +0.000 N 
ATOM     20  H   UNL     1       5.121   5.175  15.915  0.00  0.00    +0.000 HD
BRANCH  19  21
ATOM     21  O   UNL     1       6.221   3.485  16.381  0.00  0.00    +0.000 OA
ATOM     22  H   UNL     1       6.808   3.930  15.730  0.00  0.00    +0.000 HD
ENDBRANCH  19  21
ENDBRANCH   1  18
BRANCH  11  23
ATOM     23  C   UNL     1      -1.654  12.145  22.249  0.00  0.00    +0.000 C 
BRANCH  23  24
ATOM     24  C   UNL     1      -3.070  12.421  22.695  0.00  0.00    +0.000 A 
ATOM     25  C   UNL     1      -3.452  12.190  24.010  0.00  0.00    +0.000 A 
ATOM     26  N   UNL     1      -4.696  12.403  24.499  0.00  0.00    +0.000 NA
ATOM     27  C   UNL     1      -5.625  12.897  23.661  0.00  0.00    +0.000 A 
ATOM     28  C   UNL     1      -6.918  13.109  24.122  0.00  0.00    +0.000 A 
ATOM     29  C   UNL     1      -7.916  13.632  23.294  0.00  0.00    +0.000 A 
ATOM     30  C   UNL     1      -7.622  13.956  21.974  0.00  0.00    +0.000 A 
ATOM     31  C   UNL     1      -6.334  13.744  21.485  0.00  0.00    +0.000 A 
ATOM     32  C   UNL     1      -5.336  13.209  22.318  0.00  0.00    +0.000 A 
ATOM     33  C   UNL     1      -4.036  12.970  21.851  0.00  0.00    +0.000 A 
ENDBRANCH  23  24
ENDBRANCH  11  23
TORSDOF 4
ENDMDL
MODEL 3
REMARK VINA RESULT:      -8.3      2.889      6.313
REMARK  Name = 
REMARK  4 active torsions:
REMARK  status: ('A' for Active; 'I' for Inactive)
REMARK    1  A    between atoms: C_2  and  C_5
REMARK    2  A    between atoms: N_3  and  O_4
REMARK    3  A    between atoms: N_15  and  C_16
REMARK    4  A    between atoms: C_16  and  C_17
REMARK                            x       y       z     vdW  Elec       q    Type
REMARK                         _______ _______ _______ _____ _____    ______ ____
ROOT
ATOM      1  C   UNL     1       3.675   5.199  19.109  0.00  0.00    +0.000 A 
ATOM      2  C   UNL     1       2.774   5.536  20.086  0.00  0.00    +0.000 A 
ATOM      3  N   UNL     1       2.085   6.700  20.089  0.00  0.00    +0.000 NA
ATOM      4  C   UNL     1       2.272   7.553  19.064  0.00  0.00    +0.000 A 
ATOM      5  N   UNL     1       1.615   8.756  19.063  0.00  0.00    +0.000 N 
ATOM      6  C   UNL     1       0.763   9.141  20.173  0.00  0.00    +0.000 C 
ATOM      7  C   UNL     1       1.153  10.556  20.614  0.00  0.00    +0.000 C 
ATOM      8  C   UNL     1       1.144  11.578  19.448  0.00  0.00    +0.000 C 
ATOM      9  C   UNL     1       1.649  12.954  19.930  0.00  0.00    +0.000 C 
ATOM     10  C   UNL     1       0.507  13.934  19.669  0.00  0.00    +0.000 C 
ATOM     11  N   UNL     1      -0.720  13.129  19.585  0.00  0.00    +0.000 NA
ATOM     12  C   UNL     1      -0.276  11.886  18.937  0.00  0.00    +0.000 C 
ATOM     13  C   UNL     1       2.038  11.022  18.314  0.00  0.00    +0.000 C 
ATOM     14  C   UNL     1       1.618   9.613  17.889  0.00  0.00    +0.000 C 
ATOM     15  N   UNL     1       3.114   7.275  18.053  0.00  0.00    +0.000 NA
ATOM     16  C   UNL     1       3.794   6.111  18.091  0.00  0.00    +0.000 A 
ENDROOT
BRANCH   1  18
ATOM     17  O   UNL     1       5.612   3.902  19.379  0.00  0.00    +0.000 OA
ATOM     18  C   UNL     1       4.406   3.930  19.147  0.00  0.00    +0.000 C 
ATOM     19  N   UNL     1       3.678   2.792  18.876  0.00  0.00    +0.000 N 
ATOM     20  H   UNL     1       2.822   2.800  18.329  0.00  0.00    +0.000 HD
BRANCH  19  21
ATOM     21  O   UNL     1       4.440   1.601  18.807  0.00  0.00    +0.000 OA
ATOM     22  H   UNL     1       4.943   1.718  17.970  0.00  0.00    +0.000 HD
ENDBRANCH  19  21
ENDBRANCH   1  18
BRANCH  11  23
ATOM     23  C   UNL     1      -1.341  12.965  20.911  0.00  0.00    +0.000 C 
BRANCH  23  24
ATOM     24  C   UNL     1      -2.830  12.721  20.898  0.00  0.00    +0.000 A 
ATOM     25  C   UNL     1      -3.559  12.747  22.080  0.00  0.00    +0.000 A 
ATOM     26  N   UNL     1      -4.893  12.536  22.167  0.00  0.00    +0.000 NA
ATOM     27  C   UNL     1      -5.570  12.307  21.027  0.00  0.00    +0.000 A 
ATOM     28  C   UNL     1      -6.936  12.065  21.079  0.00  0.00    +0.000 A 
ATOM     29  C   UNL     1      -7.686  11.835  19.922  0.00  0.00    +0.000 A 
ATOM     30  C   UNL     1      -7.063  11.848  18.679  0.00  0.00    +0.000 A 
ATOM     31  C   UNL     1      -5.690  12.080  18.600  0.00  0.00    +0.000 A 
ATOM     32  C   UNL     1      -4.939  12.301  19.767  0.00  0.00    +0.000 A 
ATOM     33  C   UNL     1      -3.554  12.522  19.722  0.00  0.00    +0.000 A 
ENDBRANCH  23  24
ENDBRANCH  11  23
TORSDOF 4
ENDMDL
MODEL 4
REMARK VINA RESULT:      -8.1      3.224      6.509
REMARK  Name = 
REMARK  4 active torsions:
REMARK  status: ('A' for Active; 'I' for Inactive)
REMARK    1  A    between atoms: C_2  and  C_5
REMARK    2  A    between atoms: N_3  and  O_4
REMARK    3  A    between atoms: N_15  and  C_16
REMARK    4  A    between atoms: C_16  and  C_17
REMARK                            x       y       z     vdW  Elec       q    Type
REMARK                         _______ _______ _______ _____ _____    ______ ____
ROOT
ATOM      1  C   UNL     1       3.587   5.027  19.124  0.00  0.00    +0.000 A 
ATOM      2  C   UNL     1       2.782   5.363  20.181  0.00  0.00    +0.000 A 
ATOM      3  N   UNL     1       2.078   6.517  20.239  0.00  0.00    +0.000 NA
ATOM      4  C   UNL     1       2.150   7.359  19.191  0.00  0.00    +0.000 A 
ATOM      5  N   UNL     1       1.477   8.553  19.242  0.00  0.00    +0.000 N 
ATOM      6  C   UNL     1       0.733   8.939  20.425  0.00  0.00    +0.000 C 
ATOM      7  C   UNL     1       1.142  10.366  20.810  0.00  0.00    +0.000 C 
ATOM      8  C   UNL     1       1.003  11.373  19.640  0.00  0.00    +0.000 C 
ATOM      9  C   UNL     1       1.531  12.762  20.054  0.00  0.00    +0.000 C 
ATOM     10  C   UNL     1       0.354  13.722  19.897  0.00  0.00    +0.000 C 
ATOM     11  N   UNL     1      -0.863  12.898  19.943  0.00  0.00    +0.000 NA
ATOM     12  C   UNL     1      -0.465  11.654  19.267  0.00  0.00    +0.000 C 
ATOM     13  C   UNL     1       1.790  10.816  18.429  0.00  0.00    +0.000 C 
ATOM     14  C   UNL     1       1.352   9.395  18.064  0.00  0.00    +0.000 C 
ATOM     15  N   UNL     1       2.893   7.082  18.106  0.00  0.00    +0.000 NA
ATOM     16  C   UNL     1       3.591   5.928  18.089  0.00  0.00    +0.000 A 
ENDROOT
BRANCH   1  18
ATOM     17  O   UNL     1       5.550   3.754  19.303  0.00  0.00    +0.000 OA
ATOM     18  C   UNL     1       4.338   3.770  19.104  0.00  0.00    +0.000 C 
ATOM     19  N   UNL     1       3.620   2.629  18.818  0.00  0.00    +0.000 N 
ATOM     20  H   UNL     1       2.750   2.639  18.296  0.00  0.00    +0.000 HD
BRANCH  19  21
ATOM     21  O   UNL     1       4.398   1.452  18.693  0.00  0.00    +0.000 OA
ATOM     22  H   UNL     1       4.905   1.442  19.536  0.00  0.00    +0.000 HD
ENDBRANCH  19  21
ENDBRANCH   1  18
BRANCH  11  23
ATOM     23  C   UNL     1      -1.348  12.742  21.325  0.00  0.00    +0.000 C 
BRANCH  23  24
ATOM     24  C   UNL     1      -2.849  12.753  21.485  0.00  0.00    +0.000 A 
ATOM     25  C   UNL     1      -3.676  12.689  20.371  0.00  0.00    +0.000 A 
ATOM     26  N   UNL     1      -5.029  12.697  20.416  0.00  0.00    +0.000 NA
ATOM     27  C   UNL     1      -5.619  12.745  21.625  0.00  0.00    +0.000 A 
ATOM     28  C   UNL     1      -7.005  12.776  21.710  0.00  0.00    +0.000 A 
ATOM     29  C   UNL     1      -7.665  12.813  22.941  0.00  0.00    +0.000 A 
ATOM     30  C   UNL     1      -6.929  12.817  24.122  0.00  0.00    +0.000 A 
ATOM     31  C   UNL     1      -5.536  12.796  24.063  0.00  0.00    +0.000 A 
ATOM     32  C   UNL     1      -4.877  12.768  22.823  0.00  0.00    +0.000 A 
ATOM     33  C   UNL     1      -3.477  12.762  22.731  0.00  0.00    +0.000 A 
ENDBRANCH  23  24
ENDBRANCH  11  23
TORSDOF 4
ENDMDL
MODEL 5
REMARK VINA RESULT:      -8.0      0.832      1.334
REMARK  Name = 
REMARK  4 active torsions:
REMARK  status: ('A' for Active; 'I' for Inactive)
REMARK    1  A    between atoms: C_2  and  C_5
REMARK    2  A    between atoms: N_3  and  O_4
REMARK    3  A    between atoms: N_15  and  C_16
REMARK    4  A    between atoms: C_16  and  C_17
REMARK                            x       y       z     vdW  Elec       q    Type
REMARK                         _______ _______ _______ _____ _____    ______ ____
ROOT
ATOM      1  C   UNL     1       3.107   4.555  19.343  0.00  0.00    +0.000 A 
ATOM      2  C   UNL     1       3.387   5.570  18.466  0.00  0.00    +0.000 A 
ATOM      3  N   UNL     1       2.914   6.829  18.615  0.00  0.00    +0.000 NA
ATOM      4  C   UNL     1       2.160   7.102  19.696  0.00  0.00    +0.000 A 
ATOM      5  N   UNL     1       1.637   8.359  19.850  0.00  0.00    +0.000 N 
ATOM      6  C   UNL     1       1.844   9.382  18.842  0.00  0.00    +0.000 C 
ATOM      7  C   UNL     1       0.487  10.009  18.502  0.00  0.00    +0.000 C 
ATOM      8  C   UNL     1      -0.272  10.523  19.752  0.00  0.00    +0.000 C 
ATOM      9  C   UNL     1      -1.672  11.042  19.361  0.00  0.00    +0.000 C 
ATOM     10  C   UNL     1      -1.710  12.507  19.787  0.00  0.00    +0.000 C 
ATOM     11  N   UNL     1      -0.311  12.948  19.885  0.00  0.00    +0.000 NA
ATOM     12  C   UNL     1       0.393  11.759  20.387  0.00  0.00    +0.000 C 
ATOM     13  C   UNL     1      -0.373   9.359  20.766  0.00  0.00    +0.000 C 
ATOM     14  C   UNL     1       0.997   8.760  21.092  0.00  0.00    +0.000 C 
ATOM     15  N   UNL     1       1.871   6.164  20.616  0.00  0.00    +0.000 NA
ATOM     16  C   UNL     1       2.349   4.917  20.427  0.00  0.00    +0.000 A 
ENDROOT
BRANCH   1  18
ATOM     17  O   UNL     1       3.095   2.425  18.357  0.00  0.00    +0.000 OA
ATOM     18  C   UNL     1       3.634   3.203  19.140  0.00  0.00    +0.000 C 
ATOM     19  N   UNL     1       4.731   2.850  19.896  0.00  0.00    +0.000 N 
ATOM     20  H   UNL     1       4.958   3.291  20.782  0.00  0.00    +0.000 HD
BRANCH  19  21
ATOM     21  O   UNL     1       5.139   1.501  19.759  0.00  0.00    +0.000 OA
ATOM     22  H   UNL     1       5.410   1.267  20.674  0.00  0.00    +0.000 HD
ENDBRANCH  19  21
ENDBRANCH   1  18
BRANCH  11  23
ATOM     23  C   UNL     1       0.173  13.474  18.597  0.00  0.00    +0.000 C 
BRANCH  23  24
ATOM     24  C   UNL     1       1.607  13.946  18.593  0.00  0.00    +0.000 A 
ATOM     25  C   UNL     1       2.608  13.153  18.049  0.00  0.00    +0.000 A 
ATOM     26  N   UNL     1       3.918  13.489  18.004  0.00  0.00    +0.000 NA
ATOM     27  C   UNL     1       4.277  14.688  18.499  0.00  0.00    +0.000 A 
ATOM     28  C   UNL     1       5.616  15.060  18.490  0.00  0.00    +0.000 A 
ATOM     29  C   UNL     1       6.038  16.299  18.980  0.00  0.00    +0.000 A 
ATOM     30  C   UNL     1       5.105  17.195  19.491  0.00  0.00    +0.000 A 
ATOM     31  C   UNL     1       3.757  16.843  19.520  0.00  0.00    +0.000 A 
ATOM     32  C   UNL     1       3.338  15.592  19.035  0.00  0.00    +0.000 A 
ATOM     33  C   UNL     1       1.991  15.202  19.065  0.00  0.00    +0.000 A 
ENDBRANCH  23  24
ENDBRANCH  11  23
TORSDOF 4
ENDMDL
MODEL 6
REMARK VINA RESULT:      -8.0      1.016      1.053
REMARK  Name = 
REMARK  4 active torsions:
REMARK  status: ('A' for Active; 'I' for Inactive)
REMARK    1  A    between atoms: C_2  and  C_5
REMARK    2  A    between atoms: N_3  and  O_4
REMARK    3  A    between atoms: N_15  and  C_16
REMARK    4  A    between atoms: C_16  and  C_17
REMARK                            x       y       z     vdW  Elec       q    Type
REMARK                         _______ _______ _______ _____ _____    ______ ____
ROOT
ATOM      1  C   UNL     1       3.355   4.966  18.624  0.00  0.00    +0.000 A 
ATOM      2  C   UNL     1       3.577   6.073  17.848  0.00  0.00    +0.000 A 
ATOM      3  N   UNL     1       3.045   7.288  18.119  0.00  0.00    +0.000 NA
ATOM      4  C   UNL     1       2.289   7.418  19.224  0.00  0.00    +0.000 A 
ATOM      5  N   UNL     1       1.707   8.628  19.500  0.00  0.00    +0.000 N 
ATOM      6  C   UNL     1       1.855   9.751  18.594  0.00  0.00    +0.000 C 
ATOM      7  C   UNL     1       0.466  10.341  18.322  0.00  0.00    +0.000 C 
ATOM      8  C   UNL     1      -0.306  10.695  19.618  0.00  0.00    +0.000 C 
ATOM      9  C   UNL     1      -1.732  11.179  19.284  0.00  0.00    +0.000 C 
ATOM     10  C   UNL     1      -1.838  12.594  19.849  0.00  0.00    +0.000 C 
ATOM     11  N   UNL     1      -0.461  13.091  19.983  0.00  0.00    +0.000 NA
ATOM     12  C   UNL     1       0.305  11.895  20.366  0.00  0.00    +0.000 C 
ATOM     13  C   UNL     1      -0.341   9.436  20.517  0.00  0.00    +0.000 C 
ATOM     14  C   UNL     1       1.060   8.876  20.778  0.00  0.00    +0.000 C 
ATOM     15  N   UNL     1       2.054   6.384  20.051  0.00  0.00    +0.000 NA
ATOM     16  C   UNL     1       2.590   5.186  19.741  0.00  0.00    +0.000 A 
ENDROOT
BRANCH   1  18
ATOM     17  O   UNL     1       4.595   3.514  17.260  0.00  0.00    +0.000 OA
ATOM     18  C   UNL     1       3.945   3.667  18.291  0.00  0.00    +0.000 C 
ATOM     19  N   UNL     1       3.699   2.636  19.171  0.00  0.00    +0.000 N 
ATOM     20  H   UNL     1       2.896   2.617  19.792  0.00  0.00    +0.000 HD
BRANCH  19  21
ATOM     21  O   UNL     1       4.186   1.372  18.757  0.00  0.00    +0.000 OA
ATOM     22  H   UNL     1       4.795   1.129  19.489  0.00  0.00    +0.000 HD
ENDBRANCH  19  21
ENDBRANCH   1  18
BRANCH  11  23
ATOM     23  C   UNL     1      -0.015  13.761  18.750  0.00  0.00    +0.000 C 
BRANCH  23  24
ATOM     24  C   UNL     1       1.272  14.542  18.870  0.00  0.00    +0.000 A 
ATOM     25  C   UNL     1       1.314  15.721  19.601  0.00  0.00    +0.000 A 
ATOM     26  N   UNL     1       2.417  16.489  19.762  0.00  0.00    +0.000 NA
ATOM     27  C   UNL     1       3.563  16.070  19.194  0.00  0.00    +0.000 A 
ATOM     28  C   UNL     1       4.711  16.842  19.320  0.00  0.00    +0.000 A 
ATOM     29  C   UNL     1       5.928  16.445  18.760  0.00  0.00    +0.000 A 
ATOM     30  C   UNL     1       6.009  15.246  18.059  0.00  0.00    +0.000 A 
ATOM     31  C   UNL     1       4.869  14.457  17.911  0.00  0.00    +0.000 A 
ATOM     32  C   UNL     1       3.645  14.866  18.467  0.00  0.00    +0.000 A 
ATOM     33  C   UNL     1       2.478  14.102  18.323  0.00  0.00    +0.000 A 
ENDBRANCH  23  24
ENDBRANCH  11  23
TORSDOF 4
ENDMDL
MODEL 7
REMARK VINA RESULT:      -7.9      3.504      6.649
REMARK  Name = 
REMARK  4 active torsions:
REMARK  status: ('A' for Active; 'I' for Inactive)
REMARK    1  A    between atoms: C_2  and  C_5
REMARK    2  A    between atoms: N_3  and  O_4
REMARK    3  A    between atoms: N_15  and  C_16
REMARK    4  A    between atoms: C_16  and  C_17
REMARK                            x       y       z     vdW  Elec       q    Type
REMARK                         _______ _______ _______ _____ _____    ______ ____
ROOT
ATOM      1  C   UNL     1       3.266   4.882  19.284  0.00  0.00    +0.000 A 
ATOM      2  C   UNL     1       2.530   5.118  20.416  0.00  0.00    +0.000 A 
ATOM      3  N   UNL     1       1.835   6.259  20.623  0.00  0.00    +0.000 NA
ATOM      4  C   UNL     1       1.843   7.194  19.654  0.00  0.00    +0.000 A 
ATOM      5  N   UNL     1       1.179   8.376  19.856  0.00  0.00    +0.000 N 
ATOM      6  C   UNL     1       0.512   8.651  21.115  0.00  0.00    +0.000 C 
ATOM      7  C   UNL     1       0.950  10.038  21.602  0.00  0.00    +0.000 C 
ATOM      8  C   UNL     1       0.740  11.147  20.539  0.00  0.00    +0.000 C 
ATOM      9  C   UNL     1       1.298  12.494  21.045  0.00  0.00    +0.000 C 
ATOM     10  C   UNL     1       0.116  13.461  21.050  0.00  0.00    +0.000 C 
ATOM     11  N   UNL     1      -1.098  12.634  21.098  0.00  0.00    +0.000 NA
ATOM     12  C   UNL     1      -0.748  11.457  20.288  0.00  0.00    +0.000 C 
ATOM     13  C   UNL     1       1.447  10.705  19.236  0.00  0.00    +0.000 C 
ATOM     14  C   UNL     1       0.982   9.322  18.770  0.00  0.00    +0.000 C 
ATOM     15  N   UNL     1       2.515   7.019  18.503  0.00  0.00    +0.000 NA
ATOM     16  C   UNL     1       3.207   5.873  18.337  0.00  0.00    +0.000 A 
ENDROOT
BRANCH   1  18
ATOM     17  O   UNL     1       5.204   3.563  19.378  0.00  0.00    +0.000 OA
ATOM     18  C   UNL     1       4.010   3.633  19.101  0.00  0.00    +0.000 C 
ATOM     19  N   UNL     1       3.308   2.570  18.576  0.00  0.00    +0.000 N 
ATOM     20  H   UNL     1       2.477   2.683  18.004  0.00  0.00    +0.000 HD
BRANCH  19  21
ATOM     21  O   UNL     1       4.087   1.418  18.306  0.00  0.00    +0.000 OA
ATOM     22  H   UNL     1       4.137   0.984  19.187  0.00  0.00    +0.000 HD
ENDBRANCH  19  21
ENDBRANCH   1  18
BRANCH  11  23
ATOM     23  C   UNL     1      -1.495  12.351  22.488  0.00  0.00    +0.000 C 
BRANCH  23  24
ATOM     24  C   UNL     1      -2.965  12.523  22.785  0.00  0.00    +0.000 A 
ATOM     25  C   UNL     1      -3.469  12.221  24.043  0.00  0.00    +0.000 A 
ATOM     26  N   UNL     1      -4.770  12.339  24.400  0.00  0.00    +0.000 NA
ATOM     27  C   UNL     1      -5.635  12.805  23.480  0.00  0.00    +0.000 A 
ATOM     28  C   UNL     1      -6.980  12.921  23.803  0.00  0.00    +0.000 A 
ATOM     29  C   UNL     1      -7.916  13.411  22.888  0.00  0.00    +0.000 A 
ATOM     30  C   UNL     1      -7.504  13.801  21.618  0.00  0.00    +0.000 A 
ATOM     31  C   UNL     1      -6.160  13.686  21.266  0.00  0.00    +0.000 A 
ATOM     32  C   UNL     1      -5.225  13.184  22.186  0.00  0.00    +0.000 A 
ATOM     33  C   UNL     1      -3.869  13.042  21.857  0.00  0.00    +0.000 A 
ENDBRANCH  23  24
ENDBRANCH  11  23
TORSDOF 4
ENDMDL
MODEL 8
REMARK VINA RESULT:      -7.9      3.758      6.803
REMARK  Name = 
REMARK  4 active torsions:
REMARK  status: ('A' for Active; 'I' for Inactive)
REMARK    1  A    between atoms: C_2  and  C_5
REMARK    2  A    between atoms: N_3  and  O_4
REMARK    3  A    between atoms: N_15  and  C_16
REMARK    4  A    between atoms: C_16  and  C_17
REMARK                            x       y       z     vdW  Elec       q    Type
REMARK                         _______ _______ _______ _____ _____    ______ ____
ROOT
ATOM      1  C   UNL     1       3.310   5.863  18.787  0.00  0.00    +0.000 A 
ATOM      2  C   UNL     1       2.662   6.049  19.981  0.00  0.00    +0.000 A 
ATOM      3  N   UNL     1       1.929   7.151  20.262  0.00  0.00    +0.000 NA
ATOM      4  C   UNL     1       1.806   8.094  19.310  0.00  0.00    +0.000 A 
ATOM      5  N   UNL     1       1.102   9.237  19.584  0.00  0.00    +0.000 N 
ATOM      6  C   UNL     1       0.532   9.465  20.898  0.00  0.00    +0.000 C 
ATOM      7  C   UNL     1       0.937  10.867  21.366  0.00  0.00    +0.000 C 
ATOM      8  C   UNL     1       0.580  11.975  20.341  0.00  0.00    +0.000 C 
ATOM      9  C   UNL     1       1.109  13.344  20.816  0.00  0.00    +0.000 C 
ATOM     10  C   UNL     1      -0.116  14.247  20.935  0.00  0.00    +0.000 C 
ATOM     11  N   UNL     1      -1.278  13.357  21.074  0.00  0.00    +0.000 NA
ATOM     12  C   UNL     1      -0.938  12.208  20.220  0.00  0.00    +0.000 C 
ATOM     13  C   UNL     1       1.196  11.583  18.976  0.00  0.00    +0.000 C 
ATOM     14  C   UNL     1       0.765  10.183  18.532  0.00  0.00    +0.000 C 
ATOM     15  N   UNL     1       2.387   7.966  18.104  0.00  0.00    +0.000 NA
ATOM     16  C   UNL     1       3.120   6.859  17.864  0.00  0.00    +0.000 A 
ENDROOT
BRANCH   1  18
ATOM     17  O   UNL     1       4.519   4.409  17.398  0.00  0.00    +0.000 OA
ATOM     18  C   UNL     1       4.099   4.657  18.525  0.00  0.00    +0.000 C 
ATOM     19  N   UNL     1       4.308   3.814  19.595  0.00  0.00    +0.000 N 
ATOM     20  H   UNL     1       3.691   3.779  20.401  0.00  0.00    +0.000 HD
BRANCH  19  21
ATOM     21  O   UNL     1       4.973   2.605  19.278  0.00  0.00    +0.000 OA
ATOM     22  H   UNL     1       4.232   1.961  19.228  0.00  0.00    +0.000 HD
ENDBRANCH  19  21
ENDBRANCH   1  18
BRANCH  11  23
ATOM     23  C   UNL     1      -1.540  13.040  22.488  0.00  0.00    +0.000 C 
BRANCH  23  24
ATOM     24  C   UNL     1      -2.994  13.055  22.892  0.00  0.00    +0.000 A 
ATOM     25  C   UNL     1      -3.463  12.187  23.868  0.00  0.00    +0.000 A 
ATOM     26  N   UNL     1      -4.748  12.125  24.291  0.00  0.00    +0.000 NA
ATOM     27  C   UNL     1      -5.631  12.981  23.747  0.00  0.00    +0.000 A 
ATOM     28  C   UNL     1      -6.962  12.934  24.141  0.00  0.00    +0.000 A 
ATOM     29  C   UNL     1      -7.916  13.810  23.615  0.00  0.00    +0.000 A 
ATOM     30  C   UNL     1      -7.537  14.762  22.674  0.00  0.00    +0.000 A 
ATOM     31  C   UNL     1      -6.209  14.825  22.255  0.00  0.00    +0.000 A 
ATOM     32  C   UNL     1      -5.256  13.935  22.780  0.00  0.00    +0.000 A 
ATOM     33  C   UNL     1      -3.916  13.963  22.367  0.00  0.00    +0.000 A 
ENDBRANCH  23  24
ENDBRANCH  11  23
TORSDOF 4
ENDMDL
MODEL 9
REMARK VINA RESULT:      -7.8      1.113      1.176
REMARK  Name = 
REMARK  4 active torsions:
REMARK  status: ('A' for Active; 'I' for Inactive)
REMARK    1  A    between atoms: C_2  and  C_5
REMARK    2  A    between atoms: N_3  and  O_4
REMARK    3  A    between atoms: N_15  and  C_16
REMARK    4  A    between atoms: C_16  and  C_17
REMARK                            x       y       z     vdW  Elec       q    Type
REMARK                         _______ _______ _______ _____ _____    ______ ____
ROOT
ATOM      1  C   UNL     1       2.803   3.951  18.666  0.00  0.00    +0.000 A 
ATOM      2  C   UNL     1       3.134   5.014  17.866  0.00  0.00    +0.000 A 
ATOM      3  N   UNL     1       2.845   6.297  18.181  0.00  0.00    +0.000 NA
ATOM      4  C   UNL     1       2.230   6.541  19.353  0.00  0.00    +0.000 A 
ATOM      5  N   UNL     1       1.891   7.829  19.678  0.00  0.00    +0.000 N 
ATOM      6  C   UNL     1       2.141   8.921  18.757  0.00  0.00    +0.000 C 
ATOM      7  C   UNL     1       0.853   9.741  18.616  0.00  0.00    +0.000 C 
ATOM      8  C   UNL     1       0.279  10.205  19.980  0.00  0.00    +0.000 C 
ATOM      9  C   UNL     1      -1.070  10.928  19.781  0.00  0.00    +0.000 C 
ATOM     10  C   UNL     1      -0.879  12.333  20.347  0.00  0.00    +0.000 C 
ATOM     11  N   UNL     1       0.569  12.589  20.346  0.00  0.00    +0.000 NA
ATOM     12  C   UNL     1       1.153  11.276  20.660  0.00  0.00    +0.000 C 
ATOM     13  C   UNL     1       0.116   8.960  20.883  0.00  0.00    +0.000 C 
ATOM     14  C   UNL     1       1.420   8.168  21.011  0.00  0.00    +0.000 C 
ATOM     15  N   UNL     1       1.903   5.552  20.204  0.00  0.00    +0.000 NA
ATOM     16  C   UNL     1       2.196   4.284  19.850  0.00  0.00    +0.000 A 
ENDROOT
BRANCH   1  18
ATOM     17  O   UNL     1       2.449   1.970  17.459  0.00  0.00    +0.000 OA
ATOM     18  C   UNL     1       3.129   2.575  18.283  0.00  0.00    +0.000 C 
ATOM     19  N   UNL     1       4.205   1.998  18.921  0.00  0.00    +0.000 N 
ATOM     20  H   UNL     1       4.536   2.300  19.833  0.00  0.00    +0.000 HD
BRANCH  19  21
ATOM     21  O   UNL     1       4.418   0.633  18.612  0.00  0.00    +0.000 OA
ATOM     22  H   UNL     1       4.756   0.272  19.462  0.00  0.00    +0.000 HD
ENDBRANCH  19  21
ENDBRANCH   1  18
BRANCH  11  23
ATOM     23  C   UNL     1       1.002  13.188  19.073  0.00  0.00    +0.000 C 
BRANCH  23  24
ATOM     24  C   UNL     1       2.091  14.227  19.188  0.00  0.00    +0.000 A 
ATOM     25  C   UNL     1       1.974  15.446  18.533  0.00  0.00    +0.000 A 
ATOM     26  N   UNL     1       2.897  16.434  18.574  0.00  0.00    +0.000 NA
ATOM     27  C   UNL     1       3.998  16.236  19.322  0.00  0.00    +0.000 A 
ATOM     28  C   UNL     1       4.978  17.219  19.372  0.00  0.00    +0.000 A 
ATOM     29  C   UNL     1       6.133  17.067  20.144  0.00  0.00    +0.000 A 
ATOM     30  C   UNL     1       6.320  15.907  20.890  0.00  0.00    +0.000 A 
ATOM     31  C   UNL     1       5.355  14.901  20.849  0.00  0.00    +0.000 A 
ATOM     32  C   UNL     1       4.200  15.055  20.064  0.00  0.00    +0.000 A 
ATOM     33  C   UNL     1       3.220  14.055  19.991  0.00  0.00    +0.000 A 
ENDBRANCH  23  24
ENDBRANCH  11  23
TORSDOF 4
ENDMDL
