MODEL 1
REMARK VINA RESULT:      -7.5      0.000      0.000
REMARK  Name = 
REMARK  11 active torsions:
REMARK  status: ('A' for Active; 'I' for Inactive)
REMARK    1  A    between atoms: C_1  and  O_2
REMARK    2  A    between atoms: O_2  and  C_3
REMARK    3  A    between atoms: C_7  and  C_8
REMARK    4  A    between atoms: C_14  and  C_15
REMARK    5  A    between atoms: C_22  and  C_23
REMARK    6  A    between atoms: N_26  and  O_27
REMARK    7  A    between atoms: O_27  and  C_28
REMARK    8  A    between atoms: C_28  and  C_29
REMARK    9  A    between atoms: C_29  and  C_30
REMARK   10  A    between atoms: C_30  and  C_31
REMARK   11  A    between atoms: C_31  and  O_32
REMARK                            x       y       z     vdW  Elec       q    Type
REMARK                         _______ _______ _______ _____ _____    ______ ____
ROOT
ATOM      1  C   UNL     1       4.290   5.651  17.164  0.00  0.00    +0.000 C 
ATOM      2  C   UNL     1       3.321   4.510  17.473  0.00  0.00    +0.000 C 
ATOM      3  C   UNL     1       2.543   4.713  18.735  0.00  0.00    +0.000 A 
ATOM      4  N   UNL     1       2.071   3.577  19.316  0.00  0.00    +0.000 NA
ATOM      5  C   UNL     1       1.315   3.719  20.399  0.00  0.00    +0.000 A 
ATOM      6  N   UNL     1       0.810   2.582  20.991  0.00  0.00    +0.000 N 
ATOM      7  N   UNL     1       0.969   4.898  20.914  0.00  0.00    +0.000 NA
ATOM      8  C   UNL     1       1.431   6.028  20.312  0.00  0.00    +0.000 A 
ATOM      9  C   UNL     1       1.021   7.266  21.051  0.00  0.00    +0.000 C 
ATOM     10  C   UNL     1       2.248   5.987  19.187  0.00  0.00    +0.000 A 
ATOM     11  C   UNL     1       2.825   7.138  18.409  0.00  0.00    +0.000 C 
ATOM     12  N   UNL     1       2.382   8.428  18.697  0.00  0.00    +0.000 N 
ATOM     13  N   UNL     1       3.726   6.978  17.497  0.00  0.00    +0.000 NA
ATOM     14  H   UNL     1       0.764   1.838  20.309  0.00  0.00    +0.000 HD
ATOM     15  H   UNL     1      -0.038   2.806  21.490  0.00  0.00    +0.000 HD
ATOM     16  H   UNL     1       2.975   8.841  19.421  0.00  0.00    +0.000 HD
ENDROOT
BRANCH   1  23
ATOM     17  C   UNL     1       6.811   4.979  17.013  0.00  0.00    +0.000 A 
ATOM     18  C   UNL     1       8.023   4.798  17.731  0.00  0.00    +0.000 A 
ATOM     19  C   UNL     1       8.132   5.049  19.094  0.00  0.00    +0.000 A 
ATOM     20  F   UNL     1       9.316   4.890  19.701  0.00  0.00    +0.000 F 
ATOM     21  C   UNL     1       7.040   5.461  19.823  0.00  0.00    +0.000 A 
ATOM     22  C   UNL     1       5.826   5.631  19.171  0.00  0.00    +0.000 A 
ATOM     23  C   UNL     1       5.679   5.414  17.774  0.00  0.00    +0.000 A 
BRANCH  17  28
ATOM     24  C   UNL     1       7.630   5.232  13.417  0.00  0.00    +0.000 A 
ATOM     25  C   UNL     1       6.821   4.296  12.795  0.00  0.00    +0.000 A 
ATOM     26  C   UNL     1       5.971   3.548  13.583  0.00  0.00    +0.000 A 
ATOM     27  C   UNL     1       5.981   3.750  14.961  0.00  0.00    +0.000 A 
ATOM     28  C   UNL     1       6.826   4.714  15.536  0.00  0.00    +0.000 A 
ATOM     29  N   UNL     1       7.649   5.463  14.757  0.00  0.00    +0.000 NA
BRANCH  24  31
ATOM     30  C   UNL     1       7.843   6.207  11.288  0.00  0.00    +0.000 C 
ATOM     31  O   UNL     1       8.433   5.953  12.551  0.00  0.00    +0.000 OA
ENDBRANCH  24  31
ENDBRANCH  17  28
ENDBRANCH   1  23
BRANCH  12  32
ATOM     32  O   UNL     1       2.446   9.287  17.573  0.00  0.00    +0.000 OA
BRANCH  32  33
ATOM     33  C   UNL     1       1.719  10.468  17.917  0.00  0.00    +0.000 C 
BRANCH  33  34
ATOM     34  C   UNL     1       0.473  10.121  18.731  0.00  0.00    +0.000 C 
BRANCH  34  35
ATOM     35  C   UNL     1      -0.421  11.296  19.145  0.00  0.00    +0.000 C 
BRANCH  35  36
ATOM     36  C   UNL     1      -1.498  11.674  18.134  0.00  0.00    +0.000 C 
BRANCH  36  37
ATOM     37  O   UNL     1      -1.121  12.764  17.311  0.00  0.00    +0.000 OA
ATOM     38  H   UNL     1      -1.838  13.433  17.318  0.00  0.00    +0.000 HD
ENDBRANCH  36  37
ENDBRANCH  35  36
ENDBRANCH  34  35
ENDBRANCH  33  34
ENDBRANCH  32  33
ENDBRANCH  12  32
TORSDOF 9
ENDMDL
MODEL 2
REMARK VINA RESULT:      -7.3      8.248     11.459
REMARK  Name = 
REMARK  11 active torsions:
REMARK  status: ('A' for Active; 'I' for Inactive)
REMARK    1  A    between atoms: C_1  and  O_2
REMARK    2  A    between atoms: O_2  and  C_3
REMARK    3  A    between atoms: C_7  and  C_8
REMARK    4  A    between atoms: C_14  and  C_15
REMARK    5  A    between atoms: C_22  and  C_23
REMARK    6  A    between atoms: N_26  and  O_27
REMARK    7  A    between atoms: O_27  and  C_28
REMARK    8  A    between atoms: C_28  and  C_29
REMARK    9  A    between atoms: C_29  and  C_30
REMARK   10  A    between atoms: C_30  and  C_31
REMARK   11  A    between atoms: C_31  and  O_32
REMARK                            x       y       z     vdW  Elec       q    Type
REMARK                         _______ _______ _______ _____ _____    ______ ____
ROOT
ATOM      1  C   UNL     1      -1.475  12.761  19.969  0.00  0.00    +0.000 C 
ATOM      2  C   UNL     1      -1.331  12.569  18.459  0.00  0.00    +0.000 C 
ATOM      3  C   UNL     1      -2.448  11.785  17.846  0.00  0.00    +0.000 A 
ATOM      4  N   UNL     1      -2.148  11.165  16.673  0.00  0.00    +0.000 NA
ATOM      5  C   UNL     1      -3.133  10.518  16.060  0.00  0.00    +0.000 A 
ATOM      6  N   UNL     1      -2.855   9.900  14.861  0.00  0.00    +0.000 N 
ATOM      7  N   UNL     1      -4.387  10.477  16.509  0.00  0.00    +0.000 NA
ATOM      8  C   UNL     1      -4.679  11.119  17.673  0.00  0.00    +0.000 A 
ATOM      9  C   UNL     1      -6.107  10.917  18.083  0.00  0.00    +0.000 C 
ATOM     10  C   UNL     1      -3.715  11.805  18.403  0.00  0.00    +0.000 A 
ATOM     11  C   UNL     1      -3.882  12.566  19.690  0.00  0.00    +0.000 C 
ATOM     12  N   UNL     1      -5.172  12.792  20.169  0.00  0.00    +0.000 N 
ATOM     13  N   UNL     1      -2.877  13.001  20.376  0.00  0.00    +0.000 NA
ATOM     14  H   UNL     1      -2.057  10.344  14.429  0.00  0.00    +0.000 HD
ATOM     15  H   UNL     1      -3.699   9.829  14.312  0.00  0.00    +0.000 HD
ATOM     16  H   UNL     1      -5.449  12.024  20.784  0.00  0.00    +0.000 HD
ENDROOT
BRANCH   1  23
ATOM     17  C   UNL     1      -0.984  11.441  22.170  0.00  0.00    +0.000 A 
ATOM     18  C   UNL     1      -0.279  10.355  22.756  0.00  0.00    +0.000 A 
ATOM     19  C   UNL     1       0.530   9.500  22.017  0.00  0.00    +0.000 A 
ATOM     20  F   UNL     1       1.138   8.475  22.630  0.00  0.00    +0.000 F 
ATOM     21  C   UNL     1       0.709   9.693  20.667  0.00  0.00    +0.000 A 
ATOM     22  C   UNL     1       0.059  10.755  20.051  0.00  0.00    +0.000 A 
ATOM     23  C   UNL     1      -0.800  11.634  20.764  0.00  0.00    +0.000 A 
BRANCH  17  28
ATOM     24  C   UNL     1      -3.848  12.530  24.239  0.00  0.00    +0.000 A 
ATOM     25  C   UNL     1      -3.528  13.813  24.652  0.00  0.00    +0.000 A 
ATOM     26  C   UNL     1      -2.324  14.346  24.240  0.00  0.00    +0.000 A 
ATOM     27  C   UNL     1      -1.481  13.568  23.450  0.00  0.00    +0.000 A 
ATOM     28  C   UNL     1      -1.859  12.272  23.063  0.00  0.00    +0.000 A 
ATOM     29  N   UNL     1      -3.053  11.755  23.454  0.00  0.00    +0.000 NA
BRANCH  24  31
ATOM     30  C   UNL     1      -6.183  12.769  24.109  0.00  0.00    +0.000 C 
ATOM     31  O   UNL     1      -5.081  12.084  24.678  0.00  0.00    +0.000 OA
ENDBRANCH  24  31
ENDBRANCH  17  28
ENDBRANCH   1  23
BRANCH  12  32
ATOM     32  O   UNL     1      -5.266  13.983  20.930  0.00  0.00    +0.000 OA
BRANCH  32  33
ATOM     33  C   UNL     1      -6.540  14.560  20.633  0.00  0.00    +0.000 C 
BRANCH  33  34
ATOM     34  C   UNL     1      -6.973  14.215  19.208  0.00  0.00    +0.000 C 
BRANCH  34  35
ATOM     35  C   UNL     1      -6.809  15.322  18.158  0.00  0.00    +0.000 C 
BRANCH  35  36
ATOM     36  C   UNL     1      -7.672  15.159  16.912  0.00  0.00    +0.000 C 
BRANCH  36  37
ATOM     37  O   UNL     1      -6.999  15.540  15.725  0.00  0.00    +0.000 OA
ATOM     38  H   UNL     1      -6.749  14.733  15.226  0.00  0.00    +0.000 HD
ENDBRANCH  36  37
ENDBRANCH  35  36
ENDBRANCH  34  35
ENDBRANCH  33  34
ENDBRANCH  32  33
ENDBRANCH  12  32
TORSDOF 9
ENDMDL
MODEL 3
REMARK VINA RESULT:      -7.1      8.854     11.913
REMARK  Name = 
REMARK  11 active torsions:
REMARK  status: ('A' for Active; 'I' for Inactive)
REMARK    1  A    between atoms: C_1  and  O_2
REMARK    2  A    between atoms: O_2  and  C_3
REMARK    3  A    between atoms: C_7  and  C_8
REMARK    4  A    between atoms: C_14  and  C_15
REMARK    5  A    between atoms: C_22  and  C_23
REMARK    6  A    between atoms: N_26  and  O_27
REMARK    7  A    between atoms: O_27  and  C_28
REMARK    8  A    between atoms: C_28  and  C_29
REMARK    9  A    between atoms: C_29  and  C_30
REMARK   10  A    between atoms: C_30  and  C_31
REMARK   11  A    between atoms: C_31  and  O_32
REMARK                            x       y       z     vdW  Elec       q    Type
REMARK                         _______ _______ _______ _____ _____    ______ ____
ROOT
ATOM      1  C   UNL     1      -2.287  11.484  19.482  0.00  0.00    +0.000 C 
ATOM      2  C   UNL     1      -0.776  11.250  19.509  0.00  0.00    +0.000 C 
ATOM      3  C   UNL     1       0.023  12.458  19.130  0.00  0.00    +0.000 A 
ATOM      4  N   UNL     1       1.271  12.202  18.655  0.00  0.00    +0.000 NA
ATOM      5  C   UNL     1       2.039  13.250  18.375  0.00  0.00    +0.000 A 
ATOM      6  N   UNL     1       3.314  13.014  17.911  0.00  0.00    +0.000 N 
ATOM      7  N   UNL     1       1.668  14.515  18.567  0.00  0.00    +0.000 NA
ATOM      8  C   UNL     1       0.423  14.757  19.062  0.00  0.00    +0.000 A 
ATOM      9  C   UNL     1       0.129  16.224  19.149  0.00  0.00    +0.000 C 
ATOM     10  C   UNL     1      -0.465  13.731  19.366  0.00  0.00    +0.000 A 
ATOM     11  C   UNL     1      -1.857  13.836  19.925  0.00  0.00    +0.000 C 
ATOM     12  N   UNL     1      -2.305  15.076  20.376  0.00  0.00    +0.000 N 
ATOM     13  N   UNL     1      -2.660  12.824  19.986  0.00  0.00    +0.000 NA
ATOM     14  H   UNL     1       3.619  12.099  18.213  0.00  0.00    +0.000 HD
ATOM     15  H   UNL     1       3.909  13.798  18.137  0.00  0.00    +0.000 HD
ATOM     16  H   UNL     1      -2.757  15.578  19.608  0.00  0.00    +0.000 HD
ENDROOT
BRANCH   1  23
ATOM     17  C   UNL     1      -4.299  11.257  17.831  0.00  0.00    +0.000 A 
ATOM     18  C   UNL     1      -4.704  10.914  16.513  0.00  0.00    +0.000 A 
ATOM     19  C   UNL     1      -3.803  10.529  15.527  0.00  0.00    +0.000 A 
ATOM     20  F   UNL     1      -4.251  10.252  14.296  0.00  0.00    +0.000 F 
ATOM     21  C   UNL     1      -2.458  10.432  15.803  0.00  0.00    +0.000 A 
ATOM     22  C   UNL     1      -2.014  10.735  17.084  0.00  0.00    +0.000 A 
ATOM     23  C   UNL     1      -2.899  11.161  18.111  0.00  0.00    +0.000 A 
BRANCH  17  28
ATOM     24  C   UNL     1      -6.932  11.162  20.424  0.00  0.00    +0.000 A 
ATOM     25  C   UNL     1      -7.373  12.469  20.540  0.00  0.00    +0.000 A 
ATOM     26  C   UNL     1      -6.784  13.426  19.738  0.00  0.00    +0.000 A 
ATOM     27  C   UNL     1      -5.766  13.039  18.871  0.00  0.00    +0.000 A 
ATOM     28  C   UNL     1      -5.360  11.697  18.797  0.00  0.00    +0.000 A 
ATOM     29  N   UNL     1      -5.953  10.753  19.574  0.00  0.00    +0.000 NA
BRANCH  24  31
ATOM     30  C   UNL     1      -7.735   8.968  20.695  0.00  0.00    +0.000 C 
ATOM     31  O   UNL     1      -7.591  10.266  21.247  0.00  0.00    +0.000 OA
ENDBRANCH  24  31
ENDBRANCH  17  28
ENDBRANCH   1  23
BRANCH  12  32
ATOM     32  O   UNL     1      -3.261  14.963  21.414  0.00  0.00    +0.000 OA
BRANCH  32  33
ATOM     33  C   UNL     1      -2.538  15.002  22.646  0.00  0.00    +0.000 C 
BRANCH  33  34
ATOM     34  C   UNL     1      -2.996  13.881  23.579  0.00  0.00    +0.000 C 
BRANCH  34  35
ATOM     35  C   UNL     1      -4.133  12.988  23.067  0.00  0.00    +0.000 C 
BRANCH  35  36
ATOM     36  C   UNL     1      -5.274  12.770  24.053  0.00  0.00    +0.000 C 
BRANCH  36  37
ATOM     37  O   UNL     1      -4.946  11.849  25.079  0.00  0.00    +0.000 OA
ATOM     38  H   UNL     1      -5.749  11.666  25.613  0.00  0.00    +0.000 HD
ENDBRANCH  36  37
ENDBRANCH  35  36
ENDBRANCH  34  35
ENDBRANCH  33  34
ENDBRANCH  32  33
ENDBRANCH  12  32
TORSDOF 9
ENDMDL
MODEL 4
REMARK VINA RESULT:      -7.0      5.443     10.068
REMARK  Name = 
REMARK  11 active torsions:
REMARK  status: ('A' for Active; 'I' for Inactive)
REMARK    1  A    between atoms: C_1  and  O_2
REMARK    2  A    between atoms: O_2  and  C_3
REMARK    3  A    between atoms: C_7  and  C_8
REMARK    4  A    between atoms: C_14  and  C_15
REMARK    5  A    between atoms: C_22  and  C_23
REMARK    6  A    between atoms: N_26  and  O_27
REMARK    7  A    between atoms: O_27  and  C_28
REMARK    8  A    between atoms: C_28  and  C_29
REMARK    9  A    between atoms: C_29  and  C_30
REMARK   10  A    between atoms: C_30  and  C_31
REMARK   11  A    between atoms: C_31  and  O_32
REMARK                            x       y       z     vdW  Elec       q    Type
REMARK                         _______ _______ _______ _____ _____    ______ ____
ROOT
ATOM      1  C   UNL     1      -1.973  12.121  20.934  0.00  0.00    +0.000 C 
ATOM      2  C   UNL     1      -2.534  12.489  22.308  0.00  0.00    +0.000 C 
ATOM      3  C   UNL     1      -3.596  13.543  22.257  0.00  0.00    +0.000 A 
ATOM      4  N   UNL     1      -3.766  14.253  23.404  0.00  0.00    +0.000 NA
ATOM      5  C   UNL     1      -4.746  15.149  23.423  0.00  0.00    +0.000 A 
ATOM      6  N   UNL     1      -4.948  15.865  24.582  0.00  0.00    +0.000 N 
ATOM      7  N   UNL     1      -5.582  15.357  22.406  0.00  0.00    +0.000 NA
ATOM      8  C   UNL     1      -5.415  14.626  21.271  0.00  0.00    +0.000 A 
ATOM      9  C   UNL     1      -6.380  15.028  20.196  0.00  0.00    +0.000 C 
ATOM     10  C   UNL     1      -4.404  13.679  21.142  0.00  0.00    +0.000 A 
ATOM     11  C   UNL     1      -4.100  12.792  19.966  0.00  0.00    +0.000 C 
ATOM     12  N   UNL     1      -5.011  12.742  18.912  0.00  0.00    +0.000 N 
ATOM     13  N   UNL     1      -3.018  12.088  19.887  0.00  0.00    +0.000 NA
ATOM     14  H   UNL     1      -4.582  15.346  25.368  0.00  0.00    +0.000 HD
ATOM     15  H   UNL     1      -5.910  16.166  24.633  0.00  0.00    +0.000 HD
ATOM     16  H   UNL     1      -4.774  13.456  18.219  0.00  0.00    +0.000 HD
ENDROOT
BRANCH   1  23
ATOM     17  C   UNL     1       0.533  12.442  20.268  0.00  0.00    +0.000 A 
ATOM     18  C   UNL     1       1.550  13.378  19.938  0.00  0.00    +0.000 A 
ATOM     19  C   UNL     1       1.316  14.746  19.866  0.00  0.00    +0.000 A 
ATOM     20  F   UNL     1       2.314  15.568  19.516  0.00  0.00    +0.000 F 
ATOM     21  C   UNL     1       0.072  15.262  20.147  0.00  0.00    +0.000 A 
ATOM     22  C   UNL     1      -0.951  14.390  20.496  0.00  0.00    +0.000 A 
ATOM     23  C   UNL     1      -0.761  12.983  20.552  0.00  0.00    +0.000 A 
BRANCH  17  28
ATOM     24  C   UNL     1       1.526   9.073  19.113  0.00  0.00    +0.000 A 
ATOM     25  C   UNL     1       1.501   8.280  20.247  0.00  0.00    +0.000 A 
ATOM     26  C   UNL     1       1.147   8.870  21.443  0.00  0.00    +0.000 A 
ATOM     27  C   UNL     1       0.854  10.231  21.459  0.00  0.00    +0.000 A 
ATOM     28  C   UNL     1       0.896  10.986  20.275  0.00  0.00    +0.000 A 
ATOM     29  N   UNL     1       1.227  10.399  19.095  0.00  0.00    +0.000 NA
BRANCH  24  31
ATOM     30  C   UNL     1       2.555   7.178  18.176  0.00  0.00    +0.000 C 
ATOM     31  O   UNL     1       1.868   8.397  17.955  0.00  0.00    +0.000 OA
ENDBRANCH  24  31
ENDBRANCH  17  28
ENDBRANCH   1  23
BRANCH  12  32
ATOM     32  O   UNL     1      -4.997  11.496  18.241  0.00  0.00    +0.000 OA
BRANCH  32  33
ATOM     33  C   UNL     1      -4.994  11.783  16.840  0.00  0.00    +0.000 C 
BRANCH  33  34
ATOM     34  C   UNL     1      -3.765  11.176  16.164  0.00  0.00    +0.000 C 
BRANCH  34  35
ATOM     35  C   UNL     1      -3.218   9.881  16.779  0.00  0.00    +0.000 C 
BRANCH  35  36
ATOM     36  C   UNL     1      -1.771   9.955  17.250  0.00  0.00    +0.000 C 
BRANCH  36  37
ATOM     37  O   UNL     1      -1.331  11.284  17.471  0.00  0.00    +0.000 OA
ATOM     38  H   UNL     1      -1.728  11.618  18.303  0.00  0.00    +0.000 HD
ENDBRANCH  36  37
ENDBRANCH  35  36
ENDBRANCH  34  35
ENDBRANCH  33  34
ENDBRANCH  32  33
ENDBRANCH  12  32
TORSDOF 9
ENDMDL
MODEL 5
REMARK VINA RESULT:      -6.9      8.245     11.505
REMARK  Name = 
REMARK  11 active torsions:
REMARK  status: ('A' for Active; 'I' for Inactive)
REMARK    1  A    between atoms: C_1  and  O_2
REMARK    2  A    between atoms: O_2  and  C_3
REMARK    3  A    between atoms: C_7  and  C_8
REMARK    4  A    between atoms: C_14  and  C_15
REMARK    5  A    between atoms: C_22  and  C_23
REMARK    6  A    between atoms: N_26  and  O_27
REMARK    7  A    between atoms: O_27  and  C_28
REMARK    8  A    between atoms: C_28  and  C_29
REMARK    9  A    between atoms: C_29  and  C_30
REMARK   10  A    between atoms: C_30  and  C_31
REMARK   11  A    between atoms: C_31  and  O_32
REMARK                            x       y       z     vdW  Elec       q    Type
REMARK                         _______ _______ _______ _____ _____    ______ ____
ROOT
ATOM      1  C   UNL     1      -1.466  12.759  19.964  0.00  0.00    +0.000 C 
ATOM      2  C   UNL     1      -1.336  12.567  18.453  0.00  0.00    +0.000 C 
ATOM      3  C   UNL     1      -2.467  11.795  17.848  0.00  0.00    +0.000 A 
ATOM      4  N   UNL     1      -2.183  11.174  16.673  0.00  0.00    +0.000 NA
ATOM      5  C   UNL     1      -3.180  10.537  16.068  0.00  0.00    +0.000 A 
ATOM      6  N   UNL     1      -2.919   9.918  14.866  0.00  0.00    +0.000 N 
ATOM      7  N   UNL     1      -4.431  10.509  16.527  0.00  0.00    +0.000 NA
ATOM      8  C   UNL     1      -4.706  11.152  17.694  0.00  0.00    +0.000 A 
ATOM      9  C   UNL     1      -6.133  10.965  18.115  0.00  0.00    +0.000 C 
ATOM     10  C   UNL     1      -3.729  11.828  18.416  0.00  0.00    +0.000 A 
ATOM     11  C   UNL     1      -3.877  12.589  19.705  0.00  0.00    +0.000 C 
ATOM     12  N   UNL     1      -5.160  12.828  20.196  0.00  0.00    +0.000 N 
ATOM     13  N   UNL     1      -2.862  13.014  20.383  0.00  0.00    +0.000 NA
ATOM     14  H   UNL     1      -2.120  10.354  14.427  0.00  0.00    +0.000 HD
ATOM     15  H   UNL     1      -3.768   9.856  14.323  0.00  0.00    +0.000 HD
ATOM     16  H   UNL     1      -5.440  12.062  20.812  0.00  0.00    +0.000 HD
ENDROOT
BRANCH   1  23
ATOM     17  C   UNL     1      -0.975  11.428  22.158  0.00  0.00    +0.000 A 
ATOM     18  C   UNL     1      -0.276  10.335  22.738  0.00  0.00    +0.000 A 
ATOM     19  C   UNL     1       0.524   9.476  21.993  0.00  0.00    +0.000 A 
ATOM     20  F   UNL     1       1.127   8.445  22.599  0.00  0.00    +0.000 F 
ATOM     21  C   UNL     1       0.698   9.672  20.642  0.00  0.00    +0.000 A 
ATOM     22  C   UNL     1       0.053  10.741  20.032  0.00  0.00    +0.000 A 
ATOM     23  C   UNL     1      -0.795  11.624  20.752  0.00  0.00    +0.000 A 
BRANCH  17  28
ATOM     24  C   UNL     1      -3.822  12.533  24.242  0.00  0.00    +0.000 A 
ATOM     25  C   UNL     1      -3.490  13.810  24.660  0.00  0.00    +0.000 A 
ATOM     26  C   UNL     1      -2.283  14.335  24.245  0.00  0.00    +0.000 A 
ATOM     27  C   UNL     1      -1.450  13.553  23.450  0.00  0.00    +0.000 A 
ATOM     28  C   UNL     1      -1.840  12.262  23.058  0.00  0.00    +0.000 A 
ATOM     29  N   UNL     1      -3.037  11.754  23.451  0.00  0.00    +0.000 NA
BRANCH  24  31
ATOM     30  C   UNL     1      -6.157  12.760  24.086  0.00  0.00    +0.000 C 
ATOM     31  O   UNL     1      -5.058  12.094  24.683  0.00  0.00    +0.000 OA
ENDBRANCH  24  31
ENDBRANCH  17  28
ENDBRANCH   1  23
BRANCH  12  32
ATOM     32  O   UNL     1      -5.236  14.019  20.958  0.00  0.00    +0.000 OA
BRANCH  32  33
ATOM     33  C   UNL     1      -6.460  14.662  20.596  0.00  0.00    +0.000 C 
BRANCH  33  34
ATOM     34  C   UNL     1      -6.880  15.671  21.665  0.00  0.00    +0.000 C 
BRANCH  34  35
ATOM     35  C   UNL     1      -6.118  17.002  21.683  0.00  0.00    +0.000 C 
BRANCH  35  36
ATOM     36  C   UNL     1      -4.869  17.017  22.557  0.00  0.00    +0.000 C 
BRANCH  36  37
ATOM     37  O   UNL     1      -3.737  16.467  21.907  0.00  0.00    +0.000 OA
ATOM     38  H   UNL     1      -3.346  15.772  22.479  0.00  0.00    +0.000 HD
ENDBRANCH  36  37
ENDBRANCH  35  36
ENDBRANCH  34  35
ENDBRANCH  33  34
ENDBRANCH  32  33
ENDBRANCH  12  32
TORSDOF 9
ENDMDL
MODEL 6
REMARK VINA RESULT:      -6.9      8.686     11.897
REMARK  Name = 
REMARK  11 active torsions:
REMARK  status: ('A' for Active; 'I' for Inactive)
REMARK    1  A    between atoms: C_1  and  O_2
REMARK    2  A    between atoms: O_2  and  C_3
REMARK    3  A    between atoms: C_7  and  C_8
REMARK    4  A    between atoms: C_14  and  C_15
REMARK    5  A    between atoms: C_22  and  C_23
REMARK    6  A    between atoms: N_26  and  O_27
REMARK    7  A    between atoms: O_27  and  C_28
REMARK    8  A    between atoms: C_28  and  C_29
REMARK    9  A    between atoms: C_29  and  C_30
REMARK   10  A    between atoms: C_30  and  C_31
REMARK   11  A    between atoms: C_31  and  O_32
REMARK                            x       y       z     vdW  Elec       q    Type
REMARK                         _______ _______ _______ _____ _____    ______ ____
ROOT
ATOM      1  C   UNL     1      -2.340  11.352  19.394  0.00  0.00    +0.000 C 
ATOM      2  C   UNL     1      -0.821  11.178  19.434  0.00  0.00    +0.000 C 
ATOM      3  C   UNL     1      -0.067  12.427  19.102  0.00  0.00    +0.000 A 
ATOM      4  N   UNL     1       1.196  12.237  18.636  0.00  0.00    +0.000 NA
ATOM      5  C   UNL     1       1.924  13.322  18.397  0.00  0.00    +0.000 A 
ATOM      6  N   UNL     1       3.213  13.152  17.943  0.00  0.00    +0.000 N 
ATOM      7  N   UNL     1       1.499  14.565  18.622  0.00  0.00    +0.000 NA
ATOM      8  C   UNL     1       0.240  14.742  19.108  0.00  0.00    +0.000 A 
ATOM      9  C   UNL     1      -0.114  16.193  19.235  0.00  0.00    +0.000 C 
ATOM     10  C   UNL     1      -0.609  13.672  19.369  0.00  0.00    +0.000 A 
ATOM     11  C   UNL     1      -2.011  13.704  19.913  0.00  0.00    +0.000 C 
ATOM     12  N   UNL     1      -2.514  14.911  20.396  0.00  0.00    +0.000 N 
ATOM     13  N   UNL     1      -2.773  12.660  19.934  0.00  0.00    +0.000 NA
ATOM     14  H   UNL     1       3.551  12.241  18.221  0.00  0.00    +0.000 HD
ATOM     15  H   UNL     1       3.772  13.951  18.200  0.00  0.00    +0.000 HD
ATOM     16  H   UNL     1      -2.977  15.418  19.637  0.00  0.00    +0.000 HD
ENDROOT
BRANCH   1  23
ATOM     17  C   UNL     1      -4.290  11.279  17.657  0.00  0.00    +0.000 A 
ATOM     18  C   UNL     1      -4.672  10.935  16.333  0.00  0.00    +0.000 A 
ATOM     19  C   UNL     1      -3.774  10.422  15.403  0.00  0.00    +0.000 A 
ATOM     20  F   UNL     1      -4.195  10.150  14.161  0.00  0.00    +0.000 F 
ATOM     21  C   UNL     1      -2.461  10.194  15.745  0.00  0.00    +0.000 A 
ATOM     22  C   UNL     1      -2.044  10.494  17.036  0.00  0.00    +0.000 A 
ATOM     23  C   UNL     1      -2.922  11.047  18.006  0.00  0.00    +0.000 A 
BRANCH  17  28
ATOM     24  C   UNL     1      -6.826  11.606  20.329  0.00  0.00    +0.000 A 
ATOM     25  C   UNL     1      -7.331  12.888  20.193  0.00  0.00    +0.000 A 
ATOM     26  C   UNL     1      -6.821  13.683  19.187  0.00  0.00    +0.000 A 
ATOM     27  C   UNL     1      -5.814  13.171  18.373  0.00  0.00    +0.000 A 
ATOM     28  C   UNL     1      -5.340  11.862  18.559  0.00  0.00    +0.000 A 
ATOM     29  N   UNL     1      -5.856  11.074  19.538  0.00  0.00    +0.000 NA
BRANCH  24  31
ATOM     30  C   UNL     1      -7.916  11.656  22.411  0.00  0.00    +0.000 C 
ATOM     31  O   UNL     1      -7.408  10.871  21.346  0.00  0.00    +0.000 OA
ENDBRANCH  24  31
ENDBRANCH  17  28
ENDBRANCH   1  23
BRANCH  12  32
ATOM     32  O   UNL     1      -3.477  14.728  21.417  0.00  0.00    +0.000 OA
BRANCH  32  33
ATOM     33  C   UNL     1      -2.758  14.646  22.650  0.00  0.00    +0.000 C 
BRANCH  33  34
ATOM     34  C   UNL     1      -3.304  13.514  23.521  0.00  0.00    +0.000 C 
BRANCH  34  35
ATOM     35  C   UNL     1      -2.650  12.138  23.340  0.00  0.00    +0.000 C 
BRANCH  35  36
ATOM     36  C   UNL     1      -1.162  12.171  23.013  0.00  0.00    +0.000 C 
BRANCH  36  37
ATOM     37  O   UNL     1      -0.515  10.937  23.269  0.00  0.00    +0.000 OA
ATOM     38  H   UNL     1       0.040  10.700  22.496  0.00  0.00    +0.000 HD
ENDBRANCH  36  37
ENDBRANCH  35  36
ENDBRANCH  34  35
ENDBRANCH  33  34
ENDBRANCH  32  33
ENDBRANCH  12  32
TORSDOF 9
ENDMDL
MODEL 7
REMARK VINA RESULT:      -6.9      8.338     11.486
REMARK  Name = 
REMARK  11 active torsions:
REMARK  status: ('A' for Active; 'I' for Inactive)
REMARK    1  A    between atoms: C_1  and  O_2
REMARK    2  A    between atoms: O_2  and  C_3
REMARK    3  A    between atoms: C_7  and  C_8
REMARK    4  A    between atoms: C_14  and  C_15
REMARK    5  A    between atoms: C_22  and  C_23
REMARK    6  A    between atoms: N_26  and  O_27
REMARK    7  A    between atoms: O_27  and  C_28
REMARK    8  A    between atoms: C_28  and  C_29
REMARK    9  A    between atoms: C_29  and  C_30
REMARK   10  A    between atoms: C_30  and  C_31
REMARK   11  A    between atoms: C_31  and  O_32
REMARK                            x       y       z     vdW  Elec       q    Type
REMARK                         _______ _______ _______ _____ _____    ______ ____
ROOT
ATOM      1  C   UNL     1      -1.535  12.802  19.975  0.00  0.00    +0.000 C 
ATOM      2  C   UNL     1      -1.378  12.568  18.472  0.00  0.00    +0.000 C 
ATOM      3  C   UNL     1      -2.510  11.802  17.864  0.00  0.00    +0.000 A 
ATOM      4  N   UNL     1      -2.215  11.144  16.711  0.00  0.00    +0.000 NA
ATOM      5  C   UNL     1      -3.211  10.511  16.102  0.00  0.00    +0.000 A 
ATOM      6  N   UNL     1      -2.937   9.855  14.922  0.00  0.00    +0.000 N 
ATOM      7  N   UNL     1      -4.471  10.518  16.536  0.00  0.00    +0.000 NA
ATOM      8  C   UNL     1      -4.758  11.197  17.680  0.00  0.00    +0.000 A 
ATOM      9  C   UNL     1      -6.196  11.047  18.076  0.00  0.00    +0.000 C 
ATOM     10  C   UNL     1      -3.782  11.873  18.404  0.00  0.00    +0.000 A 
ATOM     11  C   UNL     1      -3.943  12.670  19.670  0.00  0.00    +0.000 C 
ATOM     12  N   UNL     1      -5.231  12.946  20.127  0.00  0.00    +0.000 N 
ATOM     13  N   UNL     1      -2.934  13.093  20.358  0.00  0.00    +0.000 NA
ATOM     14  H   UNL     1      -2.121  10.264  14.490  0.00  0.00    +0.000 HD
ATOM     15  H   UNL     1      -3.776   9.795  14.364  0.00  0.00    +0.000 HD
ATOM     16  H   UNL     1      -5.538  12.201  20.758  0.00  0.00    +0.000 HD
ENDROOT
BRANCH   1  23
ATOM     17  C   UNL     1      -1.051  11.564  22.224  0.00  0.00    +0.000 A 
ATOM     18  C   UNL     1      -0.394  10.467  22.844  0.00  0.00    +0.000 A 
ATOM     19  C   UNL     1       0.338   9.529  22.127  0.00  0.00    +0.000 A 
ATOM     20  F   UNL     1       0.903   8.500  22.772  0.00  0.00    +0.000 F 
ATOM     21  C   UNL     1       0.484   9.643  20.763  0.00  0.00    +0.000 A 
ATOM     22  C   UNL     1      -0.121  10.711  20.113  0.00  0.00    +0.000 A 
ATOM     23  C   UNL     1      -0.902  11.676  20.806  0.00  0.00    +0.000 A 
BRANCH  17  28
ATOM     24  C   UNL     1      -1.986  14.470  24.310  0.00  0.00    +0.000 A 
ATOM     25  C   UNL     1      -3.260  14.187  24.775  0.00  0.00    +0.000 A 
ATOM     26  C   UNL     1      -3.841  12.996  24.389  0.00  0.00    +0.000 A 
ATOM     27  C   UNL     1      -3.134  12.149  23.539  0.00  0.00    +0.000 A 
ATOM     28  C   UNL     1      -1.845  12.490  23.099  0.00  0.00    +0.000 A 
ATOM     29  N   UNL     1      -1.266  13.655  23.495  0.00  0.00    +0.000 NA
BRANCH  24  31
ATOM     30  C   UNL     1      -1.278  15.728  26.166  0.00  0.00    +0.000 C 
ATOM     31  O   UNL     1      -1.471  15.672  24.763  0.00  0.00    +0.000 OA
ENDBRANCH  24  31
ENDBRANCH  17  28
ENDBRANCH   1  23
BRANCH  12  32
ATOM     32  O   UNL     1      -5.299  14.157  20.857  0.00  0.00    +0.000 OA
BRANCH  32  33
ATOM     33  C   UNL     1      -6.643  14.278  21.328  0.00  0.00    +0.000 C 
BRANCH  33  34
ATOM     34  C   UNL     1      -7.236  15.631  20.934  0.00  0.00    +0.000 C 
BRANCH  34  35
ATOM     35  C   UNL     1      -6.705  16.258  19.639  0.00  0.00    +0.000 C 
BRANCH  35  36
ATOM     36  C   UNL     1      -7.192  15.595  18.356  0.00  0.00    +0.000 C 
BRANCH  36  37
ATOM     37  O   UNL     1      -6.289  14.621  17.862  0.00  0.00    +0.000 OA
ATOM     38  H   UNL     1      -5.373  14.965  17.943  0.00  0.00    +0.000 HD
ENDBRANCH  36  37
ENDBRANCH  35  36
ENDBRANCH  34  35
ENDBRANCH  33  34
ENDBRANCH  32  33
ENDBRANCH  12  32
TORSDOF 9
ENDMDL
MODEL 8
REMARK VINA RESULT:      -6.9      7.948     11.083
REMARK  Name = 
REMARK  11 active torsions:
REMARK  status: ('A' for Active; 'I' for Inactive)
REMARK    1  A    between atoms: C_1  and  O_2
REMARK    2  A    between atoms: O_2  and  C_3
REMARK    3  A    between atoms: C_7  and  C_8
REMARK    4  A    between atoms: C_14  and  C_15
REMARK    5  A    between atoms: C_22  and  C_23
REMARK    6  A    between atoms: N_26  and  O_27
REMARK    7  A    between atoms: O_27  and  C_28
REMARK    8  A    between atoms: C_28  and  C_29
REMARK    9  A    between atoms: C_29  and  C_30
REMARK   10  A    between atoms: C_30  and  C_31
REMARK   11  A    between atoms: C_31  and  O_32
REMARK                            x       y       z     vdW  Elec       q    Type
REMARK                         _______ _______ _______ _____ _____    ______ ____
ROOT
ATOM      1  C   UNL     1      -0.963  12.639  19.640  0.00  0.00    +0.000 C 
ATOM      2  C   UNL     1      -0.926  12.373  18.134  0.00  0.00    +0.000 C 
ATOM      3  C   UNL     1      -2.176  11.740  17.608  0.00  0.00    +0.000 A 
ATOM      4  N   UNL     1      -2.030  11.041  16.451  0.00  0.00    +0.000 NA
ATOM      5  C   UNL     1      -3.129  10.524  15.913  0.00  0.00    +0.000 A 
ATOM      6  N   UNL     1      -3.006   9.828  14.730  0.00  0.00    +0.000 N 
ATOM      7  N   UNL     1      -4.350  10.684  16.419  0.00  0.00    +0.000 NA
ATOM      8  C   UNL     1      -4.486  11.403  17.567  0.00  0.00    +0.000 A 
ATOM      9  C   UNL     1      -5.905  11.429  18.050  0.00  0.00    +0.000 C 
ATOM     10  C   UNL     1      -3.395  11.967  18.221  0.00  0.00    +0.000 A 
ATOM     11  C   UNL     1      -3.384  12.790  19.480  0.00  0.00    +0.000 C 
ATOM     12  N   UNL     1      -4.600  13.221  20.008  0.00  0.00    +0.000 N 
ATOM     13  N   UNL     1      -2.293  13.098  20.100  0.00  0.00    +0.000 NA
ATOM     14  H   UNL     1      -2.175  10.134  14.243  0.00  0.00    +0.000 HD
ATOM     15  H   UNL     1      -3.878   9.862  14.224  0.00  0.00    +0.000 HD
ATOM     16  H   UNL     1      -4.954  12.524  20.668  0.00  0.00    +0.000 HD
ENDROOT
BRANCH   1  23
ATOM     17  C   UNL     1      -0.566  11.336  21.869  0.00  0.00    +0.000 A 
ATOM     18  C   UNL     1       0.004  10.181  22.470  0.00  0.00    +0.000 A 
ATOM     19  C   UNL     1       0.654   9.197  21.734  0.00  0.00    +0.000 A 
ATOM     20  F   UNL     1       1.138   8.117  22.362  0.00  0.00    +0.000 F 
ATOM     21  C   UNL     1       0.799   9.318  20.371  0.00  0.00    +0.000 A 
ATOM     22  C   UNL     1       0.278  10.440  19.740  0.00  0.00    +0.000 A 
ATOM     23  C   UNL     1      -0.418  11.455  20.451  0.00  0.00    +0.000 A 
BRANCH  17  28
ATOM     24  C   UNL     1      -1.246  14.270  24.014  0.00  0.00    +0.000 A 
ATOM     25  C   UNL     1      -2.541  14.092  24.471  0.00  0.00    +0.000 A 
ATOM     26  C   UNL     1      -3.224  12.965  24.060  0.00  0.00    +0.000 A 
ATOM     27  C   UNL     1      -2.593  12.077  23.194  0.00  0.00    +0.000 A 
ATOM     28  C   UNL     1      -1.277  12.311  22.762  0.00  0.00    +0.000 A 
ATOM     29  N   UNL     1      -0.599  13.411  23.183  0.00  0.00    +0.000 NA
BRANCH  24  31
ATOM     30  C   UNL     1      -0.427  16.416  23.515  0.00  0.00    +0.000 C 
ATOM     31  O   UNL     1      -0.627  15.411  24.493  0.00  0.00    +0.000 OA
ENDBRANCH  24  31
ENDBRANCH  17  28
ENDBRANCH   1  23
BRANCH  12  32
ATOM     32  O   UNL     1      -4.482  14.439  20.719  0.00  0.00    +0.000 OA
BRANCH  32  33
ATOM     33  C   UNL     1      -5.456  14.401  21.764  0.00  0.00    +0.000 C 
BRANCH  33  34
ATOM     34  C   UNL     1      -6.127  13.029  21.831  0.00  0.00    +0.000 C 
BRANCH  34  35
ATOM     35  C   UNL     1      -7.582  13.004  22.318  0.00  0.00    +0.000 C 
BRANCH  35  36
ATOM     36  C   UNL     1      -7.762  12.637  23.786  0.00  0.00    +0.000 C 
BRANCH  36  37
ATOM     37  O   UNL     1      -7.319  13.656  24.666  0.00  0.00    +0.000 OA
ATOM     38  H   UNL     1      -6.445  13.404  25.033  0.00  0.00    +0.000 HD
ENDBRANCH  36  37
ENDBRANCH  35  36
ENDBRANCH  34  35
ENDBRANCH  33  34
ENDBRANCH  32  33
ENDBRANCH  12  32
TORSDOF 9
ENDMDL
MODEL 9
REMARK VINA RESULT:      -6.8      5.864     12.315
REMARK  Name = 
REMARK  11 active torsions:
REMARK  status: ('A' for Active; 'I' for Inactive)
REMARK    1  A    between atoms: C_1  and  O_2
REMARK    2  A    between atoms: O_2  and  C_3
REMARK    3  A    between atoms: C_7  and  C_8
REMARK    4  A    between atoms: C_14  and  C_15
REMARK    5  A    between atoms: C_22  and  C_23
REMARK    6  A    between atoms: N_26  and  O_27
REMARK    7  A    between atoms: O_27  and  C_28
REMARK    8  A    between atoms: C_28  and  C_29
REMARK    9  A    between atoms: C_29  and  C_30
REMARK   10  A    between atoms: C_30  and  C_31
REMARK   11  A    between atoms: C_31  and  O_32
REMARK                            x       y       z     vdW  Elec       q    Type
REMARK                         _______ _______ _______ _____ _____    ______ ____
ROOT
ATOM      1  C   UNL     1      -1.561  12.728  20.464  0.00  0.00    +0.000 C 
ATOM      2  C   UNL     1      -3.067  12.481  20.366  0.00  0.00    +0.000 C 
ATOM      3  C   UNL     1      -3.519  12.084  18.996  0.00  0.00    +0.000 A 
ATOM      4  N   UNL     1      -4.826  12.337  18.719  0.00  0.00    +0.000 NA
ATOM      5  C   UNL     1      -5.286  11.935  17.540  0.00  0.00    +0.000 A 
ATOM      6  N   UNL     1      -6.612  12.164  17.248  0.00  0.00    +0.000 N 
ATOM      7  N   UNL     1      -4.554  11.273  16.644  0.00  0.00    +0.000 NA
ATOM      8  C   UNL     1      -3.252  11.007  16.941  0.00  0.00    +0.000 A 
ATOM      9  C   UNL     1      -2.545  10.328  15.807  0.00  0.00    +0.000 C 
ATOM     10  C   UNL     1      -2.669  11.407  18.139  0.00  0.00    +0.000 A 
ATOM     11  C   UNL     1      -1.260  11.181  18.613  0.00  0.00    +0.000 C 
ATOM     12  N   UNL     1      -0.438  10.323  17.883  0.00  0.00    +0.000 N 
ATOM     13  N   UNL     1      -0.777  11.763  19.661  0.00  0.00    +0.000 NA
ATOM     14  H   UNL     1      -7.136  12.254  18.106  0.00  0.00    +0.000 HD
ATOM     15  H   UNL     1      -6.935  11.482  16.577  0.00  0.00    +0.000 HD
ATOM     16  H   UNL     1       0.067  10.856  17.170  0.00  0.00    +0.000 HD
ENDROOT
BRANCH   1  23
ATOM     17  C   UNL     1      -1.427  15.257  21.106  0.00  0.00    +0.000 A 
ATOM     18  C   UNL     1      -1.036  16.557  20.687  0.00  0.00    +0.000 A 
ATOM     19  C   UNL     1      -0.434  16.798  19.457  0.00  0.00    +0.000 A 
ATOM     20  F   UNL     1      -0.060  18.045  19.140  0.00  0.00    +0.000 F 
ATOM     21  C   UNL     1      -0.217  15.772  18.567  0.00  0.00    +0.000 A 
ATOM     22  C   UNL     1      -0.602  14.485  18.922  0.00  0.00    +0.000 A 
ATOM     23  C   UNL     1      -1.193  14.192  20.180  0.00  0.00    +0.000 A 
BRANCH  17  28
ATOM     24  C   UNL     1      -3.914  15.097  23.838  0.00  0.00    +0.000 A 
ATOM     25  C   UNL     1      -3.172  14.928  24.994  0.00  0.00    +0.000 A 
ATOM     26  C   UNL     1      -1.798  14.862  24.878  0.00  0.00    +0.000 A 
ATOM     27  C   UNL     1      -1.227  14.945  23.611  0.00  0.00    +0.000 A 
ATOM     28  C   UNL     1      -2.032  15.115  22.473  0.00  0.00    +0.000 A 
ATOM     29  N   UNL     1      -3.383  15.198  22.590  0.00  0.00    +0.000 NA
BRANCH  24  31
ATOM     30  C   UNL     1      -5.821  16.473  23.864  0.00  0.00    +0.000 C 
ATOM     31  O   UNL     1      -5.280  15.176  24.047  0.00  0.00    +0.000 OA
ENDBRANCH  24  31
ENDBRANCH  17  28
ENDBRANCH   1  23
BRANCH  12  32
ATOM     32  O   UNL     1       0.536   9.688  18.689  0.00  0.00    +0.000 OA
BRANCH  32  33
ATOM     33  C   UNL     1       1.712   9.557  17.887  0.00  0.00    +0.000 C 
BRANCH  33  34
ATOM     34  C   UNL     1       2.216   8.114  17.895  0.00  0.00    +0.000 C 
BRANCH  34  35
ATOM     35  C   UNL     1       2.380   7.455  19.270  0.00  0.00    +0.000 C 
BRANCH  35  36
ATOM     36  C   UNL     1       2.485   5.935  19.247  0.00  0.00    +0.000 C 
BRANCH  36  37
ATOM     37  O   UNL     1       3.082   5.408  20.419  0.00  0.00    +0.000 OA
ATOM     38  H   UNL     1       3.400   6.149  20.978  0.00  0.00    +0.000 HD
ENDBRANCH  36  37
ENDBRANCH  35  36
ENDBRANCH  34  35
ENDBRANCH  33  34
ENDBRANCH  32  33
ENDBRANCH  12  32
TORSDOF 9
ENDMDL
