MODEL 1
REMARK VINA RESULT:      -7.6      0.000      0.000
REMARK  Name = 
REMARK  5 active torsions:
REMARK  status: ('A' for Active; 'I' for Inactive)
REMARK    1  A    between atoms: S_2  and  C_4
REMARK    2  A    between atoms: S_2  and  N_11
REMARK    3  A    between atoms: C_5  and  C_6
REMARK    4  A    between atoms: C_14  and  C_15
REMARK    5  A    between atoms: C_21  and  C_22
REMARK                            x       y       z     vdW  Elec       q    Type
REMARK                         _______ _______ _______ _____ _____    ______ ____
ROOT
ATOM      1  N   UNL     1       1.682   9.841  17.594  0.00  0.00    +0.000 N 
ATOM      2  C   UNL     1       2.086   8.499  17.739  0.00  0.00    +0.000 A 
ATOM      3  N   UNL     1       3.367   8.250  17.690  0.00  0.00    +0.000 NA
ATOM      4  C   UNL     1       3.586   6.902  17.962  0.00  0.00    +0.000 A 
ATOM      5  C   UNL     1       2.432   6.128  18.120  0.00  0.00    +0.000 A 
ATOM      6  S   UNL     1       1.055   7.177  17.984  0.00  0.00    +0.000 S 
ATOM      7  H   UNL     1       2.465  10.402  17.265  0.00  0.00    +0.000 HD
ENDROOT
BRANCH   4   8
ATOM      8  C   UNL     1       4.963   6.432  18.102  0.00  0.00    +0.000 A 
ATOM      9  C   UNL     1       5.934   6.875  17.192  0.00  0.00    +0.000 A 
ATOM     10  C   UNL     1       7.273   6.506  17.340  0.00  0.00    +0.000 A 
ATOM     11  C   UNL     1       7.657   5.690  18.400  0.00  0.00    +0.000 A 
ATOM     12  C   UNL     1       6.699   5.219  19.294  0.00  0.00    +0.000 A 
ATOM     13  C   UNL     1       5.356   5.570  19.132  0.00  0.00    +0.000 A 
ENDBRANCH   4   8
BRANCH   5  14
ATOM     14  C   UNL     1       2.211   4.698  18.410  0.00  0.00    +0.000 A 
ATOM     15  C   UNL     1       1.698   4.281  19.647  0.00  0.00    +0.000 A 
ATOM     16  C   UNL     1       1.571   2.923  19.957  0.00  0.00    +0.000 A 
ATOM     17  C   UNL     1       1.908   1.958  19.013  0.00  0.00    +0.000 A 
ATOM     18  C   UNL     1       2.378   2.349  17.763  0.00  0.00    +0.000 A 
ATOM     19  C   UNL     1       2.541   3.705  17.469  0.00  0.00    +0.000 A 
ENDBRANCH   5  14
BRANCH   1  21
ATOM     20  O   UNL     1       1.838  11.752  19.256  0.00  0.00    +0.000 OA
ATOM     21  S   UNL     1       1.119  10.515  19.043  0.00  0.00    +0.000 S 
ATOM     22  O   UNL     1       1.225   9.440  20.010  0.00  0.00    +0.000 OA
BRANCH  21  23
ATOM     23  C   UNL     1      -0.562  10.892  18.843  0.00  0.00    +0.000 C 
ATOM     24  C   UNL     1      -1.245  10.358  17.820  0.00  0.00    +0.000 C 
BRANCH  24  25
ATOM     25  C   UNL     1      -2.585  10.761  17.576  0.00  0.00    +0.000 A 
ATOM     26  C   UNL     1      -3.334  10.640  16.413  0.00  0.00    +0.000 A 
ATOM     27  C   UNL     1      -4.602  11.222  16.649  0.00  0.00    +0.000 A 
ATOM     28  C   UNL     1      -4.565  11.688  17.938  0.00  0.00    +0.000 A 
ATOM     29  O   UNL     1      -3.368  11.409  18.506  0.00  0.00    +0.000 OA
ENDBRANCH  24  25
ENDBRANCH  21  23
ENDBRANCH   1  21
TORSDOF 5
ENDMDL
MODEL 2
REMARK VINA RESULT:      -7.6      3.803      6.247
REMARK  Name = 
REMARK  5 active torsions:
REMARK  status: ('A' for Active; 'I' for Inactive)
REMARK    1  A    between atoms: S_2  and  C_4
REMARK    2  A    between atoms: S_2  and  N_11
REMARK    3  A    between atoms: C_5  and  C_6
REMARK    4  A    between atoms: C_14  and  C_15
REMARK    5  A    between atoms: C_21  and  C_22
REMARK                            x       y       z     vdW  Elec       q    Type
REMARK                         _______ _______ _______ _____ _____    ______ ____
ROOT
ATOM      1  N   UNL     1       3.169   2.337  18.977  0.00  0.00    +0.000 N 
ATOM      2  C   UNL     1       4.144   3.219  18.471  0.00  0.00    +0.000 A 
ATOM      3  N   UNL     1       4.496   3.073  17.222  0.00  0.00    +0.000 NA
ATOM      4  C   UNL     1       5.377   4.091  16.868  0.00  0.00    +0.000 A 
ATOM      5  C   UNL     1       5.751   4.947  17.908  0.00  0.00    +0.000 A 
ATOM      6  S   UNL     1       4.896   4.464  19.340  0.00  0.00    +0.000 S 
ATOM      7  H   UNL     1       3.027   1.569  18.323  0.00  0.00    +0.000 HD
ENDROOT
BRANCH   4   8
ATOM      8  C   UNL     1       5.786   4.205  15.469  0.00  0.00    +0.000 A 
ATOM      9  C   UNL     1       7.051   4.731  15.167  0.00  0.00    +0.000 A 
ATOM     10  C   UNL     1       7.504   4.787  13.846  0.00  0.00    +0.000 A 
ATOM     11  C   UNL     1       6.699   4.317  12.814  0.00  0.00    +0.000 A 
ATOM     12  C   UNL     1       5.428   3.821  13.097  0.00  0.00    +0.000 A 
ATOM     13  C   UNL     1       4.966   3.786  14.415  0.00  0.00    +0.000 A 
ENDBRANCH   4   8
BRANCH   5  14
ATOM     14  C   UNL     1       6.639   6.125  17.972  0.00  0.00    +0.000 A 
ATOM     15  C   UNL     1       7.760   6.141  18.814  0.00  0.00    +0.000 A 
ATOM     16  C   UNL     1       8.551   7.286  18.943  0.00  0.00    +0.000 A 
ATOM     17  C   UNL     1       8.264   8.421  18.189  0.00  0.00    +0.000 A 
ATOM     18  C   UNL     1       7.183   8.413  17.314  0.00  0.00    +0.000 A 
ATOM     19  C   UNL     1       6.370   7.280  17.216  0.00  0.00    +0.000 A 
ENDBRANCH   5  14
BRANCH   1  21
ATOM     20  O   UNL     1       1.456   3.145  20.666  0.00  0.00    +0.000 OA
ATOM     21  S   UNL     1       1.675   3.093  19.236  0.00  0.00    +0.000 S 
ATOM     22  O   UNL     1       0.748   2.370  18.389  0.00  0.00    +0.000 OA
BRANCH  21  23
ATOM     23  C   UNL     1       1.785   4.720  18.644  0.00  0.00    +0.000 C 
ATOM     24  C   UNL     1       2.047   5.720  19.498  0.00  0.00    +0.000 C 
BRANCH  24  25
ATOM     25  C   UNL     1       2.012   7.065  19.043  0.00  0.00    +0.000 A 
ATOM     26  C   UNL     1       2.545   7.607  17.881  0.00  0.00    +0.000 A 
ATOM     27  C   UNL     1       2.287   8.999  17.891  0.00  0.00    +0.000 A 
ATOM     28  C   UNL     1       1.625   9.247  19.067  0.00  0.00    +0.000 A 
ATOM     29  O   UNL     1       1.446   8.097  19.759  0.00  0.00    +0.000 OA
ENDBRANCH  24  25
ENDBRANCH  21  23
ENDBRANCH   1  21
TORSDOF 5
ENDMDL
MODEL 3
REMARK VINA RESULT:      -7.5      4.038      7.807
REMARK  Name = 
REMARK  5 active torsions:
REMARK  status: ('A' for Active; 'I' for Inactive)
REMARK    1  A    between atoms: S_2  and  C_4
REMARK    2  A    between atoms: S_2  and  N_11
REMARK    3  A    between atoms: C_5  and  C_6
REMARK    4  A    between atoms: C_14  and  C_15
REMARK    5  A    between atoms: C_21  and  C_22
REMARK                            x       y       z     vdW  Elec       q    Type
REMARK                         _______ _______ _______ _____ _____    ______ ____
ROOT
ATOM      1  N   UNL     1       5.834   5.421  16.352  0.00  0.00    +0.000 N 
ATOM      2  C   UNL     1       4.705   5.789  17.111  0.00  0.00    +0.000 A 
ATOM      3  N   UNL     1       3.908   4.831  17.502  0.00  0.00    +0.000 NA
ATOM      4  C   UNL     1       2.918   5.361  18.325  0.00  0.00    +0.000 A 
ATOM      5  C   UNL     1       2.937   6.752  18.464  0.00  0.00    +0.000 A 
ATOM      6  S   UNL     1       4.294   7.366  17.572  0.00  0.00    +0.000 S 
ATOM      7  H   UNL     1       5.744   4.453  16.048  0.00  0.00    +0.000 HD
ENDROOT
BRANCH   4   8
ATOM      8  C   UNL     1       2.001   4.442  18.995  0.00  0.00    +0.000 A 
ATOM      9  C   UNL     1       1.194   3.594  18.221  0.00  0.00    +0.000 A 
ATOM     10  C   UNL     1       0.360   2.652  18.828  0.00  0.00    +0.000 A 
ATOM     11  C   UNL     1       0.322   2.546  20.214  0.00  0.00    +0.000 A 
ATOM     12  C   UNL     1       1.094   3.402  20.996  0.00  0.00    +0.000 A 
ATOM     13  C   UNL     1       1.912   4.359  20.390  0.00  0.00    +0.000 A 
ENDBRANCH   4   8
BRANCH   5  14
ATOM     14  C   UNL     1       2.095   7.700  19.221  0.00  0.00    +0.000 A 
ATOM     15  C   UNL     1       1.542   8.830  18.602  0.00  0.00    +0.000 A 
ATOM     16  C   UNL     1       0.818   9.775  19.336  0.00  0.00    +0.000 A 
ATOM     17  C   UNL     1       0.592   9.578  20.696  0.00  0.00    +0.000 A 
ATOM     18  C   UNL     1       1.094   8.442  21.321  0.00  0.00    +0.000 A 
ATOM     19  C   UNL     1       1.851   7.518  20.595  0.00  0.00    +0.000 A 
ENDBRANCH   5  14
BRANCH   1  21
ATOM     20  O   UNL     1       8.287   4.793  16.528  0.00  0.00    +0.000 OA
ATOM     21  S   UNL     1       7.282   5.573  17.219  0.00  0.00    +0.000 S 
ATOM     22  O   UNL     1       6.925   5.245  18.585  0.00  0.00    +0.000 OA
BRANCH  21  23
ATOM     23  C   UNL     1       7.763   7.239  17.176  0.00  0.00    +0.000 C 
ATOM     24  C   UNL     1       8.178   7.838  18.302  0.00  0.00    +0.000 C 
BRANCH  24  25
ATOM     25  C   UNL     1       8.451   9.232  18.302  0.00  0.00    +0.000 A 
ATOM     26  C   UNL     1       9.321   9.950  19.113  0.00  0.00    +0.000 A 
ATOM     27  C   UNL     1       9.217  11.316  18.759  0.00  0.00    +0.000 A 
ATOM     28  C   UNL     1       8.277  11.375  17.763  0.00  0.00    +0.000 A 
ATOM     29  O   UNL     1       7.819  10.133  17.473  0.00  0.00    +0.000 OA
ENDBRANCH  24  25
ENDBRANCH  21  23
ENDBRANCH   1  21
TORSDOF 5
ENDMDL
MODEL 4
REMARK VINA RESULT:      -7.5      6.592      9.704
REMARK  Name = 
REMARK  5 active torsions:
REMARK  status: ('A' for Active; 'I' for Inactive)
REMARK    1  A    between atoms: S_2  and  C_4
REMARK    2  A    between atoms: S_2  and  N_11
REMARK    3  A    between atoms: C_5  and  C_6
REMARK    4  A    between atoms: C_14  and  C_15
REMARK    5  A    between atoms: C_21  and  C_22
REMARK                            x       y       z     vdW  Elec       q    Type
REMARK                         _______ _______ _______ _____ _____    ______ ____
ROOT
ATOM      1  N   UNL     1      -5.562  12.385  24.773  0.00  0.00    +0.000 N 
ATOM      2  C   UNL     1      -4.367  12.781  24.139  0.00  0.00    +0.000 A 
ATOM      3  N   UNL     1      -3.541  11.838  23.775  0.00  0.00    +0.000 NA
ATOM      4  C   UNL     1      -2.479  12.400  23.071  0.00  0.00    +0.000 A 
ATOM      5  C   UNL     1      -2.481  13.796  23.001  0.00  0.00    +0.000 A 
ATOM      6  S   UNL     1      -3.912  14.376  23.795  0.00  0.00    +0.000 S 
ATOM      7  H   UNL     1      -5.503  11.402  25.035  0.00  0.00    +0.000 HD
ENDROOT
BRANCH   4   8
ATOM      8  C   UNL     1      -1.506  11.508  22.443  0.00  0.00    +0.000 A 
ATOM      9  C   UNL     1      -0.953  10.460  23.194  0.00  0.00    +0.000 A 
ATOM     10  C   UNL     1      -0.078   9.545  22.605  0.00  0.00    +0.000 A 
ATOM     11  C   UNL     1       0.255   9.665  21.260  0.00  0.00    +0.000 A 
ATOM     12  C   UNL     1      -0.263  10.719  20.510  0.00  0.00    +0.000 A 
ATOM     13  C   UNL     1      -1.121  11.648  21.105  0.00  0.00    +0.000 A 
ENDBRANCH   4   8
BRANCH   5  14
ATOM     14  C   UNL     1      -1.571  14.774  22.371  0.00  0.00    +0.000 A 
ATOM     15  C   UNL     1      -1.889  15.372  21.142  0.00  0.00    +0.000 A 
ATOM     16  C   UNL     1      -0.990  16.230  20.502  0.00  0.00    +0.000 A 
ATOM     17  C   UNL     1       0.224  16.546  21.106  0.00  0.00    +0.000 A 
ATOM     18  C   UNL     1       0.541  15.999  22.345  0.00  0.00    +0.000 A 
ATOM     19  C   UNL     1      -0.342  15.111  22.966  0.00  0.00    +0.000 A 
ENDBRANCH   5  14
BRANCH   1  21
ATOM     20  O   UNL     1      -7.549  13.840  24.161  0.00  0.00    +0.000 OA
ATOM     21  S   UNL     1      -6.924  12.589  23.786  0.00  0.00    +0.000 S 
ATOM     22  O   UNL     1      -7.659  11.346  23.917  0.00  0.00    +0.000 OA
BRANCH  21  23
ATOM     23  C   UNL     1      -6.384  12.723  22.144  0.00  0.00    +0.000 C 
ATOM     24  C   UNL     1      -6.886  11.900  21.212  0.00  0.00    +0.000 C 
BRANCH  24  25
ATOM     25  C   UNL     1      -6.358  11.917  19.893  0.00  0.00    +0.000 A 
ATOM     26  C   UNL     1      -7.032  11.826  18.682  0.00  0.00    +0.000 A 
ATOM     27  C   UNL     1      -6.069  11.850  17.646  0.00  0.00    +0.000 A 
ATOM     28  C   UNL     1      -4.850  11.936  18.269  0.00  0.00    +0.000 A 
ATOM     29  O   UNL     1      -5.011  11.986  19.613  0.00  0.00    +0.000 OA
ENDBRANCH  24  25
ENDBRANCH  21  23
ENDBRANCH   1  21
TORSDOF 5
ENDMDL
MODEL 5
REMARK VINA RESULT:      -7.5      0.129      1.293
REMARK  Name = 
REMARK  5 active torsions:
REMARK  status: ('A' for Active; 'I' for Inactive)
REMARK    1  A    between atoms: S_2  and  C_4
REMARK    2  A    between atoms: S_2  and  N_11
REMARK    3  A    between atoms: C_5  and  C_6
REMARK    4  A    between atoms: C_14  and  C_15
REMARK    5  A    between atoms: C_21  and  C_22
REMARK                            x       y       z     vdW  Elec       q    Type
REMARK                         _______ _______ _______ _____ _____    ______ ____
ROOT
ATOM      1  N   UNL     1       1.691   9.896  17.555  0.00  0.00    +0.000 N 
ATOM      2  C   UNL     1       2.096   8.556  17.716  0.00  0.00    +0.000 A 
ATOM      3  N   UNL     1       3.376   8.305  17.648  0.00  0.00    +0.000 NA
ATOM      4  C   UNL     1       3.599   6.961  17.939  0.00  0.00    +0.000 A 
ATOM      5  C   UNL     1       2.448   6.192  18.133  0.00  0.00    +0.000 A 
ATOM      6  S   UNL     1       1.069   7.240  18.003  0.00  0.00    +0.000 S 
ATOM      7  H   UNL     1       2.469  10.451  17.201  0.00  0.00    +0.000 HD
ENDROOT
BRANCH   4   8
ATOM      8  C   UNL     1       4.978   6.493  18.063  0.00  0.00    +0.000 A 
ATOM      9  C   UNL     1       5.318   5.637  19.122  0.00  0.00    +0.000 A 
ATOM     10  C   UNL     1       6.607   5.111  19.228  0.00  0.00    +0.000 A 
ATOM     11  C   UNL     1       7.572   5.433  18.279  0.00  0.00    +0.000 A 
ATOM     12  C   UNL     1       7.256   6.305  17.239  0.00  0.00    +0.000 A 
ATOM     13  C   UNL     1       5.973   6.849  17.145  0.00  0.00    +0.000 A 
ENDBRANCH   4   8
BRANCH   5  14
ATOM     14  C   UNL     1       2.231   4.767  18.452  0.00  0.00    +0.000 A 
ATOM     15  C   UNL     1       2.544   3.762  17.525  0.00  0.00    +0.000 A 
ATOM     16  C   UNL     1       2.258   2.419  17.791  0.00  0.00    +0.000 A 
ATOM     17  C   UNL     1       1.700   2.053  19.012  0.00  0.00    +0.000 A 
ATOM     18  C   UNL     1       1.422   3.029  19.964  0.00  0.00    +0.000 A 
ATOM     19  C   UNL     1       1.672   4.375  19.682  0.00  0.00    +0.000 A 
ENDBRANCH   5  14
BRANCH   1  21
ATOM     20  O   UNL     1       1.916  11.810  19.206  0.00  0.00    +0.000 OA
ATOM     21  S   UNL     1       1.156  10.596  19.002  0.00  0.00    +0.000 S 
ATOM     22  O   UNL     1       1.230   9.523  19.975  0.00  0.00    +0.000 OA
BRANCH  21  23
ATOM     23  C   UNL     1      -0.513  11.026  18.806  0.00  0.00    +0.000 C 
ATOM     24  C   UNL     1      -1.280  10.338  17.948  0.00  0.00    +0.000 C 
BRANCH  24  25
ATOM     25  C   UNL     1      -2.610  10.763  17.688  0.00  0.00    +0.000 A 
ATOM     26  C   UNL     1      -3.335  10.685  16.506  0.00  0.00    +0.000 A 
ATOM     27  C   UNL     1      -4.601  11.276  16.733  0.00  0.00    +0.000 A 
ATOM     28  C   UNL     1      -4.586  11.704  18.036  0.00  0.00    +0.000 A 
ATOM     29  O   UNL     1      -3.404  11.394  18.620  0.00  0.00    +0.000 OA
ENDBRANCH  24  25
ENDBRANCH  21  23
ENDBRANCH   1  21
TORSDOF 5
ENDMDL
MODEL 6
REMARK VINA RESULT:      -7.4      2.622      4.737
REMARK  Name = 
REMARK  5 active torsions:
REMARK  status: ('A' for Active; 'I' for Inactive)
REMARK    1  A    between atoms: S_2  and  C_4
REMARK    2  A    between atoms: S_2  and  N_11
REMARK    3  A    between atoms: C_5  and  C_6
REMARK    4  A    between atoms: C_14  and  C_15
REMARK    5  A    between atoms: C_21  and  C_22
REMARK                            x       y       z     vdW  Elec       q    Type
REMARK                         _______ _______ _______ _____ _____    ______ ____
ROOT
ATOM      1  N   UNL     1       1.198   9.729  20.006  0.00  0.00    +0.000 N 
ATOM      2  C   UNL     1       1.832   8.560  19.539  0.00  0.00    +0.000 A 
ATOM      3  N   UNL     1       1.598   7.452  20.187  0.00  0.00    +0.000 NA
ATOM      4  C   UNL     1       2.210   6.391  19.525  0.00  0.00    +0.000 A 
ATOM      5  C   UNL     1       2.988   6.746  18.419  0.00  0.00    +0.000 A 
ATOM      6  S   UNL     1       2.864   8.464  18.199  0.00  0.00    +0.000 S 
ATOM      7  H   UNL     1       0.798   9.559  20.927  0.00  0.00    +0.000 HD
ENDROOT
BRANCH   4   8
ATOM      8  C   UNL     1       1.957   5.032  19.998  0.00  0.00    +0.000 A 
ATOM      9  C   UNL     1       2.510   4.618  21.220  0.00  0.00    +0.000 A 
ATOM     10  C   UNL     1       2.228   3.351  21.738  0.00  0.00    +0.000 A 
ATOM     11  C   UNL     1       1.391   2.484  21.042  0.00  0.00    +0.000 A 
ATOM     12  C   UNL     1       0.860   2.871  19.814  0.00  0.00    +0.000 A 
ATOM     13  C   UNL     1       1.160   4.129  19.284  0.00  0.00    +0.000 A 
ENDBRANCH   4   8
BRANCH   5  14
ATOM     14  C   UNL     1       3.789   5.962  17.458  0.00  0.00    +0.000 A 
ATOM     15  C   UNL     1       3.738   4.560  17.447  0.00  0.00    +0.000 A 
ATOM     16  C   UNL     1       4.561   3.813  16.599  0.00  0.00    +0.000 A 
ATOM     17  C   UNL     1       5.413   4.459  15.707  0.00  0.00    +0.000 A 
ATOM     18  C   UNL     1       5.447   5.849  15.669  0.00  0.00    +0.000 A 
ATOM     19  C   UNL     1       4.653   6.594  16.545  0.00  0.00    +0.000 A 
ENDBRANCH   5  14
BRANCH   1  21
ATOM     20  O   UNL     1      -1.300   9.987  19.643  0.00  0.00    +0.000 OA
ATOM     21  S   UNL     1      -0.042  10.256  18.980  0.00  0.00    +0.000 S 
ATOM     22  O   UNL     1       0.251   9.632  17.704  0.00  0.00    +0.000 OA
BRANCH  21  23
ATOM     23  C   UNL     1       0.113  11.972  18.784  0.00  0.00    +0.000 C 
ATOM     24  C   UNL     1       1.332  12.520  18.674  0.00  0.00    +0.000 C 
BRANCH  24  25
ATOM     25  C   UNL     1       1.473  13.933  18.643  0.00  0.00    +0.000 A 
ATOM     26  C   UNL     1       0.514  14.910  18.877  0.00  0.00    +0.000 A 
ATOM     27  C   UNL     1       1.126  16.173  18.691  0.00  0.00    +0.000 A 
ATOM     28  C   UNL     1       2.424  15.910  18.334  0.00  0.00    +0.000 A 
ATOM     29  O   UNL     1       2.646  14.574  18.312  0.00  0.00    +0.000 OA
ENDBRANCH  24  25
ENDBRANCH  21  23
ENDBRANCH   1  21
TORSDOF 5
ENDMDL
MODEL 7
REMARK VINA RESULT:      -7.4      3.844      6.295
REMARK  Name = 
REMARK  5 active torsions:
REMARK  status: ('A' for Active; 'I' for Inactive)
REMARK    1  A    between atoms: S_2  and  C_4
REMARK    2  A    between atoms: S_2  and  N_11
REMARK    3  A    between atoms: C_5  and  C_6
REMARK    4  A    between atoms: C_14  and  C_15
REMARK    5  A    between atoms: C_21  and  C_22
REMARK                            x       y       z     vdW  Elec       q    Type
REMARK                         _______ _______ _______ _____ _____    ______ ____
ROOT
ATOM      1  N   UNL     1       3.150   2.260  18.999  0.00  0.00    +0.000 N 
ATOM      2  C   UNL     1       4.127   3.155  18.519  0.00  0.00    +0.000 A 
ATOM      3  N   UNL     1       4.528   2.999  17.286  0.00  0.00    +0.000 NA
ATOM      4  C   UNL     1       5.402   4.030  16.950  0.00  0.00    +0.000 A 
ATOM      5  C   UNL     1       5.719   4.908  17.992  0.00  0.00    +0.000 A 
ATOM      6  S   UNL     1       4.820   4.427  19.397  0.00  0.00    +0.000 S 
ATOM      7  H   UNL     1       3.050   1.480  18.351  0.00  0.00    +0.000 HD
ENDROOT
BRANCH   4   8
ATOM      8  C   UNL     1       5.861   4.135  15.567  0.00  0.00    +0.000 A 
ATOM      9  C   UNL     1       5.037   3.663  14.534  0.00  0.00    +0.000 A 
ATOM     10  C   UNL     1       5.412   3.814  13.197  0.00  0.00    +0.000 A 
ATOM     11  C   UNL     1       6.613   4.438  12.876  0.00  0.00    +0.000 A 
ATOM     12  C   UNL     1       7.455   4.884  13.892  0.00  0.00    +0.000 A 
ATOM     13  C   UNL     1       7.091   4.713  15.231  0.00  0.00    +0.000 A 
ENDBRANCH   4   8
BRANCH   5  14
ATOM     14  C   UNL     1       6.580   6.104  18.073  0.00  0.00    +0.000 A 
ATOM     15  C   UNL     1       6.313   7.242  17.297  0.00  0.00    +0.000 A 
ATOM     16  C   UNL     1       7.176   8.342  17.306  0.00  0.00    +0.000 A 
ATOM     17  C   UNL     1       8.296   8.343  18.133  0.00  0.00    +0.000 A 
ATOM     18  C   UNL     1       8.557   7.244  18.943  0.00  0.00    +0.000 A 
ATOM     19  C   UNL     1       7.715   6.129  18.904  0.00  0.00    +0.000 A 
ENDBRANCH   5  14
BRANCH   1  21
ATOM     20  O   UNL     1       1.339   3.013  20.608  0.00  0.00    +0.000 OA
ATOM     21  S   UNL     1       1.633   2.988  19.191  0.00  0.00    +0.000 S 
ATOM     22  O   UNL     1       0.764   2.265  18.284  0.00  0.00    +0.000 OA
BRANCH  21  23
ATOM     23  C   UNL     1       1.748   4.626  18.632  0.00  0.00    +0.000 C 
ATOM     24  C   UNL     1       2.016   5.608  19.505  0.00  0.00    +0.000 C 
BRANCH  24  25
ATOM     25  C   UNL     1       1.985   6.962  19.078  0.00  0.00    +0.000 A 
ATOM     26  C   UNL     1       2.461   7.516  17.896  0.00  0.00    +0.000 A 
ATOM     27  C   UNL     1       2.236   8.912  17.948  0.00  0.00    +0.000 A 
ATOM     28  C   UNL     1       1.649   9.152  19.164  0.00  0.00    +0.000 A 
ATOM     29  O   UNL     1       1.485   7.992  19.845  0.00  0.00    +0.000 OA
ENDBRANCH  24  25
ENDBRANCH  21  23
ENDBRANCH   1  21
TORSDOF 5
ENDMDL
MODEL 8
REMARK VINA RESULT:      -7.4      2.665      4.733
REMARK  Name = 
REMARK  5 active torsions:
REMARK  status: ('A' for Active; 'I' for Inactive)
REMARK    1  A    between atoms: S_2  and  C_4
REMARK    2  A    between atoms: S_2  and  N_11
REMARK    3  A    between atoms: C_5  and  C_6
REMARK    4  A    between atoms: C_14  and  C_15
REMARK    5  A    between atoms: C_21  and  C_22
REMARK                            x       y       z     vdW  Elec       q    Type
REMARK                         _______ _______ _______ _____ _____    ______ ____
ROOT
ATOM      1  N   UNL     1       1.251   9.712  20.047  0.00  0.00    +0.000 N 
ATOM      2  C   UNL     1       1.874   8.538  19.576  0.00  0.00    +0.000 A 
ATOM      3  N   UNL     1       1.612   7.426  20.208  0.00  0.00    +0.000 NA
ATOM      4  C   UNL     1       2.218   6.364  19.544  0.00  0.00    +0.000 A 
ATOM      5  C   UNL     1       3.019   6.718  18.454  0.00  0.00    +0.000 A 
ATOM      6  S   UNL     1       2.925   8.440  18.252  0.00  0.00    +0.000 S 
ATOM      7  H   UNL     1       0.834   9.538  20.959  0.00  0.00    +0.000 HD
ENDROOT
BRANCH   4   8
ATOM      8  C   UNL     1       1.936   5.003  19.997  0.00  0.00    +0.000 A 
ATOM      9  C   UNL     1       1.158   4.160  19.190  0.00  0.00    +0.000 A 
ATOM     10  C   UNL     1       0.930   2.831  19.556  0.00  0.00    +0.000 A 
ATOM     11  C   UNL     1       1.477   2.330  20.733  0.00  0.00    +0.000 A 
ATOM     12  C   UNL     1       2.226   3.165  21.559  0.00  0.00    +0.000 A 
ATOM     13  C   UNL     1       2.436   4.500  21.204  0.00  0.00    +0.000 A 
ENDBRANCH   4   8
BRANCH   5  14
ATOM     14  C   UNL     1       3.822   5.932  17.496  0.00  0.00    +0.000 A 
ATOM     15  C   UNL     1       3.842   4.530  17.548  0.00  0.00    +0.000 A 
ATOM     16  C   UNL     1       4.669   3.788  16.700  0.00  0.00    +0.000 A 
ATOM     17  C   UNL     1       5.455   4.434  15.750  0.00  0.00    +0.000 A 
ATOM     18  C   UNL     1       5.418   5.820  15.651  0.00  0.00    +0.000 A 
ATOM     19  C   UNL     1       4.620   6.564  16.525  0.00  0.00    +0.000 A 
ENDBRANCH   5  14
BRANCH   1  21
ATOM     20  O   UNL     1      -1.209  10.258  19.745  0.00  0.00    +0.000 OA
ATOM     21  S   UNL     1       0.036  10.269  19.007  0.00  0.00    +0.000 S 
ATOM     22  O   UNL     1       0.176   9.458  17.813  0.00  0.00    +0.000 OA
BRANCH  21  23
ATOM     23  C   UNL     1       0.401  11.911  18.583  0.00  0.00    +0.000 C 
ATOM     24  C   UNL     1       1.614  12.412  18.857  0.00  0.00    +0.000 C 
BRANCH  24  25
ATOM     25  C   UNL     1       1.879  13.789  18.630  0.00  0.00    +0.000 A 
ATOM     26  C   UNL     1       3.020  14.383  18.105  0.00  0.00    +0.000 A 
ATOM     27  C   UNL     1       2.822  15.785  18.111  0.00  0.00    +0.000 A 
ATOM     28  C   UNL     1       1.580  15.985  18.656  0.00  0.00    +0.000 A 
ATOM     29  O   UNL     1       1.002  14.799  18.961  0.00  0.00    +0.000 OA
ENDBRANCH  24  25
ENDBRANCH  21  23
ENDBRANCH   1  21
TORSDOF 5
ENDMDL
MODEL 9
REMARK VINA RESULT:      -7.3      2.507      4.326
REMARK  Name = 
REMARK  5 active torsions:
REMARK  status: ('A' for Active; 'I' for Inactive)
REMARK    1  A    between atoms: S_2  and  C_4
REMARK    2  A    between atoms: S_2  and  N_11
REMARK    3  A    between atoms: C_5  and  C_6
REMARK    4  A    between atoms: C_14  and  C_15
REMARK    5  A    between atoms: C_21  and  C_22
REMARK                            x       y       z     vdW  Elec       q    Type
REMARK                         _______ _______ _______ _____ _____    ______ ____
ROOT
ATOM      1  N   UNL     1       1.247   9.875  19.890  0.00  0.00    +0.000 N 
ATOM      2  C   UNL     1       1.858   8.681  19.459  0.00  0.00    +0.000 A 
ATOM      3  N   UNL     1       1.599   7.596  20.139  0.00  0.00    +0.000 NA
ATOM      4  C   UNL     1       2.192   6.504  19.510  0.00  0.00    +0.000 A 
ATOM      5  C   UNL     1       2.980   6.811  18.397  0.00  0.00    +0.000 A 
ATOM      6  S   UNL     1       2.892   8.524  18.127  0.00  0.00    +0.000 S 
ATOM      7  H   UNL     1       0.841   9.740  20.814  0.00  0.00    +0.000 HD
ENDROOT
BRANCH   4   8
ATOM      8  C   UNL     1       1.909   5.165  20.021  0.00  0.00    +0.000 A 
ATOM      9  C   UNL     1       1.097   4.302  19.269  0.00  0.00    +0.000 A 
ATOM     10  C   UNL     1       0.867   2.990  19.691  0.00  0.00    +0.000 A 
ATOM     11  C   UNL     1       1.445   2.526  20.868  0.00  0.00    +0.000 A 
ATOM     12  C   UNL     1       2.228   3.381  21.640  0.00  0.00    +0.000 A 
ATOM     13  C   UNL     1       2.441   4.700  21.230  0.00  0.00    +0.000 A 
ENDBRANCH   4   8
BRANCH   5  14
ATOM     14  C   UNL     1       3.768   5.983  17.462  0.00  0.00    +0.000 A 
ATOM     15  C   UNL     1       3.700   4.582  17.502  0.00  0.00    +0.000 A 
ATOM     16  C   UNL     1       4.510   3.796  16.678  0.00  0.00    +0.000 A 
ATOM     17  C   UNL     1       5.367   4.398  15.761  0.00  0.00    +0.000 A 
ATOM     18  C   UNL     1       5.418   5.785  15.673  0.00  0.00    +0.000 A 
ATOM     19  C   UNL     1       4.636   6.571  16.524  0.00  0.00    +0.000 A 
ENDBRANCH   5  14
BRANCH   1  21
ATOM     20  O   UNL     1      -0.498   9.229  18.165  0.00  0.00    +0.000 OA
ATOM     21  S   UNL     1       0.021  10.397  18.844  0.00  0.00    +0.000 S 
ATOM     22  O   UNL     1       0.626  11.469  18.078  0.00  0.00    +0.000 OA
BRANCH  21  23
ATOM     23  C   UNL     1      -1.253  11.077  19.804  0.00  0.00    +0.000 C 
ATOM     24  C   UNL     1      -0.981  11.548  21.030  0.00  0.00    +0.000 C 
BRANCH  24  25
ATOM     25  C   UNL     1      -2.038  11.989  21.870  0.00  0.00    +0.000 A 
ATOM     26  C   UNL     1      -2.152  11.892  23.251  0.00  0.00    +0.000 A 
ATOM     27  C   UNL     1      -3.403  12.439  23.623  0.00  0.00    +0.000 A 
ATOM     28  C   UNL     1      -4.004  12.829  22.453  0.00  0.00    +0.000 A 
ATOM     29  O   UNL     1      -3.193  12.574  21.399  0.00  0.00    +0.000 OA
ENDBRANCH  24  25
ENDBRANCH  21  23
ENDBRANCH   1  21
TORSDOF 5
ENDMDL
