MODEL 1
REMARK VINA RESULT:      -7.6      0.000      0.000
REMARK  Name = 
REMARK  4 active torsions:
REMARK  status: ('A' for Active; 'I' for Inactive)
REMARK    1  A    between atoms: C_1  and  O_2
REMARK    2  A    between atoms: O_2  and  C_3
REMARK    3  A    between atoms: C_10  and  S_11
REMARK    4  A    between atoms: S_11  and  C_12
REMARK                            x       y       z     vdW  Elec       q    Type
REMARK                         _______ _______ _______ _____ _____    ______ ____
ROOT
ATOM      1  C   UNL     1       0.503   9.890  21.847  0.00  0.00    +0.000 A 
ATOM      2  C   UNL     1       0.546  10.715  20.719  0.00  0.00    +0.000 A 
ATOM      3  C   UNL     1       1.072  10.232  19.516  0.00  0.00    +0.000 A 
ATOM      4  C   UNL     1       1.561   8.926  19.447  0.00  0.00    +0.000 A 
ATOM      5  C   UNL     1       2.114   8.391  18.196  0.00  0.00    +0.000 A 
ATOM      6  O   UNL     1       2.153   9.048  17.165  0.00  0.00    +0.000 OA
ATOM      7  C   UNL     1       2.614   7.008  18.235  0.00  0.00    +0.000 A 
ATOM      8  C   UNL     1       2.549   6.317  19.382  0.00  0.00    +0.000 A 
ATOM      9  O   UNL     1       2.009   6.818  20.559  0.00  0.00    +0.000 OA
ATOM     10  C   UNL     1       1.529   8.103  20.567  0.00  0.00    +0.000 A 
ATOM     11  C   UNL     1       0.994   8.582  21.763  0.00  0.00    +0.000 A 
ENDROOT
BRANCH   1  13
ATOM     12  C   UNL     1      -1.141  11.075  23.092  0.00  0.00    +0.000 C 
ATOM     13  O   UNL     1       0.010  10.239  23.074  0.00  0.00    +0.000 OA
ENDBRANCH   1  13
BRANCH   8  14
ATOM     14  S   UNL     1       3.084   4.664  19.432  0.00  0.00    +0.000 S 
BRANCH  14  15
ATOM     15  C   UNL     1       4.659   4.798  18.601  0.00  0.00    +0.000 A 
ATOM     16  C   UNL     1       5.781   5.360  19.225  0.00  0.00    +0.000 A 
ATOM     17  C   UNL     1       7.017   5.397  18.569  0.00  0.00    +0.000 A 
ATOM     18  C   UNL     1       7.140   4.862  17.289  0.00  0.00    +0.000 A 
ATOM     19  C   UNL     1       6.029   4.293  16.677  0.00  0.00    +0.000 A 
ATOM     20  F   UNL     1       6.152   3.765  15.452  0.00  0.00    +0.000 F 
ATOM     21  C   UNL     1       4.795   4.255  17.318  0.00  0.00    +0.000 A 
ENDBRANCH  14  15
ENDBRANCH   8  14
TORSDOF 3
ENDMDL
MODEL 2
REMARK VINA RESULT:      -7.4      2.674      4.421
REMARK  Name = 
REMARK  4 active torsions:
REMARK  status: ('A' for Active; 'I' for Inactive)
REMARK    1  A    between atoms: C_1  and  O_2
REMARK    2  A    between atoms: O_2  and  C_3
REMARK    3  A    between atoms: C_10  and  S_11
REMARK    4  A    between atoms: S_11  and  C_12
REMARK                            x       y       z     vdW  Elec       q    Type
REMARK                         _______ _______ _______ _____ _____    ______ ____
ROOT
ATOM      1  C   UNL     1       1.587   6.136  20.404  0.00  0.00    +0.000 A 
ATOM      2  C   UNL     1       0.933   4.902  20.468  0.00  0.00    +0.000 A 
ATOM      3  C   UNL     1       1.319   3.858  19.622  0.00  0.00    +0.000 A 
ATOM      4  C   UNL     1       2.357   4.054  18.708  0.00  0.00    +0.000 A 
ATOM      5  C   UNL     1       2.788   2.973  17.811  0.00  0.00    +0.000 A 
ATOM      6  O   UNL     1       2.279   1.861  17.836  0.00  0.00    +0.000 OA
ATOM      7  C   UNL     1       3.880   3.289  16.877  0.00  0.00    +0.000 A 
ATOM      8  C   UNL     1       4.416   4.517  16.883  0.00  0.00    +0.000 A 
ATOM      9  O   UNL     1       4.020   5.532  17.744  0.00  0.00    +0.000 OA
ATOM     10  C   UNL     1       3.006   5.281  18.633  0.00  0.00    +0.000 A 
ATOM     11  C   UNL     1       2.626   6.318  19.485  0.00  0.00    +0.000 A 
ENDROOT
BRANCH   1  13
ATOM     12  C   UNL     1       1.390   8.502  20.546  0.00  0.00    +0.000 C 
ATOM     13  O   UNL     1       1.308   7.230  21.178  0.00  0.00    +0.000 OA
ENDBRANCH   1  13
BRANCH   8  14
ATOM     14  S   UNL     1       5.744   4.890  15.825  0.00  0.00    +0.000 S 
BRANCH  14  15
ATOM     15  C   UNL     1       6.783   5.847  16.919  0.00  0.00    +0.000 A 
ATOM     16  C   UNL     1       6.985   7.222  16.735  0.00  0.00    +0.000 A 
ATOM     17  C   UNL     1       7.757   7.955  17.643  0.00  0.00    +0.000 A 
ATOM     18  C   UNL     1       8.320   7.320  18.748  0.00  0.00    +0.000 A 
ATOM     19  C   UNL     1       8.107   5.959  18.935  0.00  0.00    +0.000 A 
ATOM     20  F   UNL     1       8.636   5.352  20.005  0.00  0.00    +0.000 F 
ATOM     21  C   UNL     1       7.346   5.220  18.036  0.00  0.00    +0.000 A 
ENDBRANCH  14  15
ENDBRANCH   8  14
TORSDOF 3
ENDMDL
MODEL 3
REMARK VINA RESULT:      -7.4      1.072      1.496
REMARK  Name = 
REMARK  4 active torsions:
REMARK  status: ('A' for Active; 'I' for Inactive)
REMARK    1  A    between atoms: C_1  and  O_2
REMARK    2  A    between atoms: O_2  and  C_3
REMARK    3  A    between atoms: C_10  and  S_11
REMARK    4  A    between atoms: S_11  and  C_12
REMARK                            x       y       z     vdW  Elec       q    Type
REMARK                         _______ _______ _______ _____ _____    ______ ____
ROOT
ATOM      1  C   UNL     1       0.329   9.704  21.851  0.00  0.00    +0.000 A 
ATOM      2  C   UNL     1       0.371  10.561  20.748  0.00  0.00    +0.000 A 
ATOM      3  C   UNL     1       0.960  10.139  19.552  0.00  0.00    +0.000 A 
ATOM      4  C   UNL     1       1.512   8.859  19.465  0.00  0.00    +0.000 A 
ATOM      5  C   UNL     1       2.132   8.386  18.220  0.00  0.00    +0.000 A 
ATOM      6  O   UNL     1       2.175   9.074  17.210  0.00  0.00    +0.000 OA
ATOM      7  C   UNL     1       2.695   7.027  18.240  0.00  0.00    +0.000 A 
ATOM      8  C   UNL     1       2.624   6.302  19.364  0.00  0.00    +0.000 A 
ATOM      9  O   UNL     1       2.021   6.743  20.535  0.00  0.00    +0.000 OA
ATOM     10  C   UNL     1       1.481   8.004  20.561  0.00  0.00    +0.000 A 
ATOM     11  C   UNL     1       0.884   8.423  21.750  0.00  0.00    +0.000 A 
ENDROOT
BRANCH   1  13
ATOM     12  C   UNL     1      -1.251  10.976  23.093  0.00  0.00    +0.000 C 
ATOM     13  O   UNL     1      -0.221   9.994  23.069  0.00  0.00    +0.000 OA
ENDBRANCH   1  13
BRANCH   8  14
ATOM     14  S   UNL     1       3.235   4.674  19.388  0.00  0.00    +0.000 S 
BRANCH  14  15
ATOM     15  C   UNL     1       4.766   4.879  18.491  0.00  0.00    +0.000 A 
ATOM     16  C   UNL     1       4.854   4.643  17.112  0.00  0.00    +0.000 A 
ATOM     17  C   UNL     1       6.053   4.870  16.427  0.00  0.00    +0.000 A 
ATOM     18  C   UNL     1       7.167   5.345  17.115  0.00  0.00    +0.000 A 
ATOM     19  C   UNL     1       7.073   5.591  18.480  0.00  0.00    +0.000 A 
ATOM     20  F   UNL     1       8.140   6.063  19.138  0.00  0.00    +0.000 F 
ATOM     21  C   UNL     1       5.887   5.365  19.172  0.00  0.00    +0.000 A 
ENDBRANCH  14  15
ENDBRANCH   8  14
TORSDOF 3
ENDMDL
MODEL 4
REMARK VINA RESULT:      -7.3      4.463      7.689
REMARK  Name = 
REMARK  4 active torsions:
REMARK  status: ('A' for Active; 'I' for Inactive)
REMARK    1  A    between atoms: C_1  and  O_2
REMARK    2  A    between atoms: O_2  and  C_3
REMARK    3  A    between atoms: C_10  and  S_11
REMARK    4  A    between atoms: S_11  and  C_12
REMARK                            x       y       z     vdW  Elec       q    Type
REMARK                         _______ _______ _______ _____ _____    ______ ____
ROOT
ATOM      1  C   UNL     1       6.250   4.711  14.349  0.00  0.00    +0.000 A 
ATOM      2  C   UNL     1       7.462   4.500  15.014  0.00  0.00    +0.000 A 
ATOM      3  C   UNL     1       7.541   4.671  16.400  0.00  0.00    +0.000 A 
ATOM      4  C   UNL     1       6.407   5.061  17.117  0.00  0.00    +0.000 A 
ATOM      5  C   UNL     1       6.460   5.243  18.574  0.00  0.00    +0.000 A 
ATOM      6  O   UNL     1       7.479   5.045  19.220  0.00  0.00    +0.000 OA
ATOM      7  C   UNL     1       5.213   5.667  19.229  0.00  0.00    +0.000 A 
ATOM      8  C   UNL     1       4.115   5.868  18.488  0.00  0.00    +0.000 A 
ATOM      9  O   UNL     1       4.062   5.677  17.113  0.00  0.00    +0.000 OA
ATOM     10  C   UNL     1       5.202   5.280  16.461  0.00  0.00    +0.000 A 
ATOM     11  C   UNL     1       5.122   5.099  15.080  0.00  0.00    +0.000 A 
ENDROOT
BRANCH   1  13
ATOM     12  C   UNL     1       5.766   3.260  12.528  0.00  0.00    +0.000 C 
ATOM     13  O   UNL     1       6.042   4.572  13.004  0.00  0.00    +0.000 OA
ENDBRANCH   1  13
BRANCH   8  14
ATOM     14  S   UNL     1       2.620   6.315  19.253  0.00  0.00    +0.000 S 
BRANCH  14  15
ATOM     15  C   UNL     1       1.866   4.711  19.474  0.00  0.00    +0.000 A 
ATOM     16  C   UNL     1       1.494   3.910  18.385  0.00  0.00    +0.000 A 
ATOM     17  C   UNL     1       0.960   2.633  18.591  0.00  0.00    +0.000 A 
ATOM     18  C   UNL     1       0.806   2.145  19.886  0.00  0.00    +0.000 A 
ATOM     19  C   UNL     1       1.188   2.935  20.964  0.00  0.00    +0.000 A 
ATOM     20  F   UNL     1       1.053   2.459  22.208  0.00  0.00    +0.000 F 
ATOM     21  C   UNL     1       1.715   4.208  20.771  0.00  0.00    +0.000 A 
ENDBRANCH  14  15
ENDBRANCH   8  14
TORSDOF 3
ENDMDL
MODEL 5
REMARK VINA RESULT:      -7.2      4.275      7.563
REMARK  Name = 
REMARK  4 active torsions:
REMARK  status: ('A' for Active; 'I' for Inactive)
REMARK    1  A    between atoms: C_1  and  O_2
REMARK    2  A    between atoms: O_2  and  C_3
REMARK    3  A    between atoms: C_10  and  S_11
REMARK    4  A    between atoms: S_11  and  C_12
REMARK                            x       y       z     vdW  Elec       q    Type
REMARK                         _______ _______ _______ _____ _____    ______ ____
ROOT
ATOM      1  C   UNL     1       6.072   4.624  14.284  0.00  0.00    +0.000 A 
ATOM      2  C   UNL     1       7.325   4.439  14.875  0.00  0.00    +0.000 A 
ATOM      3  C   UNL     1       7.496   4.667  16.244  0.00  0.00    +0.000 A 
ATOM      4  C   UNL     1       6.411   5.085  17.018  0.00  0.00    +0.000 A 
ATOM      5  C   UNL     1       6.560   5.326  18.460  0.00  0.00    +0.000 A 
ATOM      6  O   UNL     1       7.620   5.154  19.045  0.00  0.00    +0.000 OA
ATOM      7  C   UNL     1       5.359   5.778  19.179  0.00  0.00    +0.000 A 
ATOM      8  C   UNL     1       4.214   5.949  18.505  0.00  0.00    +0.000 A 
ATOM      9  O   UNL     1       4.070   5.703  17.146  0.00  0.00    +0.000 OA
ATOM     10  C   UNL     1       5.165   5.279  16.435  0.00  0.00    +0.000 A 
ATOM     11  C   UNL     1       4.993   5.042  15.072  0.00  0.00    +0.000 A 
ENDROOT
BRANCH   1  13
ATOM     12  C   UNL     1       5.962   3.119  12.446  0.00  0.00    +0.000 C 
ATOM     13  O   UNL     1       5.775   4.431  12.962  0.00  0.00    +0.000 OA
ENDBRANCH   1  13
BRANCH   8  14
ATOM     14  S   UNL     1       2.771   6.428  19.349  0.00  0.00    +0.000 S 
BRANCH  14  15
ATOM     15  C   UNL     1       2.174   4.842  19.914  0.00  0.00    +0.000 A 
ATOM     16  C   UNL     1       2.343   4.416  21.239  0.00  0.00    +0.000 A 
ATOM     17  C   UNL     1       1.811   3.193  21.666  0.00  0.00    +0.000 A 
ATOM     18  C   UNL     1       1.098   2.396  20.773  0.00  0.00    +0.000 A 
ATOM     19  C   UNL     1       0.921   2.828  19.464  0.00  0.00    +0.000 A 
ATOM     20  F   UNL     1       0.223   2.068  18.610  0.00  0.00    +0.000 F 
ATOM     21  C   UNL     1       1.449   4.039  19.027  0.00  0.00    +0.000 A 
ENDBRANCH  14  15
ENDBRANCH   8  14
TORSDOF 3
ENDMDL
MODEL 6
REMARK VINA RESULT:      -7.2      2.810      4.552
REMARK  Name = 
REMARK  4 active torsions:
REMARK  status: ('A' for Active; 'I' for Inactive)
REMARK    1  A    between atoms: C_1  and  O_2
REMARK    2  A    between atoms: O_2  and  C_3
REMARK    3  A    between atoms: C_10  and  S_11
REMARK    4  A    between atoms: S_11  and  C_12
REMARK                            x       y       z     vdW  Elec       q    Type
REMARK                         _______ _______ _______ _____ _____    ______ ____
ROOT
ATOM      1  C   UNL     1       1.497   5.867  20.460  0.00  0.00    +0.000 A 
ATOM      2  C   UNL     1       0.891   4.607  20.455  0.00  0.00    +0.000 A 
ATOM      3  C   UNL     1       1.341   3.616  19.577  0.00  0.00    +0.000 A 
ATOM      4  C   UNL     1       2.392   3.891  18.699  0.00  0.00    +0.000 A 
ATOM      5  C   UNL     1       2.888   2.867  17.770  0.00  0.00    +0.000 A 
ATOM      6  O   UNL     1       2.424   1.736  17.735  0.00  0.00    +0.000 OA
ATOM      7  C   UNL     1       3.990   3.265  16.880  0.00  0.00    +0.000 A 
ATOM      8  C   UNL     1       4.476   4.512  16.951  0.00  0.00    +0.000 A 
ATOM      9  O   UNL     1       4.018   5.473  17.843  0.00  0.00    +0.000 OA
ATOM     10  C   UNL     1       2.992   5.144  18.693  0.00  0.00    +0.000 A 
ATOM     11  C   UNL     1       2.550   6.129  19.577  0.00  0.00    +0.000 A 
ENDROOT
BRANCH   1  13
ATOM     12  C   UNL     1       1.448   8.222  20.792  0.00  0.00    +0.000 C 
ATOM     13  O   UNL     1       1.155   6.915  21.271  0.00  0.00    +0.000 OA
ENDBRANCH   1  13
BRANCH   8  14
ATOM     14  S   UNL     1       5.814   4.982  15.946  0.00  0.00    +0.000 S 
BRANCH  14  15
ATOM     15  C   UNL     1       6.777   5.945  17.102  0.00  0.00    +0.000 A 
ATOM     16  C   UNL     1       7.429   5.356  18.194  0.00  0.00    +0.000 A 
ATOM     17  C   UNL     1       8.225   6.127  19.048  0.00  0.00    +0.000 A 
ATOM     18  C   UNL     1       8.382   7.490  18.809  0.00  0.00    +0.000 A 
ATOM     19  C   UNL     1       7.745   8.070  17.717  0.00  0.00    +0.000 A 
ATOM     20  F   UNL     1       7.908   9.377  17.478  0.00  0.00    +0.000 F 
ATOM     21  C   UNL     1       6.948   7.313  16.864  0.00  0.00    +0.000 A 
ENDBRANCH  14  15
ENDBRANCH   8  14
TORSDOF 3
ENDMDL
MODEL 7
REMARK VINA RESULT:      -7.2      3.444      7.882
REMARK  Name = 
REMARK  4 active torsions:
REMARK  status: ('A' for Active; 'I' for Inactive)
REMARK    1  A    between atoms: C_1  and  O_2
REMARK    2  A    between atoms: O_2  and  C_3
REMARK    3  A    between atoms: C_10  and  S_11
REMARK    4  A    between atoms: S_11  and  C_12
REMARK                            x       y       z     vdW  Elec       q    Type
REMARK                         _______ _______ _______ _____ _____    ______ ____
ROOT
ATOM      1  C   UNL     1       5.838   4.277  14.329  0.00  0.00    +0.000 A 
ATOM      2  C   UNL     1       7.160   4.472  14.741  0.00  0.00    +0.000 A 
ATOM      3  C   UNL     1       7.442   4.756  16.081  0.00  0.00    +0.000 A 
ATOM      4  C   UNL     1       6.400   4.850  17.005  0.00  0.00    +0.000 A 
ATOM      5  C   UNL     1       6.668   5.141  18.420  0.00  0.00    +0.000 A 
ATOM      6  O   UNL     1       7.802   5.292  18.853  0.00  0.00    +0.000 OA
ATOM      7  C   UNL     1       5.497   5.232  19.307  0.00  0.00    +0.000 A 
ATOM      8  C   UNL     1       4.271   5.055  18.797  0.00  0.00    +0.000 A 
ATOM      9  O   UNL     1       4.020   4.761  17.463  0.00  0.00    +0.000 OA
ATOM     10  C   UNL     1       5.083   4.666  16.601  0.00  0.00    +0.000 A 
ATOM     11  C   UNL     1       4.803   4.373  15.266  0.00  0.00    +0.000 A 
ENDROOT
BRANCH   1  13
ATOM     12  C   UNL     1       6.273   3.135  12.289  0.00  0.00    +0.000 C 
ATOM     13  O   UNL     1       5.432   3.990  13.055  0.00  0.00    +0.000 OA
ENDBRANCH   1  13
BRANCH   8  14
ATOM     14  S   UNL     1       2.881   5.103  19.841  0.00  0.00    +0.000 S 
BRANCH  14  15
ATOM     15  C   UNL     1       2.331   6.783  19.585  0.00  0.00    +0.000 A 
ATOM     16  C   UNL     1       2.473   7.429  18.348  0.00  0.00    +0.000 A 
ATOM     17  C   UNL     1       1.978   8.725  18.162  0.00  0.00    +0.000 A 
ATOM     18  C   UNL     1       1.329   9.378  19.207  0.00  0.00    +0.000 A 
ATOM     19  C   UNL     1       1.177   8.730  20.428  0.00  0.00    +0.000 A 
ATOM     20  F   UNL     1       0.540   9.352  21.428  0.00  0.00    +0.000 F 
ATOM     21  C   UNL     1       1.669   7.444  20.626  0.00  0.00    +0.000 A 
ENDBRANCH  14  15
ENDBRANCH   8  14
TORSDOF 3
ENDMDL
MODEL 8
REMARK VINA RESULT:      -7.2      2.606      3.201
REMARK  Name = 
REMARK  4 active torsions:
REMARK  status: ('A' for Active; 'I' for Inactive)
REMARK    1  A    between atoms: C_1  and  O_2
REMARK    2  A    between atoms: O_2  and  C_3
REMARK    3  A    between atoms: C_10  and  S_11
REMARK    4  A    between atoms: S_11  and  C_12
REMARK                            x       y       z     vdW  Elec       q    Type
REMARK                         _______ _______ _______ _____ _____    ______ ____
ROOT
ATOM      1  C   UNL     1       0.036   9.532  21.697  0.00  0.00    +0.000 A 
ATOM      2  C   UNL     1      -0.048  10.554  20.747  0.00  0.00    +0.000 A 
ATOM      3  C   UNL     1       0.641  10.444  19.535  0.00  0.00    +0.000 A 
ATOM      4  C   UNL     1       1.418   9.312  19.279  0.00  0.00    +0.000 A 
ATOM      5  C   UNL     1       2.147   9.167  18.012  0.00  0.00    +0.000 A 
ATOM      6  O   UNL     1       2.093  10.009  17.127  0.00  0.00    +0.000 OA
ATOM      7  C   UNL     1       2.947   7.942  17.849  0.00  0.00    +0.000 A 
ATOM      8  C   UNL     1       2.977   7.040  18.839  0.00  0.00    +0.000 A 
ATOM      9  O   UNL     1       2.272   7.169  20.029  0.00  0.00    +0.000 OA
ATOM     10  C   UNL     1       1.512   8.296  20.222  0.00  0.00    +0.000 A 
ATOM     11  C   UNL     1       0.816   8.402  21.427  0.00  0.00    +0.000 A 
ENDROOT
BRANCH   1  13
ATOM     12  C   UNL     1      -1.337  10.676  23.266  0.00  0.00    +0.000 C 
ATOM     13  O   UNL     1      -0.591   9.517  22.913  0.00  0.00    +0.000 OA
ENDBRANCH   1  13
BRANCH   8  14
ATOM     14  S   UNL     1       3.871   5.562  18.641  0.00  0.00    +0.000 S 
BRANCH  14  15
ATOM     15  C   UNL     1       2.804   4.411  19.493  0.00  0.00    +0.000 A 
ATOM     16  C   UNL     1       2.836   4.263  20.887  0.00  0.00    +0.000 A 
ATOM     17  C   UNL     1       1.947   3.395  21.531  0.00  0.00    +0.000 A 
ATOM     18  C   UNL     1       1.012   2.680  20.787  0.00  0.00    +0.000 A 
ATOM     19  C   UNL     1       0.974   2.838  19.406  0.00  0.00    +0.000 A 
ATOM     20  F   UNL     1       0.065   2.161  18.692  0.00  0.00    +0.000 F 
ATOM     21  C   UNL     1       1.856   3.694  18.755  0.00  0.00    +0.000 A 
ENDBRANCH  14  15
ENDBRANCH   8  14
TORSDOF 3
ENDMDL
MODEL 9
REMARK VINA RESULT:      -7.0      3.310      7.105
REMARK  Name = 
REMARK  4 active torsions:
REMARK  status: ('A' for Active; 'I' for Inactive)
REMARK    1  A    between atoms: C_1  and  O_2
REMARK    2  A    between atoms: O_2  and  C_3
REMARK    3  A    between atoms: C_10  and  S_11
REMARK    4  A    between atoms: S_11  and  C_12
REMARK                            x       y       z     vdW  Elec       q    Type
REMARK                         _______ _______ _______ _____ _____    ______ ____
ROOT
ATOM      1  C   UNL     1       6.463   5.892  16.688  0.00  0.00    +0.000 A 
ATOM      2  C   UNL     1       6.034   4.797  15.932  0.00  0.00    +0.000 A 
ATOM      3  C   UNL     1       4.809   4.184  16.216  0.00  0.00    +0.000 A 
ATOM      4  C   UNL     1       4.019   4.665  17.262  0.00  0.00    +0.000 A 
ATOM      5  C   UNL     1       2.725   4.044  17.579  0.00  0.00    +0.000 A 
ATOM      6  O   UNL     1       2.278   3.104  16.937  0.00  0.00    +0.000 OA
ATOM      7  C   UNL     1       1.979   4.619  18.708  0.00  0.00    +0.000 A 
ATOM      8  C   UNL     1       2.499   5.653  19.383  0.00  0.00    +0.000 A 
ATOM      9  O   UNL     1       3.713   6.250  19.071  0.00  0.00    +0.000 OA
ATOM     10  C   UNL     1       4.443   5.747  18.023  0.00  0.00    +0.000 A 
ATOM     11  C   UNL     1       5.660   6.364  17.733  0.00  0.00    +0.000 A 
ENDROOT
BRANCH   1  13
ATOM     12  C   UNL     1       7.850   7.709  17.346  0.00  0.00    +0.000 C 
ATOM     13  O   UNL     1       7.632   6.579  16.509  0.00  0.00    +0.000 OA
ENDBRANCH   1  13
BRANCH   8  14
ATOM     14  S   UNL     1       1.605   6.380  20.685  0.00  0.00    +0.000 S 
BRANCH  14  15
ATOM     15  C   UNL     1       1.452   8.056  20.088  0.00  0.00    +0.000 A 
ATOM     16  C   UNL     1       1.735   8.398  18.758  0.00  0.00    +0.000 A 
ATOM     17  C   UNL     1       1.549   9.709  18.306  0.00  0.00    +0.000 A 
ATOM     18  C   UNL     1       1.068  10.683  19.178  0.00  0.00    +0.000 A 
ATOM     19  C   UNL     1       0.775  10.339  20.492  0.00  0.00    +0.000 A 
ATOM     20  F   UNL     1       0.298  11.272  21.326  0.00  0.00    +0.000 F 
ATOM     21  C   UNL     1       0.961   9.039  20.954  0.00  0.00    +0.000 A 
ENDBRANCH  14  15
ENDBRANCH   8  14
TORSDOF 3
ENDMDL
