MODEL 1
REMARK VINA RESULT:      -7.6      0.000      0.000
REMARK  Name = 
REMARK  9 active torsions:
REMARK  status: ('A' for Active; 'I' for Inactive)
REMARK    1  A    between atoms: C_1  and  C_2
REMARK    2  A    between atoms: C_2  and  C_3
REMARK    3  A    between atoms: C_3  and  N_4
REMARK    4  A    between atoms: C_9  and  C_10
REMARK    5  A    between atoms: N_17  and  C_18
REMARK    6  A    between atoms: C_18  and  C_19
REMARK    7  A    between atoms: C_19  and  C_20
REMARK    8  A    between atoms: C_20  and  O_21
REMARK    9  A    between atoms: O_21  and  C_22
REMARK                            x       y       z     vdW  Elec       q    Type
REMARK                         _______ _______ _______ _____ _____    ______ ____
ROOT
ATOM      1  N   UNL     1       3.189   4.325  19.601  0.00  0.00    +0.000 N 
ATOM      2  C   UNL     1       4.014   3.423  18.925  0.00  0.00    +0.000 A 
ATOM      3  O   UNL     1       4.297   2.293  19.314  0.00  0.00    +0.000 OA
ATOM      4  C   UNL     1       4.527   3.949  17.721  0.00  0.00    +0.000 A 
ATOM      5  N   UNL     1       5.302   3.356  16.773  0.00  0.00    +0.000 N 
ATOM      6  C   UNL     1       5.553   4.303  15.801  0.00  0.00    +0.000 A 
ATOM      7  N   UNL     1       4.972   5.448  16.115  0.00  0.00    +0.000 NA
ATOM      8  C   UNL     1       4.327   5.220  17.295  0.00  0.00    +0.000 A 
ATOM      9  N   UNL     1       3.575   6.114  18.029  0.00  0.00    +0.000 N 
ATOM     10  C   UNL     1       3.014   5.687  19.249  0.00  0.00    +0.000 A 
ATOM     11  O   UNL     1       2.404   6.463  19.987  0.00  0.00    +0.000 OA
ATOM     12  H   UNL     1       5.632   2.398  16.783  0.00  0.00    +0.000 HD
ENDROOT
BRANCH   6  13
ATOM     13  C   UNL     1       6.385   3.986  14.606  0.00  0.00    +0.000 C 
ATOM     14  C   UNL     1       5.565   3.634  13.368  0.00  0.00    +0.000 C 
ATOM     15  C   UNL     1       6.562   3.786  12.224  0.00  0.00    +0.000 C 
ATOM     16  C   UNL     1       7.556   4.857  12.673  0.00  0.00    +0.000 C 
ATOM     17  C   UNL     1       7.233   5.163  14.135  0.00  0.00    +0.000 C 
ENDBRANCH   6  13
BRANCH   1  18
ATOM     18  C   UNL     1       2.565   3.857  20.843  0.00  0.00    +0.000 C 
BRANCH  18  20
ATOM     19  C   UNL     1       0.752   2.715  19.469  0.00  0.00    +0.000 C 
ATOM     20  C   UNL     1       1.071   3.539  20.708  0.00  0.00    +0.000 C 
ENDBRANCH  18  20
ENDBRANCH   1  18
BRANCH   9  21
ATOM     21  C   UNL     1       3.476   7.526  17.624  0.00  0.00    +0.000 C 
BRANCH  21  22
ATOM     22  C   UNL     1       2.069   8.122  17.768  0.00  0.00    +0.000 C 
BRANCH  22  23
ATOM     23  C   UNL     1       2.088   9.649  17.807  0.00  0.00    +0.000 C 
BRANCH  23  24
ATOM     24  O   UNL     1       0.928  10.107  18.505  0.00  0.00    +0.000 OA
ATOM     25  C   UNL     1       0.839   9.571  19.816  0.00  0.00    +0.000 C 
ENDBRANCH  23  24
ENDBRANCH  22  23
ENDBRANCH  21  22
ENDBRANCH   9  21
TORSDOF 7
ENDMDL
MODEL 2
REMARK VINA RESULT:      -7.6      1.926      6.688
REMARK  Name = 
REMARK  9 active torsions:
REMARK  status: ('A' for Active; 'I' for Inactive)
REMARK    1  A    between atoms: C_1  and  C_2
REMARK    2  A    between atoms: C_2  and  C_3
REMARK    3  A    between atoms: C_3  and  N_4
REMARK    4  A    between atoms: C_9  and  C_10
REMARK    5  A    between atoms: N_17  and  C_18
REMARK    6  A    between atoms: C_18  and  C_19
REMARK    7  A    between atoms: C_19  and  C_20
REMARK    8  A    between atoms: C_20  and  O_21
REMARK    9  A    between atoms: O_21  and  C_22
REMARK                            x       y       z     vdW  Elec       q    Type
REMARK                         _______ _______ _______ _____ _____    ______ ____
ROOT
ATOM      1  N   UNL     1       5.216   5.171  17.510  0.00  0.00    +0.000 N 
ATOM      2  C   UNL     1       4.873   6.449  17.061  0.00  0.00    +0.000 A 
ATOM      3  O   UNL     1       5.439   7.057  16.157  0.00  0.00    +0.000 OA
ATOM      4  C   UNL     1       3.793   7.007  17.777  0.00  0.00    +0.000 A 
ATOM      5  N   UNL     1       3.144   8.188  17.589  0.00  0.00    +0.000 N 
ATOM      6  C   UNL     1       2.175   8.280  18.567  0.00  0.00    +0.000 A 
ATOM      7  N   UNL     1       2.207   7.213  19.347  0.00  0.00    +0.000 NA
ATOM      8  C   UNL     1       3.199   6.421  18.845  0.00  0.00    +0.000 A 
ATOM      9  N   UNL     1       3.617   5.194  19.316  0.00  0.00    +0.000 N 
ATOM     10  C   UNL     1       4.689   4.549  18.670  0.00  0.00    +0.000 A 
ATOM     11  O   UNL     1       5.159   3.493  19.097  0.00  0.00    +0.000 OA
ATOM     12  H   UNL     1       3.339   8.870  16.866  0.00  0.00    +0.000 HD
ENDROOT
BRANCH   6  13
ATOM     13  C   UNL     1       1.274   9.463  18.658  0.00  0.00    +0.000 C 
ATOM     14  C   UNL     1       0.088   9.402  17.700  0.00  0.00    +0.000 C 
ATOM     15  C   UNL     1      -0.880  10.437  18.263  0.00  0.00    +0.000 C 
ATOM     16  C   UNL     1      -0.625  10.474  19.770  0.00  0.00    +0.000 C 
ATOM     17  C   UNL     1       0.608   9.608  20.023  0.00  0.00    +0.000 C 
ENDBRANCH   6  13
BRANCH   1  18
ATOM     18  C   UNL     1       6.298   4.482  16.799  0.00  0.00    +0.000 C 
BRANCH  18  20
ATOM     19  C   UNL     1       6.177   4.179  14.274  0.00  0.00    +0.000 C 
ATOM     20  C   UNL     1       5.818   3.604  15.636  0.00  0.00    +0.000 C 
ENDBRANCH  18  20
ENDBRANCH   1  18
BRANCH   9  21
ATOM     21  C   UNL     1       3.053   4.632  20.555  0.00  0.00    +0.000 C 
BRANCH  21  22
ATOM     22  C   UNL     1       1.669   3.994  20.381  0.00  0.00    +0.000 C 
BRANCH  22  23
ATOM     23  C   UNL     1       1.755   2.525  19.969  0.00  0.00    +0.000 C 
BRANCH  23  24
ATOM     24  O   UNL     1       1.258   2.390  18.635  0.00  0.00    +0.000 OA
ATOM     25  C   UNL     1       2.295   2.162  17.692  0.00  0.00    +0.000 C 
ENDBRANCH  23  24
ENDBRANCH  22  23
ENDBRANCH  21  22
ENDBRANCH   9  21
TORSDOF 7
ENDMDL
MODEL 3
REMARK VINA RESULT:      -7.5      2.355      6.791
REMARK  Name = 
REMARK  9 active torsions:
REMARK  status: ('A' for Active; 'I' for Inactive)
REMARK    1  A    between atoms: C_1  and  C_2
REMARK    2  A    between atoms: C_2  and  C_3
REMARK    3  A    between atoms: C_3  and  N_4
REMARK    4  A    between atoms: C_9  and  C_10
REMARK    5  A    between atoms: N_17  and  C_18
REMARK    6  A    between atoms: C_18  and  C_19
REMARK    7  A    between atoms: C_19  and  C_20
REMARK    8  A    between atoms: C_20  and  O_21
REMARK    9  A    between atoms: O_21  and  C_22
REMARK                            x       y       z     vdW  Elec       q    Type
REMARK                         _______ _______ _______ _____ _____    ______ ____
ROOT
ATOM      1  N   UNL     1       4.671   5.006  17.546  0.00  0.00    +0.000 N 
ATOM      2  C   UNL     1       4.409   6.299  17.084  0.00  0.00    +0.000 A 
ATOM      3  O   UNL     1       4.946   6.826  16.113  0.00  0.00    +0.000 OA
ATOM      4  C   UNL     1       3.454   6.976  17.870  0.00  0.00    +0.000 A 
ATOM      5  N   UNL     1       2.902   8.208  17.698  0.00  0.00    +0.000 N 
ATOM      6  C   UNL     1       2.037   8.417  18.752  0.00  0.00    +0.000 A 
ATOM      7  N   UNL     1       2.040   7.373  19.563  0.00  0.00    +0.000 NA
ATOM      8  C   UNL     1       2.905   6.478  19.005  0.00  0.00    +0.000 A 
ATOM      9  N   UNL     1       3.248   5.230  19.481  0.00  0.00    +0.000 N 
ATOM     10  C   UNL     1       4.194   4.469  18.768  0.00  0.00    +0.000 A 
ATOM     11  O   UNL     1       4.601   3.384  19.189  0.00  0.00    +0.000 OA
ATOM     12  H   UNL     1       3.094   8.849  16.938  0.00  0.00    +0.000 HD
ENDROOT
BRANCH   6  13
ATOM     13  C   UNL     1       1.261   9.683  18.879  0.00  0.00    +0.000 C 
ATOM     14  C   UNL     1       0.064   9.763  17.936  0.00  0.00    +0.000 C 
ATOM     15  C   UNL     1      -0.788  10.877  18.533  0.00  0.00    +0.000 C 
ATOM     16  C   UNL     1      -0.514  10.856  20.036  0.00  0.00    +0.000 C 
ATOM     17  C   UNL     1       0.628   9.865  20.256  0.00  0.00    +0.000 C 
ENDBRANCH   6  13
BRANCH   1  18
ATOM     18  C   UNL     1       5.616   4.199  16.769  0.00  0.00    +0.000 C 
BRANCH  18  20
ATOM     19  C   UNL     1       7.533   5.030  18.225  0.00  0.00    +0.000 C 
ATOM     20  C   UNL     1       7.060   4.716  16.813  0.00  0.00    +0.000 C 
ENDBRANCH  18  20
ENDBRANCH   1  18
BRANCH   9  21
ATOM     21  C   UNL     1       2.748   4.757  20.783  0.00  0.00    +0.000 C 
BRANCH  21  22
ATOM     22  C   UNL     1       1.380   4.065  20.715  0.00  0.00    +0.000 C 
BRANCH  22  23
ATOM     23  C   UNL     1       1.477   2.564  20.982  0.00  0.00    +0.000 C 
BRANCH  23  24
ATOM     24  O   UNL     1       1.702   1.889  19.742  0.00  0.00    +0.000 OA
ATOM     25  C   UNL     1       0.886   2.393  18.696  0.00  0.00    +0.000 C 
ENDBRANCH  23  24
ENDBRANCH  22  23
ENDBRANCH  21  22
ENDBRANCH   9  21
TORSDOF 7
ENDMDL
MODEL 4
REMARK VINA RESULT:      -7.5      1.914      6.642
REMARK  Name = 
REMARK  9 active torsions:
REMARK  status: ('A' for Active; 'I' for Inactive)
REMARK    1  A    between atoms: C_1  and  C_2
REMARK    2  A    between atoms: C_2  and  C_3
REMARK    3  A    between atoms: C_3  and  N_4
REMARK    4  A    between atoms: C_9  and  C_10
REMARK    5  A    between atoms: N_17  and  C_18
REMARK    6  A    between atoms: C_18  and  C_19
REMARK    7  A    between atoms: C_19  and  C_20
REMARK    8  A    between atoms: C_20  and  O_21
REMARK    9  A    between atoms: O_21  and  C_22
REMARK                            x       y       z     vdW  Elec       q    Type
REMARK                         _______ _______ _______ _____ _____    ______ ____
ROOT
ATOM      1  N   UNL     1       5.263   5.156  17.464  0.00  0.00    +0.000 N 
ATOM      2  C   UNL     1       4.870   6.410  16.991  0.00  0.00    +0.000 A 
ATOM      3  O   UNL     1       5.399   7.014  16.061  0.00  0.00    +0.000 OA
ATOM      4  C   UNL     1       3.786   6.950  17.714  0.00  0.00    +0.000 A 
ATOM      5  N   UNL     1       3.094   8.105  17.510  0.00  0.00    +0.000 N 
ATOM      6  C   UNL     1       2.141   8.188  18.505  0.00  0.00    +0.000 A 
ATOM      7  N   UNL     1       2.223   7.142  19.309  0.00  0.00    +0.000 NA
ATOM      8  C   UNL     1       3.231   6.372  18.807  0.00  0.00    +0.000 A 
ATOM      9  N   UNL     1       3.698   5.171  19.299  0.00  0.00    +0.000 N 
ATOM     10  C   UNL     1       4.779   4.546  18.648  0.00  0.00    +0.000 A 
ATOM     11  O   UNL     1       5.292   3.516  19.091  0.00  0.00    +0.000 OA
ATOM     12  H   UNL     1       3.253   8.775  16.768  0.00  0.00    +0.000 HD
ENDROOT
BRANCH   6  13
ATOM     13  C   UNL     1       1.203   9.344  18.585  0.00  0.00    +0.000 C 
ATOM     14  C   UNL     1       0.652   9.587  19.987  0.00  0.00    +0.000 C 
ATOM     15  C   UNL     1       0.108  11.009  19.916  0.00  0.00    +0.000 C 
ATOM     16  C   UNL     1       0.968  11.736  18.882  0.00  0.00    +0.000 C 
ATOM     17  C   UNL     1       1.860  10.676  18.237  0.00  0.00    +0.000 C 
ENDBRANCH   6  13
BRANCH   1  18
ATOM     18  C   UNL     1       6.354   4.485  16.749  0.00  0.00    +0.000 C 
BRANCH  18  20
ATOM     19  C   UNL     1       6.431   4.192  14.221  0.00  0.00    +0.000 C 
ATOM     20  C   UNL     1       5.892   3.661  15.541  0.00  0.00    +0.000 C 
ENDBRANCH  18  20
ENDBRANCH   1  18
BRANCH   9  21
ATOM     21  C   UNL     1       3.177   4.622  20.562  0.00  0.00    +0.000 C 
BRANCH  21  22
ATOM     22  C   UNL     1       2.368   3.328  20.396  0.00  0.00    +0.000 C 
BRANCH  22  23
ATOM     23  C   UNL     1       0.975   3.584  19.824  0.00  0.00    +0.000 C 
BRANCH  23  24
ATOM     24  O   UNL     1       0.748   2.683  18.739  0.00  0.00    +0.000 OA
ATOM     25  C   UNL     1       1.957   2.161  18.207  0.00  0.00    +0.000 C 
ENDBRANCH  23  24
ENDBRANCH  22  23
ENDBRANCH  21  22
ENDBRANCH   9  21
TORSDOF 7
ENDMDL
MODEL 5
REMARK VINA RESULT:      -7.2      1.903      5.114
REMARK  Name = 
REMARK  9 active torsions:
REMARK  status: ('A' for Active; 'I' for Inactive)
REMARK    1  A    between atoms: C_1  and  C_2
REMARK    2  A    between atoms: C_2  and  C_3
REMARK    3  A    between atoms: C_3  and  N_4
REMARK    4  A    between atoms: C_9  and  C_10
REMARK    5  A    between atoms: N_17  and  C_18
REMARK    6  A    between atoms: C_18  and  C_19
REMARK    7  A    between atoms: C_19  and  C_20
REMARK    8  A    between atoms: C_20  and  O_21
REMARK    9  A    between atoms: O_21  and  C_22
REMARK                            x       y       z     vdW  Elec       q    Type
REMARK                         _______ _______ _______ _____ _____    ______ ____
ROOT
ATOM      1  N   UNL     1       1.482   8.971  19.572  0.00  0.00    +0.000 N 
ATOM      2  C   UNL     1       2.116   9.026  18.329  0.00  0.00    +0.000 A 
ATOM      3  O   UNL     1       2.040   9.960  17.535  0.00  0.00    +0.000 OA
ATOM      4  C   UNL     1       2.864   7.864  18.046  0.00  0.00    +0.000 A 
ATOM      5  N   UNL     1       3.659   7.580  16.979  0.00  0.00    +0.000 N 
ATOM      6  C   UNL     1       4.148   6.303  17.165  0.00  0.00    +0.000 A 
ATOM      7  N   UNL     1       3.683   5.792  18.292  0.00  0.00    +0.000 NA
ATOM      8  C   UNL     1       2.902   6.767  18.841  0.00  0.00    +0.000 A 
ATOM      9  N   UNL     1       2.196   6.712  20.025  0.00  0.00    +0.000 N 
ATOM     10  C   UNL     1       1.417   7.823  20.402  0.00  0.00    +0.000 A 
ATOM     11  O   UNL     1       0.700   7.800  21.404  0.00  0.00    +0.000 OA
ATOM     12  H   UNL     1       3.852   8.193  16.197  0.00  0.00    +0.000 HD
ENDROOT
BRANCH   6  13
ATOM     13  C   UNL     1       5.057   5.669  16.169  0.00  0.00    +0.000 C 
ATOM     14  C   UNL     1       6.536   5.812  16.516  0.00  0.00    +0.000 C 
ATOM     15  C   UNL     1       7.211   4.756  15.648  0.00  0.00    +0.000 C 
ATOM     16  C   UNL     1       6.181   3.642  15.465  0.00  0.00    +0.000 C 
ATOM     17  C   UNL     1       4.873   4.158  16.064  0.00  0.00    +0.000 C 
ENDBRANCH   6  13
BRANCH   1  18
ATOM     18  C   UNL     1       0.716  10.153  19.983  0.00  0.00    +0.000 C 
BRANCH  18  20
ATOM     19  C   UNL     1      -1.147  10.725  18.345  0.00  0.00    +0.000 C 
ATOM     20  C   UNL     1      -0.782  10.065  19.666  0.00  0.00    +0.000 C 
ENDBRANCH  18  20
ENDBRANCH   1  18
BRANCH   9  21
ATOM     21  C   UNL     1       2.138   5.468  20.810  0.00  0.00    +0.000 C 
BRANCH  21  22
ATOM     22  C   UNL     1       1.090   4.462  20.316  0.00  0.00    +0.000 C 
BRANCH  22  23
ATOM     23  C   UNL     1       1.464   3.021  20.656  0.00  0.00    +0.000 C 
BRANCH  23  24
ATOM     24  O   UNL     1       1.212   2.197  19.516  0.00  0.00    +0.000 OA
ATOM     25  C   UNL     1       1.702   2.772  18.314  0.00  0.00    +0.000 C 
ENDBRANCH  23  24
ENDBRANCH  22  23
ENDBRANCH  21  22
ENDBRANCH   9  21
TORSDOF 7
ENDMDL
MODEL 6
REMARK VINA RESULT:      -7.1      2.056      6.623
REMARK  Name = 
REMARK  9 active torsions:
REMARK  status: ('A' for Active; 'I' for Inactive)
REMARK    1  A    between atoms: C_1  and  C_2
REMARK    2  A    between atoms: C_2  and  C_3
REMARK    3  A    between atoms: C_3  and  N_4
REMARK    4  A    between atoms: C_9  and  C_10
REMARK    5  A    between atoms: N_17  and  C_18
REMARK    6  A    between atoms: C_18  and  C_19
REMARK    7  A    between atoms: C_19  and  C_20
REMARK    8  A    between atoms: C_20  and  O_21
REMARK    9  A    between atoms: O_21  and  C_22
REMARK                            x       y       z     vdW  Elec       q    Type
REMARK                         _______ _______ _______ _____ _____    ______ ____
ROOT
ATOM      1  N   UNL     1       5.502   4.976  16.845  0.00  0.00    +0.000 N 
ATOM      2  C   UNL     1       5.377   6.363  16.964  0.00  0.00    +0.000 A 
ATOM      3  O   UNL     1       6.266   7.177  16.729  0.00  0.00    +0.000 OA
ATOM      4  C   UNL     1       4.100   6.759  17.413  0.00  0.00    +0.000 A 
ATOM      5  N   UNL     1       3.588   8.008  17.586  0.00  0.00    +0.000 N 
ATOM      6  C   UNL     1       2.303   7.857  18.066  0.00  0.00    +0.000 A 
ATOM      7  N   UNL     1       2.009   6.576  18.199  0.00  0.00    +0.000 NA
ATOM      8  C   UNL     1       3.117   5.900  17.780  0.00  0.00    +0.000 A 
ATOM      9  N   UNL     1       3.301   4.534  17.729  0.00  0.00    +0.000 N 
ATOM     10  C   UNL     1       4.543   4.033  17.292  0.00  0.00    +0.000 A 
ATOM     11  O   UNL     1       4.794   2.826  17.306  0.00  0.00    +0.000 OA
ATOM     12  H   UNL     1       4.064   8.881  17.399  0.00  0.00    +0.000 HD
ENDROOT
BRANCH   6  13
ATOM     13  C   UNL     1       1.447   9.038  18.373  0.00  0.00    +0.000 C 
ATOM     14  C   UNL     1       1.159   9.212  19.861  0.00  0.00    +0.000 C 
ATOM     15  C   UNL     1       0.676  10.655  19.966  0.00  0.00    +0.000 C 
ATOM     16  C   UNL     1       1.376  11.414  18.838  0.00  0.00    +0.000 C 
ATOM     17  C   UNL     1       2.094  10.366  17.989  0.00  0.00    +0.000 C 
ENDBRANCH   6  13
BRANCH   1  18
ATOM     18  C   UNL     1       6.779   4.463  16.338  0.00  0.00    +0.000 C 
BRANCH  18  20
ATOM     19  C   UNL     1       5.978   3.935  13.980  0.00  0.00    +0.000 C 
ATOM     20  C   UNL     1       6.987   4.686  14.835  0.00  0.00    +0.000 C 
ENDBRANCH  18  20
ENDBRANCH   1  18
BRANCH   9  21
ATOM     21  C   UNL     1       2.277   3.616  18.256  0.00  0.00    +0.000 C 
BRANCH  21  22
ATOM     22  C   UNL     1       2.127   3.654  19.783  0.00  0.00    +0.000 C 
BRANCH  22  23
ATOM     23  C   UNL     1       3.246   2.895  20.494  0.00  0.00    +0.000 C 
BRANCH  23  24
ATOM     24  O   UNL     1       2.789   2.510  21.792  0.00  0.00    +0.000 OA
ATOM     25  C   UNL     1       1.380   2.618  21.924  0.00  0.00    +0.000 C 
ENDBRANCH  23  24
ENDBRANCH  22  23
ENDBRANCH  21  22
ENDBRANCH   9  21
TORSDOF 7
ENDMDL
MODEL 7
REMARK VINA RESULT:      -7.1      2.474      6.616
REMARK  Name = 
REMARK  9 active torsions:
REMARK  status: ('A' for Active; 'I' for Inactive)
REMARK    1  A    between atoms: C_1  and  C_2
REMARK    2  A    between atoms: C_2  and  C_3
REMARK    3  A    between atoms: C_3  and  N_4
REMARK    4  A    between atoms: C_9  and  C_10
REMARK    5  A    between atoms: N_17  and  C_18
REMARK    6  A    between atoms: C_18  and  C_19
REMARK    7  A    between atoms: C_19  and  C_20
REMARK    8  A    between atoms: C_20  and  O_21
REMARK    9  A    between atoms: O_21  and  C_22
REMARK                            x       y       z     vdW  Elec       q    Type
REMARK                         _______ _______ _______ _____ _____    ______ ____
ROOT
ATOM      1  N   UNL     1       4.990   5.083  17.609  0.00  0.00    +0.000 N 
ATOM      2  C   UNL     1       4.720   6.345  17.073  0.00  0.00    +0.000 A 
ATOM      3  O   UNL     1       5.334   6.867  16.147  0.00  0.00    +0.000 OA
ATOM      4  C   UNL     1       3.655   6.999  17.727  0.00  0.00    +0.000 A 
ATOM      5  N   UNL     1       3.069   8.196  17.451  0.00  0.00    +0.000 N 
ATOM      6  C   UNL     1       2.086   8.395  18.398  0.00  0.00    +0.000 A 
ATOM      7  N   UNL     1       2.049   7.380  19.243  0.00  0.00    +0.000 NA
ATOM      8  C   UNL     1       3.010   6.511  18.815  0.00  0.00    +0.000 A 
ATOM      9  N   UNL     1       3.357   5.298  19.372  0.00  0.00    +0.000 N 
ATOM     10  C   UNL     1       4.409   4.562  18.793  0.00  0.00    +0.000 A 
ATOM     11  O   UNL     1       4.818   3.514  19.296  0.00  0.00    +0.000 OA
ATOM     12  H   UNL     1       3.313   8.821  16.692  0.00  0.00    +0.000 HD
ENDROOT
BRANCH   6  13
ATOM     13  C   UNL     1       1.243   9.624  18.394  0.00  0.00    +0.000 C 
ATOM     14  C   UNL     1       0.524   9.876  19.716  0.00  0.00    +0.000 C 
ATOM     15  C   UNL     1       0.112  11.341  19.626  0.00  0.00    +0.000 C 
ATOM     16  C   UNL     1       1.163  12.019  18.748  0.00  0.00    +0.000 C 
ATOM     17  C   UNL     1       2.048  10.905  18.191  0.00  0.00    +0.000 C 
ENDBRANCH   6  13
BRANCH   1  18
ATOM     18  C   UNL     1       6.051   4.299  16.969  0.00  0.00    +0.000 C 
BRANCH  18  20
ATOM     19  C   UNL     1       7.538   5.509  18.644  0.00  0.00    +0.000 C 
ATOM     20  C   UNL     1       7.469   4.769  17.316  0.00  0.00    +0.000 C 
ENDBRANCH  18  20
ENDBRANCH   1  18
BRANCH   9  21
ATOM     21  C   UNL     1       2.741   4.843  20.630  0.00  0.00    +0.000 C 
BRANCH  21  22
ATOM     22  C   UNL     1       1.267   4.438  20.495  0.00  0.00    +0.000 C 
BRANCH  22  23
ATOM     23  C   UNL     1       1.102   2.963  20.133  0.00  0.00    +0.000 C 
BRANCH  23  24
ATOM     24  O   UNL     1       0.948   2.850  18.716  0.00  0.00    +0.000 OA
ATOM     25  C   UNL     1       1.952   2.040  18.125  0.00  0.00    +0.000 C 
ENDBRANCH  23  24
ENDBRANCH  22  23
ENDBRANCH  21  22
ENDBRANCH   9  21
TORSDOF 7
ENDMDL
MODEL 8
REMARK VINA RESULT:      -7.1      0.893      1.097
REMARK  Name = 
REMARK  9 active torsions:
REMARK  status: ('A' for Active; 'I' for Inactive)
REMARK    1  A    between atoms: C_1  and  C_2
REMARK    2  A    between atoms: C_2  and  C_3
REMARK    3  A    between atoms: C_3  and  N_4
REMARK    4  A    between atoms: C_9  and  C_10
REMARK    5  A    between atoms: N_17  and  C_18
REMARK    6  A    between atoms: C_18  and  C_19
REMARK    7  A    between atoms: C_19  and  C_20
REMARK    8  A    between atoms: C_20  and  O_21
REMARK    9  A    between atoms: O_21  and  C_22
REMARK                            x       y       z     vdW  Elec       q    Type
REMARK                         _______ _______ _______ _____ _____    ______ ____
ROOT
ATOM      1  N   UNL     1       2.075   3.693  18.961  0.00  0.00    +0.000 N 
ATOM      2  C   UNL     1       2.881   2.843  18.199  0.00  0.00    +0.000 A 
ATOM      3  O   UNL     1       2.865   1.616  18.251  0.00  0.00    +0.000 OA
ATOM      4  C   UNL     1       3.759   3.545  17.347  0.00  0.00    +0.000 A 
ATOM      5  N   UNL     1       4.637   3.070  16.422  0.00  0.00    +0.000 N 
ATOM      6  C   UNL     1       5.277   4.161  15.871  0.00  0.00    +0.000 A 
ATOM      7  N   UNL     1       4.836   5.279  16.421  0.00  0.00    +0.000 NA
ATOM      8  C   UNL     1       3.887   4.894  17.322  0.00  0.00    +0.000 A 
ATOM      9  N   UNL     1       3.134   5.702  18.149  0.00  0.00    +0.000 N 
ATOM     10  C   UNL     1       2.223   5.100  19.039  0.00  0.00    +0.000 A 
ATOM     11  O   UNL     1       1.586   5.765  19.858  0.00  0.00    +0.000 OA
ATOM     12  H   UNL     1       4.790   2.097  16.185  0.00  0.00    +0.000 HD
ENDROOT
BRANCH   6  13
ATOM     13  C   UNL     1       6.317   3.998  14.816  0.00  0.00    +0.000 C 
ATOM     14  C   UNL     1       5.742   3.720  13.430  0.00  0.00    +0.000 C 
ATOM     15  C   UNL     1       6.904   4.027  12.492  0.00  0.00    +0.000 C 
ATOM     16  C   UNL     1       7.735   5.102  13.192  0.00  0.00    +0.000 C 
ATOM     17  C   UNL     1       7.152   5.256  14.596  0.00  0.00    +0.000 C 
ENDBRANCH   6  13
BRANCH   1  18
ATOM     18  C   UNL     1       1.091   3.061  19.847  0.00  0.00    +0.000 C 
BRANCH  18  20
ATOM     19  C   UNL     1       2.784   2.471  21.654  0.00  0.00    +0.000 C 
ATOM     20  C   UNL     1       1.454   3.136  21.335  0.00  0.00    +0.000 C 
ENDBRANCH  18  20
ENDBRANCH   1  18
BRANCH   9  21
ATOM     21  C   UNL     1       3.377   7.153  18.208  0.00  0.00    +0.000 C 
BRANCH  21  22
ATOM     22  C   UNL     1       2.326   7.995  17.472  0.00  0.00    +0.000 C 
BRANCH  22  23
ATOM     23  C   UNL     1       2.153   9.379  18.094  0.00  0.00    +0.000 C 
BRANCH  23  24
ATOM     24  O   UNL     1       0.771   9.741  18.037  0.00  0.00    +0.000 OA
ATOM     25  C   UNL     1       0.229  10.009  19.321  0.00  0.00    +0.000 C 
ENDBRANCH  23  24
ENDBRANCH  22  23
ENDBRANCH  21  22
ENDBRANCH   9  21
TORSDOF 7
ENDMDL
MODEL 9
REMARK VINA RESULT:      -7.0      1.785      5.101
REMARK  Name = 
REMARK  9 active torsions:
REMARK  status: ('A' for Active; 'I' for Inactive)
REMARK    1  A    between atoms: C_1  and  C_2
REMARK    2  A    between atoms: C_2  and  C_3
REMARK    3  A    between atoms: C_3  and  N_4
REMARK    4  A    between atoms: C_9  and  C_10
REMARK    5  A    between atoms: N_17  and  C_18
REMARK    6  A    between atoms: C_18  and  C_19
REMARK    7  A    between atoms: C_19  and  C_20
REMARK    8  A    between atoms: C_20  and  O_21
REMARK    9  A    between atoms: O_21  and  C_22
REMARK                            x       y       z     vdW  Elec       q    Type
REMARK                         _______ _______ _______ _____ _____    ______ ____
ROOT
ATOM      1  N   UNL     1       1.340   8.752  19.503  0.00  0.00    +0.000 N 
ATOM      2  C   UNL     1       2.097   8.785  18.329  0.00  0.00    +0.000 A 
ATOM      3  O   UNL     1       2.052   9.674  17.483  0.00  0.00    +0.000 OA
ATOM      4  C   UNL     1       2.932   7.657  18.186  0.00  0.00    +0.000 A 
ATOM      5  N   UNL     1       3.847   7.370  17.221  0.00  0.00    +0.000 N 
ATOM      6  C   UNL     1       4.382   6.134  17.523  0.00  0.00    +0.000 A 
ATOM      7  N   UNL     1       3.831   5.651  18.624  0.00  0.00    +0.000 NA
ATOM      8  C   UNL     1       2.946   6.603  19.039  0.00  0.00    +0.000 A 
ATOM      9  N   UNL     1       2.125   6.563  20.146  0.00  0.00    +0.000 N 
ATOM     10  C   UNL     1       1.253   7.643  20.382  0.00  0.00    +0.000 A 
ATOM     11  O   UNL     1       0.438   7.625  21.307  0.00  0.00    +0.000 OA
ATOM     12  H   UNL     1       4.087   7.955  16.430  0.00  0.00    +0.000 HD
ENDROOT
BRANCH   6  13
ATOM     13  C   UNL     1       5.423   5.508  16.660  0.00  0.00    +0.000 C 
ATOM     14  C   UNL     1       5.292   3.992  16.548  0.00  0.00    +0.000 C 
ATOM     15  C   UNL     1       6.135   3.649  15.325  0.00  0.00    +0.000 C 
ATOM     16  C   UNL     1       6.069   4.874  14.413  0.00  0.00    +0.000 C 
ATOM     17  C   UNL     1       5.355   5.968  15.207  0.00  0.00    +0.000 C 
ENDBRANCH   6  13
BRANCH   1  18
ATOM     18  C   UNL     1       0.473   9.904  19.771  0.00  0.00    +0.000 C 
BRANCH  18  20
ATOM     19  C   UNL     1       1.357  12.281  19.998  0.00  0.00    +0.000 C 
ATOM     20  C   UNL     1       1.100  10.954  20.697  0.00  0.00    +0.000 C 
ENDBRANCH  18  20
ENDBRANCH   1  18
BRANCH   9  21
ATOM     21  C   UNL     1       2.054   5.357  20.988  0.00  0.00    +0.000 C 
BRANCH  21  22
ATOM     22  C   UNL     1       1.019   4.326  20.518  0.00  0.00    +0.000 C 
BRANCH  22  23
ATOM     23  C   UNL     1       1.672   3.072  19.939  0.00  0.00    +0.000 C 
BRANCH  23  24
ATOM     24  O   UNL     1       1.549   3.104  18.515  0.00  0.00    +0.000 OA
ATOM     25  C   UNL     1       2.431   2.195  17.876  0.00  0.00    +0.000 C 
ENDBRANCH  23  24
ENDBRANCH  22  23
ENDBRANCH  21  22
ENDBRANCH   9  21
TORSDOF 7
ENDMDL
