MODEL 1
REMARK VINA RESULT:      -7.7      0.000      0.000
REMARK  Name = 
REMARK  13 active torsions:
REMARK  status: ('A' for Active; 'I' for Inactive)
REMARK    1  A    between atoms: C_1  and  O_2
REMARK    2  A    between atoms: O_2  and  C_3
REMARK    3  A    between atoms: C_6  and  O_7
REMARK    4  A    between atoms: O_7  and  C_8
REMARK    5  A    between atoms: C_9  and  C_10
REMARK    6  A    between atoms: C_12  and  C_13
REMARK    7  A    between atoms: C_14  and  S_15
REMARK    8  A    between atoms: S_15  and  C_18
REMARK    9  A    between atoms: C_21  and  C_22
REMARK   10  A    between atoms: C_22  and  C_23
REMARK   11  A    between atoms: C_22  and  C_24
REMARK   12  A    between atoms: C_22  and  C_25
REMARK   13  A    between atoms: N_28  and  C_29
REMARK                            x       y       z     vdW  Elec       q    Type
REMARK                         _______ _______ _______ _____ _____    ______ ____
ROOT
ATOM      1  C   UNL     1       2.364   6.761  19.838  0.00  0.00    +0.000 A 
ATOM      2  N   UNL     1       1.658   7.029  20.920  0.00  0.00    +0.000 NA
ATOM      3  C   UNL     1       1.065   8.250  20.727  0.00  0.00    +0.000 A 
ATOM      4  C   UNL     1       0.165   8.832  21.752  0.00  0.00    +0.000 C 
ATOM      5  C   UNL     1       1.397   8.772  19.489  0.00  0.00    +0.000 A 
ATOM      6  N   UNL     1       2.296   7.854  18.973  0.00  0.00    +0.000 N 
ATOM      7  C   UNL     1       3.016   8.000  17.725  0.00  0.00    +0.000 C 
ENDROOT
BRANCH   1  12
ATOM      8  C   UNL     1       5.208   4.376  19.092  0.00  0.00    +0.000 A 
ATOM      9  C   UNL     1       4.560   3.157  18.929  0.00  0.00    +0.000 A 
ATOM     10  C   UNL     1       3.172   3.095  19.034  0.00  0.00    +0.000 A 
ATOM     11  C   UNL     1       2.399   4.231  19.348  0.00  0.00    +0.000 A 
ATOM     12  C   UNL     1       3.037   5.470  19.552  0.00  0.00    +0.000 A 
ATOM     13  C   UNL     1       4.438   5.512  19.366  0.00  0.00    +0.000 A 
BRANCH   8  15
ATOM     14  C   UNL     1       7.068   4.728  17.659  0.00  0.00    +0.000 C 
ATOM     15  O   UNL     1       6.563   4.356  18.938  0.00  0.00    +0.000 OA
ENDBRANCH   8  15
BRANCH  11  16
ATOM     16  O   UNL     1       1.058   3.961  19.298  0.00  0.00    +0.000 OA
ATOM     17  C   UNL     1       0.662   2.664  18.884  0.00  0.00    +0.000 C 
ENDBRANCH  11  16
ENDBRANCH   1  12
BRANCH   5  18
ATOM     18  S   UNL     1       0.801  10.219  18.660  0.00  0.00    +0.000 S 
ATOM     19  O   UNL     1       2.000  10.894  18.202  0.00  0.00    +0.000 OA
ATOM     20  O   UNL     1      -0.204   9.749  17.730  0.00  0.00    +0.000 OA
BRANCH  18  21
ATOM     21  C   UNL     1      -0.019  11.270  19.820  0.00  0.00    +0.000 A 
ATOM     22  C   UNL     1      -1.409  11.354  19.748  0.00  0.00    +0.000 A 
ATOM     23  C   UNL     1      -2.111  12.117  20.682  0.00  0.00    +0.000 A 
ATOM     24  C   UNL     1      -1.448  12.814  21.707  0.00  0.00    +0.000 A 
ATOM     25  C   UNL     1      -0.040  12.725  21.746  0.00  0.00    +0.000 A 
ATOM     26  C   UNL     1       0.675  11.962  20.810  0.00  0.00    +0.000 A 
BRANCH  24  27
ATOM     27  C   UNL     1      -2.217  13.629  22.767  0.00  0.00    +0.000 C 
ATOM     28  C   UNL     1      -1.292  14.314  23.800  0.00  0.00    +0.000 C 
ATOM     29  C   UNL     1      -3.037  14.745  22.083  0.00  0.00    +0.000 C 
ATOM     30  C   UNL     1      -3.177  12.713  23.552  0.00  0.00    +0.000 C 
ENDBRANCH  24  27
ENDBRANCH  18  21
ENDBRANCH   5  18
TORSDOF 6
ENDMDL
MODEL 2
REMARK VINA RESULT:      -7.5      2.866      4.532
REMARK  Name = 
REMARK  13 active torsions:
REMARK  status: ('A' for Active; 'I' for Inactive)
REMARK    1  A    between atoms: C_1  and  O_2
REMARK    2  A    between atoms: O_2  and  C_3
REMARK    3  A    between atoms: C_6  and  O_7
REMARK    4  A    between atoms: O_7  and  C_8
REMARK    5  A    between atoms: C_9  and  C_10
REMARK    6  A    between atoms: C_12  and  C_13
REMARK    7  A    between atoms: C_14  and  S_15
REMARK    8  A    between atoms: S_15  and  C_18
REMARK    9  A    between atoms: C_21  and  C_22
REMARK   10  A    between atoms: C_22  and  C_23
REMARK   11  A    between atoms: C_22  and  C_24
REMARK   12  A    between atoms: C_22  and  C_25
REMARK   13  A    between atoms: N_28  and  C_29
REMARK                            x       y       z     vdW  Elec       q    Type
REMARK                         _______ _______ _______ _____ _____    ______ ____
ROOT
ATOM      1  C   UNL     1       2.188   7.382  19.254  0.00  0.00    +0.000 A 
ATOM      2  N   UNL     1       1.931   7.342  20.548  0.00  0.00    +0.000 NA
ATOM      3  C   UNL     1       1.298   8.515  20.873  0.00  0.00    +0.000 A 
ATOM      4  C   UNL     1       0.836   8.774  22.258  0.00  0.00    +0.000 C 
ATOM      5  C   UNL     1       1.144   9.320  19.758  0.00  0.00    +0.000 A 
ATOM      6  N   UNL     1       1.796   8.624  18.754  0.00  0.00    +0.000 N 
ATOM      7  C   UNL     1       2.002   9.104  17.403  0.00  0.00    +0.000 C 
ENDROOT
BRANCH   1  12
ATOM      8  C   UNL     1       2.363   3.895  17.789  0.00  0.00    +0.000 A 
ATOM      9  C   UNL     1       3.548   3.921  17.061  0.00  0.00    +0.000 A 
ATOM     10  C   UNL     1       4.329   5.073  17.057  0.00  0.00    +0.000 A 
ATOM     11  C   UNL     1       3.932   6.243  17.736  0.00  0.00    +0.000 A 
ATOM     12  C   UNL     1       2.718   6.253  18.451  0.00  0.00    +0.000 A 
ATOM     13  C   UNL     1       1.987   5.044  18.495  0.00  0.00    +0.000 A 
BRANCH   8  15
ATOM     14  C   UNL     1       0.854   2.437  18.898  0.00  0.00    +0.000 C 
ATOM     15  O   UNL     1       1.676   2.717  17.770  0.00  0.00    +0.000 OA
ENDBRANCH   8  15
BRANCH  11  16
ATOM     16  O   UNL     1       4.896   7.214  17.680  0.00  0.00    +0.000 OA
ATOM     17  C   UNL     1       6.191   6.832  17.246  0.00  0.00    +0.000 C 
ENDBRANCH  11  16
ENDBRANCH   1  12
BRANCH   5  18
ATOM     18  S   UNL     1       0.272  10.849  19.563  0.00  0.00    +0.000 S 
ATOM     19  O   UNL     1      -0.406  10.719  18.288  0.00  0.00    +0.000 OA
ATOM     20  O   UNL     1      -0.464  11.039  20.795  0.00  0.00    +0.000 OA
BRANCH  18  21
ATOM     21  C   UNL     1       1.430  12.179  19.441  0.00  0.00    +0.000 A 
ATOM     22  C   UNL     1       1.807  12.818  20.622  0.00  0.00    +0.000 A 
ATOM     23  C   UNL     1       2.769  13.830  20.590  0.00  0.00    +0.000 A 
ATOM     24  C   UNL     1       3.375  14.229  19.387  0.00  0.00    +0.000 A 
ATOM     25  C   UNL     1       2.960  13.577  18.205  0.00  0.00    +0.000 A 
ATOM     26  C   UNL     1       1.993  12.560  18.226  0.00  0.00    +0.000 A 
BRANCH  24  27
ATOM     27  C   UNL     1       4.464  15.320  19.346  0.00  0.00    +0.000 C 
ATOM     28  C   UNL     1       3.901  16.737  19.089  0.00  0.00    +0.000 C 
ATOM     29  C   UNL     1       5.216  15.367  20.694  0.00  0.00    +0.000 C 
ATOM     30  C   UNL     1       5.476  15.021  18.220  0.00  0.00    +0.000 C 
ENDBRANCH  24  27
ENDBRANCH  18  21
ENDBRANCH   5  18
TORSDOF 6
ENDMDL
MODEL 3
REMARK VINA RESULT:      -7.5      0.221      1.193
REMARK  Name = 
REMARK  13 active torsions:
REMARK  status: ('A' for Active; 'I' for Inactive)
REMARK    1  A    between atoms: C_1  and  O_2
REMARK    2  A    between atoms: O_2  and  C_3
REMARK    3  A    between atoms: C_6  and  O_7
REMARK    4  A    between atoms: O_7  and  C_8
REMARK    5  A    between atoms: C_9  and  C_10
REMARK    6  A    between atoms: C_12  and  C_13
REMARK    7  A    between atoms: C_14  and  S_15
REMARK    8  A    between atoms: S_15  and  C_18
REMARK    9  A    between atoms: C_21  and  C_22
REMARK   10  A    between atoms: C_22  and  C_23
REMARK   11  A    between atoms: C_22  and  C_24
REMARK   12  A    between atoms: C_22  and  C_25
REMARK   13  A    between atoms: N_28  and  C_29
REMARK                            x       y       z     vdW  Elec       q    Type
REMARK                         _______ _______ _______ _____ _____    ______ ____
ROOT
ATOM      1  C   UNL     1       2.413   6.824  19.755  0.00  0.00    +0.000 A 
ATOM      2  N   UNL     1       1.717   7.050  20.854  0.00  0.00    +0.000 NA
ATOM      3  C   UNL     1       1.090   8.259  20.697  0.00  0.00    +0.000 A 
ATOM      4  C   UNL     1       0.191   8.795  21.747  0.00  0.00    +0.000 C 
ATOM      5  C   UNL     1       1.389   8.816  19.466  0.00  0.00    +0.000 A 
ATOM      6  N   UNL     1       2.304   7.933  18.916  0.00  0.00    +0.000 N 
ATOM      7  C   UNL     1       3.001   8.126  17.661  0.00  0.00    +0.000 C 
ENDROOT
BRANCH   1  12
ATOM      8  C   UNL     1       5.321   4.500  19.068  0.00  0.00    +0.000 A 
ATOM      9  C   UNL     1       4.695   3.296  18.765  0.00  0.00    +0.000 A 
ATOM     10  C   UNL     1       3.304   3.226  18.754  0.00  0.00    +0.000 A 
ATOM     11  C   UNL     1       2.502   4.336  19.087  0.00  0.00    +0.000 A 
ATOM     12  C   UNL     1       3.114   5.558  19.431  0.00  0.00    +0.000 A 
ATOM     13  C   UNL     1       4.525   5.613  19.362  0.00  0.00    +0.000 A 
BRANCH   8  15
ATOM     14  C   UNL     1       7.283   4.687  17.745  0.00  0.00    +0.000 C 
ATOM     15  O   UNL     1       6.684   4.491  19.023  0.00  0.00    +0.000 OA
ENDBRANCH   8  15
BRANCH  11  16
ATOM     16  O   UNL     1       1.170   4.071  18.910  0.00  0.00    +0.000 OA
ATOM     17  C   UNL     1       0.743   2.726  19.047  0.00  0.00    +0.000 C 
ENDBRANCH  11  16
ENDBRANCH   1  12
BRANCH   5  18
ATOM     18  S   UNL     1       0.745  10.265  18.678  0.00  0.00    +0.000 S 
ATOM     19  O   UNL     1       1.919  10.999  18.251  0.00  0.00    +0.000 OA
ATOM     20  O   UNL     1      -0.236   9.787  17.726  0.00  0.00    +0.000 OA
BRANCH  18  21
ATOM     21  C   UNL     1      -0.122  11.247  19.865  0.00  0.00    +0.000 A 
ATOM     22  C   UNL     1       0.634  11.924  20.821  0.00  0.00    +0.000 A 
ATOM     23  C   UNL     1       0.005  12.766  21.739  0.00  0.00    +0.000 A 
ATOM     24  C   UNL     1      -1.388  12.954  21.729  0.00  0.00    +0.000 A 
ATOM     25  C   UNL     1      -2.130  12.242  20.761  0.00  0.00    +0.000 A 
ATOM     26  C   UNL     1      -1.507  11.392  19.835  0.00  0.00    +0.000 A 
BRANCH  24  27
ATOM     27  C   UNL     1      -2.089  13.910  22.714  0.00  0.00    +0.000 C 
ATOM     28  C   UNL     1      -3.073  13.192  23.667  0.00  0.00    +0.000 C 
ATOM     29  C   UNL     1      -1.040  14.622  23.597  0.00  0.00    +0.000 C 
ATOM     30  C   UNL     1      -2.897  14.973  21.942  0.00  0.00    +0.000 C 
ENDBRANCH  24  27
ENDBRANCH  18  21
ENDBRANCH   5  18
TORSDOF 6
ENDMDL
MODEL 4
REMARK VINA RESULT:      -7.4      2.187      3.829
REMARK  Name = 
REMARK  13 active torsions:
REMARK  status: ('A' for Active; 'I' for Inactive)
REMARK    1  A    between atoms: C_1  and  O_2
REMARK    2  A    between atoms: O_2  and  C_3
REMARK    3  A    between atoms: C_6  and  O_7
REMARK    4  A    between atoms: O_7  and  C_8
REMARK    5  A    between atoms: C_9  and  C_10
REMARK    6  A    between atoms: C_12  and  C_13
REMARK    7  A    between atoms: C_14  and  S_15
REMARK    8  A    between atoms: S_15  and  C_18
REMARK    9  A    between atoms: C_21  and  C_22
REMARK   10  A    between atoms: C_22  and  C_23
REMARK   11  A    between atoms: C_22  and  C_24
REMARK   12  A    between atoms: C_22  and  C_25
REMARK   13  A    between atoms: N_28  and  C_29
REMARK                            x       y       z     vdW  Elec       q    Type
REMARK                         _______ _______ _______ _____ _____    ______ ____
ROOT
ATOM      1  C   UNL     1       2.137   7.272  19.308  0.00  0.00    +0.000 A 
ATOM      2  N   UNL     1       1.680   7.273  20.546  0.00  0.00    +0.000 NA
ATOM      3  C   UNL     1       1.268   8.550  20.826  0.00  0.00    +0.000 A 
ATOM      4  C   UNL     1       0.662   8.886  22.138  0.00  0.00    +0.000 C 
ATOM      5  C   UNL     1       1.463   9.384  19.740  0.00  0.00    +0.000 A 
ATOM      6  N   UNL     1       2.100   8.576  18.812  0.00  0.00    +0.000 N 
ATOM      7  C   UNL     1       2.611   9.017  17.531  0.00  0.00    +0.000 C 
ENDROOT
BRANCH   1  12
ATOM      8  C   UNL     1       1.894   3.755  17.929  0.00  0.00    +0.000 A 
ATOM      9  C   UNL     1       3.084   3.612  17.223  0.00  0.00    +0.000 A 
ATOM     10  C   UNL     1       4.005   4.657  17.207  0.00  0.00    +0.000 A 
ATOM     11  C   UNL     1       3.748   5.884  17.851  0.00  0.00    +0.000 A 
ATOM     12  C   UNL     1       2.534   6.065  18.542  0.00  0.00    +0.000 A 
ATOM     13  C   UNL     1       1.654   4.959  18.600  0.00  0.00    +0.000 A 
BRANCH   8  15
ATOM     14  C   UNL     1       0.620   2.200  19.191  0.00  0.00    +0.000 C 
ATOM     15  O   UNL     1       1.064   2.673  17.923  0.00  0.00    +0.000 OA
ENDBRANCH   8  15
BRANCH  11  16
ATOM     16  O   UNL     1       4.828   6.724  17.792  0.00  0.00    +0.000 OA
ATOM     17  C   UNL     1       5.658   6.650  16.645  0.00  0.00    +0.000 C 
ENDBRANCH  11  16
ENDBRANCH   1  12
BRANCH   5  18
ATOM     18  S   UNL     1       0.977  11.068  19.486  0.00  0.00    +0.000 S 
ATOM     19  O   UNL     1       1.227  11.713  20.760  0.00  0.00    +0.000 OA
ATOM     20  O   UNL     1       1.653  11.491  18.278  0.00  0.00    +0.000 OA
BRANCH  18  21
ATOM     21  C   UNL     1      -0.759  11.139  19.160  0.00  0.00    +0.000 A 
ATOM     22  C   UNL     1      -1.516  12.062  19.881  0.00  0.00    +0.000 A 
ATOM     23  C   UNL     1      -2.878  12.206  19.614  0.00  0.00    +0.000 A 
ATOM     24  C   UNL     1      -3.518  11.436  18.628  0.00  0.00    +0.000 A 
ATOM     25  C   UNL     1      -2.731  10.498  17.926  0.00  0.00    +0.000 A 
ATOM     26  C   UNL     1      -1.361  10.344  18.187  0.00  0.00    +0.000 A 
BRANCH  24  27
ATOM     27  C   UNL     1      -5.015  11.613  18.299  0.00  0.00    +0.000 C 
ATOM     28  C   UNL     1      -5.857  10.349  18.587  0.00  0.00    +0.000 C 
ATOM     29  C   UNL     1      -5.610  12.758  19.148  0.00  0.00    +0.000 C 
ATOM     30  C   UNL     1      -5.197  11.951  16.805  0.00  0.00    +0.000 C 
ENDBRANCH  24  27
ENDBRANCH  18  21
ENDBRANCH   5  18
TORSDOF 6
ENDMDL
MODEL 5
REMARK VINA RESULT:      -7.4      2.857      3.751
REMARK  Name = 
REMARK  13 active torsions:
REMARK  status: ('A' for Active; 'I' for Inactive)
REMARK    1  A    between atoms: C_1  and  O_2
REMARK    2  A    between atoms: O_2  and  C_3
REMARK    3  A    between atoms: C_6  and  O_7
REMARK    4  A    between atoms: O_7  and  C_8
REMARK    5  A    between atoms: C_9  and  C_10
REMARK    6  A    between atoms: C_12  and  C_13
REMARK    7  A    between atoms: C_14  and  S_15
REMARK    8  A    between atoms: S_15  and  C_18
REMARK    9  A    between atoms: C_21  and  C_22
REMARK   10  A    between atoms: C_22  and  C_23
REMARK   11  A    between atoms: C_22  and  C_24
REMARK   12  A    between atoms: C_22  and  C_25
REMARK   13  A    between atoms: N_28  and  C_29
REMARK                            x       y       z     vdW  Elec       q    Type
REMARK                         _______ _______ _______ _____ _____    ______ ____
ROOT
ATOM      1  C   UNL     1       1.840   7.985  19.905  0.00  0.00    +0.000 A 
ATOM      2  N   UNL     1       1.665   8.010  21.213  0.00  0.00    +0.000 NA
ATOM      3  C   UNL     1       0.848   9.075  21.493  0.00  0.00    +0.000 A 
ATOM      4  C   UNL     1       0.422   9.365  22.884  0.00  0.00    +0.000 C 
ATOM      5  C   UNL     1       0.489   9.743  20.336  0.00  0.00    +0.000 A 
ATOM      6  N   UNL     1       1.201   9.091  19.343  0.00  0.00    +0.000 N 
ATOM      7  C   UNL     1       1.242   9.484  17.949  0.00  0.00    +0.000 C 
ENDROOT
BRANCH   1  12
ATOM      8  C   UNL     1       4.077   6.399  17.295  0.00  0.00    +0.000 A 
ATOM      9  C   UNL     1       3.896   5.038  17.513  0.00  0.00    +0.000 A 
ATOM     10  C   UNL     1       3.014   4.610  18.502  0.00  0.00    +0.000 A 
ATOM     11  C   UNL     1       2.328   5.521  19.331  0.00  0.00    +0.000 A 
ATOM     12  C   UNL     1       2.522   6.905  19.153  0.00  0.00    +0.000 A 
ATOM     13  C   UNL     1       3.367   7.305  18.091  0.00  0.00    +0.000 A 
BRANCH   8  15
ATOM     14  C   UNL     1       5.497   5.657  15.544  0.00  0.00    +0.000 C 
ATOM     15  O   UNL     1       4.930   6.733  16.284  0.00  0.00    +0.000 OA
ENDBRANCH   8  15
BRANCH  11  16
ATOM     16  O   UNL     1       1.443   4.885  20.159  0.00  0.00    +0.000 OA
ATOM     17  C   UNL     1       1.974   4.048  21.173  0.00  0.00    +0.000 C 
ENDBRANCH  11  16
ENDBRANCH   1  12
BRANCH   5  18
ATOM     18  S   UNL     1      -0.657  11.071  20.089  0.00  0.00    +0.000 S 
ATOM     19  O   UNL     1      -1.431  10.671  18.930  0.00  0.00    +0.000 OA
ATOM     20  O   UNL     1      -1.281  11.292  21.376  0.00  0.00    +0.000 OA
BRANCH  18  21
ATOM     21  C   UNL     1       0.227  12.546  19.683  0.00  0.00    +0.000 A 
ATOM     22  C   UNL     1       1.587  12.590  19.986  0.00  0.00    +0.000 A 
ATOM     23  C   UNL     1       2.346  13.705  19.625  0.00  0.00    +0.000 A 
ATOM     24  C   UNL     1       1.771  14.800  18.959  0.00  0.00    +0.000 A 
ATOM     25  C   UNL     1       0.389  14.736  18.681  0.00  0.00    +0.000 A 
ATOM     26  C   UNL     1      -0.384  13.621  19.040  0.00  0.00    +0.000 A 
BRANCH  24  27
ATOM     27  C   UNL     1       2.608  16.021  18.523  0.00  0.00    +0.000 C 
ATOM     28  C   UNL     1       3.542  15.726  17.327  0.00  0.00    +0.000 C 
ATOM     29  C   UNL     1       1.675  17.176  18.097  0.00  0.00    +0.000 C 
ATOM     30  C   UNL     1       3.497  16.501  19.689  0.00  0.00    +0.000 C 
ENDBRANCH  24  27
ENDBRANCH  18  21
ENDBRANCH   5  18
TORSDOF 6
ENDMDL
MODEL 6
REMARK VINA RESULT:      -7.4      3.458      9.576
REMARK  Name = 
REMARK  13 active torsions:
REMARK  status: ('A' for Active; 'I' for Inactive)
REMARK    1  A    between atoms: C_1  and  O_2
REMARK    2  A    between atoms: O_2  and  C_3
REMARK    3  A    between atoms: C_6  and  O_7
REMARK    4  A    between atoms: O_7  and  C_8
REMARK    5  A    between atoms: C_9  and  C_10
REMARK    6  A    between atoms: C_12  and  C_13
REMARK    7  A    between atoms: C_14  and  S_15
REMARK    8  A    between atoms: S_15  and  C_18
REMARK    9  A    between atoms: C_21  and  C_22
REMARK   10  A    between atoms: C_22  and  C_23
REMARK   11  A    between atoms: C_22  and  C_24
REMARK   12  A    between atoms: C_22  and  C_25
REMARK   13  A    between atoms: N_28  and  C_29
REMARK                            x       y       z     vdW  Elec       q    Type
REMARK                         _______ _______ _______ _____ _____    ______ ____
ROOT
ATOM      1  C   UNL     1      -3.272  12.242  19.578  0.00  0.00    +0.000 A 
ATOM      2  N   UNL     1      -3.238  11.310  18.645  0.00  0.00    +0.000 NA
ATOM      3  C   UNL     1      -1.918  11.044  18.384  0.00  0.00    +0.000 A 
ATOM      4  C   UNL     1      -1.529  10.006  17.399  0.00  0.00    +0.000 C 
ATOM      5  C   UNL     1      -1.090  11.821  19.175  0.00  0.00    +0.000 A 
ATOM      6  N   UNL     1      -1.967  12.643  19.865  0.00  0.00    +0.000 N 
ATOM      7  C   UNL     1      -1.579  13.716  20.757  0.00  0.00    +0.000 C 
ENDROOT
BRANCH   1  12
ATOM      8  C   UNL     1      -5.605  12.967  22.471  0.00  0.00    +0.000 A 
ATOM      9  C   UNL     1      -6.737  13.471  21.841  0.00  0.00    +0.000 A 
ATOM     10  C   UNL     1      -6.771  13.560  20.452  0.00  0.00    +0.000 A 
ATOM     11  C   UNL     1      -5.666  13.194  19.657  0.00  0.00    +0.000 A 
ATOM     12  C   UNL     1      -4.495  12.713  20.274  0.00  0.00    +0.000 A 
ATOM     13  C   UNL     1      -4.521  12.567  21.681  0.00  0.00    +0.000 A 
BRANCH   8  15
ATOM     14  C   UNL     1      -4.445  12.612  24.512  0.00  0.00    +0.000 C 
ATOM     15  O   UNL     1      -5.667  12.881  23.831  0.00  0.00    +0.000 OA
ENDBRANCH   8  15
BRANCH  11  16
ATOM     16  O   UNL     1      -5.957  13.265  18.321  0.00  0.00    +0.000 OA
ATOM     17  C   UNL     1      -6.813  12.273  17.779  0.00  0.00    +0.000 C 
ENDBRANCH  11  16
ENDBRANCH   1  12
BRANCH   5  18
ATOM     18  S   UNL     1       0.669  11.785  19.372  0.00  0.00    +0.000 S 
ATOM     19  O   UNL     1       1.173  12.607  18.290  0.00  0.00    +0.000 OA
ATOM     20  O   UNL     1       0.913  12.125  20.758  0.00  0.00    +0.000 OA
BRANCH  18  21
ATOM     21  C   UNL     1       1.257  10.135  19.134  0.00  0.00    +0.000 A 
ATOM     22  C   UNL     1       1.860   9.832  17.914  0.00  0.00    +0.000 A 
ATOM     23  C   UNL     1       2.401   8.564  17.699  0.00  0.00    +0.000 A 
ATOM     24  C   UNL     1       2.353   7.568  18.689  0.00  0.00    +0.000 A 
ATOM     25  C   UNL     1       1.720   7.896  19.908  0.00  0.00    +0.000 A 
ATOM     26  C   UNL     1       1.172   9.168  20.133  0.00  0.00    +0.000 A 
BRANCH  24  27
ATOM     27  C   UNL     1       2.980   6.175  18.476  0.00  0.00    +0.000 C 
ATOM     28  C   UNL     1       3.560   5.562  19.772  0.00  0.00    +0.000 C 
ATOM     29  C   UNL     1       1.914   5.191  17.945  0.00  0.00    +0.000 C 
ATOM     30  C   UNL     1       4.134   6.260  17.456  0.00  0.00    +0.000 C 
ENDBRANCH  24  27
ENDBRANCH  18  21
ENDBRANCH   5  18
TORSDOF 6
ENDMDL
MODEL 7
REMARK VINA RESULT:      -7.4      2.880      4.450
REMARK  Name = 
REMARK  13 active torsions:
REMARK  status: ('A' for Active; 'I' for Inactive)
REMARK    1  A    between atoms: C_1  and  O_2
REMARK    2  A    between atoms: O_2  and  C_3
REMARK    3  A    between atoms: C_6  and  O_7
REMARK    4  A    between atoms: O_7  and  C_8
REMARK    5  A    between atoms: C_9  and  C_10
REMARK    6  A    between atoms: C_12  and  C_13
REMARK    7  A    between atoms: C_14  and  S_15
REMARK    8  A    between atoms: S_15  and  C_18
REMARK    9  A    between atoms: C_21  and  C_22
REMARK   10  A    between atoms: C_22  and  C_23
REMARK   11  A    between atoms: C_22  and  C_24
REMARK   12  A    between atoms: C_22  and  C_25
REMARK   13  A    between atoms: N_28  and  C_29
REMARK                            x       y       z     vdW  Elec       q    Type
REMARK                         _______ _______ _______ _____ _____    ______ ____
ROOT
ATOM      1  C   UNL     1       2.187   7.356  19.324  0.00  0.00    +0.000 A 
ATOM      2  N   UNL     1       1.980   7.333  20.627  0.00  0.00    +0.000 NA
ATOM      3  C   UNL     1       1.363   8.511  20.962  0.00  0.00    +0.000 A 
ATOM      4  C   UNL     1       0.956   8.788  22.361  0.00  0.00    +0.000 C 
ATOM      5  C   UNL     1       1.167   9.303  19.845  0.00  0.00    +0.000 A 
ATOM      6  N   UNL     1       1.778   8.593  18.824  0.00  0.00    +0.000 N 
ATOM      7  C   UNL     1       1.932   9.057  17.461  0.00  0.00    +0.000 C 
ENDROOT
BRANCH   1  12
ATOM      8  C   UNL     1       2.274   3.864  17.865  0.00  0.00    +0.000 A 
ATOM      9  C   UNL     1       3.446   3.867  17.116  0.00  0.00    +0.000 A 
ATOM     10  C   UNL     1       4.248   5.005  17.096  0.00  0.00    +0.000 A 
ATOM     11  C   UNL     1       3.883   6.183  17.778  0.00  0.00    +0.000 A 
ATOM     12  C   UNL     1       2.682   6.217  18.515  0.00  0.00    +0.000 A 
ATOM     13  C   UNL     1       1.930   5.020  18.574  0.00  0.00    +0.000 A 
BRANCH   8  15
ATOM     14  C   UNL     1       1.236   2.144  19.130  0.00  0.00    +0.000 C 
ATOM     15  O   UNL     1       1.566   2.699  17.859  0.00  0.00    +0.000 OA
ENDBRANCH   8  15
BRANCH  11  16
ATOM     16  O   UNL     1       4.863   7.136  17.704  0.00  0.00    +0.000 OA
ATOM     17  C   UNL     1       6.172   6.711  17.363  0.00  0.00    +0.000 C 
ENDBRANCH  11  16
ENDBRANCH   1  12
BRANCH   5  18
ATOM     18  S   UNL     1       0.291  10.832  19.665  0.00  0.00    +0.000 S 
ATOM     19  O   UNL     1      -0.414  10.700  18.406  0.00  0.00    +0.000 OA
ATOM     20  O   UNL     1      -0.418  11.024  20.913  0.00  0.00    +0.000 OA
BRANCH  18  21
ATOM     21  C   UNL     1       1.447  12.161  19.517  0.00  0.00    +0.000 A 
ATOM     22  C   UNL     1       1.960  12.434  18.249  0.00  0.00    +0.000 A 
ATOM     23  C   UNL     1       2.823  13.515  18.065  0.00  0.00    +0.000 A 
ATOM     24  C   UNL     1       3.198  14.346  19.134  0.00  0.00    +0.000 A 
ATOM     25  C   UNL     1       2.677  14.036  20.409  0.00  0.00    +0.000 A 
ATOM     26  C   UNL     1       1.809  12.950  20.605  0.00  0.00    +0.000 A 
BRANCH  24  27
ATOM     27  C   UNL     1       4.122  15.565  18.935  0.00  0.00    +0.000 C 
ATOM     28  C   UNL     1       4.408  16.335  20.245  0.00  0.00    +0.000 C 
ATOM     29  C   UNL     1       5.485  15.108  18.369  0.00  0.00    +0.000 C 
ATOM     30  C   UNL     1       3.482  16.564  17.949  0.00  0.00    +0.000 C 
ENDBRANCH  24  27
ENDBRANCH  18  21
ENDBRANCH   5  18
TORSDOF 6
ENDMDL
MODEL 8
REMARK VINA RESULT:      -7.4      2.871      3.577
REMARK  Name = 
REMARK  13 active torsions:
REMARK  status: ('A' for Active; 'I' for Inactive)
REMARK    1  A    between atoms: C_1  and  O_2
REMARK    2  A    between atoms: O_2  and  C_3
REMARK    3  A    between atoms: C_6  and  O_7
REMARK    4  A    between atoms: O_7  and  C_8
REMARK    5  A    between atoms: C_9  and  C_10
REMARK    6  A    between atoms: C_12  and  C_13
REMARK    7  A    between atoms: C_14  and  S_15
REMARK    8  A    between atoms: S_15  and  C_18
REMARK    9  A    between atoms: C_21  and  C_22
REMARK   10  A    between atoms: C_22  and  C_23
REMARK   11  A    between atoms: C_22  and  C_24
REMARK   12  A    between atoms: C_22  and  C_25
REMARK   13  A    between atoms: N_28  and  C_29
REMARK                            x       y       z     vdW  Elec       q    Type
REMARK                         _______ _______ _______ _____ _____    ______ ____
ROOT
ATOM      1  C   UNL     1       1.793   8.024  19.980  0.00  0.00    +0.000 A 
ATOM      2  N   UNL     1       1.596   8.079  21.284  0.00  0.00    +0.000 NA
ATOM      3  C   UNL     1       0.790   9.161  21.528  0.00  0.00    +0.000 A 
ATOM      4  C   UNL     1       0.345   9.486  22.905  0.00  0.00    +0.000 C 
ATOM      5  C   UNL     1       0.461   9.810  20.351  0.00  0.00    +0.000 A 
ATOM      6  N   UNL     1       1.181   9.127  19.384  0.00  0.00    +0.000 N 
ATOM      7  C   UNL     1       1.252   9.491  17.984  0.00  0.00    +0.000 C 
ENDROOT
BRANCH   1  12
ATOM      8  C   UNL     1       3.987   6.346  17.391  0.00  0.00    +0.000 A 
ATOM      9  C   UNL     1       3.831   4.994  17.677  0.00  0.00    +0.000 A 
ATOM     10  C   UNL     1       2.981   4.602  18.708  0.00  0.00    +0.000 A 
ATOM     11  C   UNL     1       2.302   5.542  19.510  0.00  0.00    +0.000 A 
ATOM     12  C   UNL     1       2.472   6.918  19.262  0.00  0.00    +0.000 A 
ATOM     13  C   UNL     1       3.284   7.279  18.162  0.00  0.00    +0.000 A 
BRANCH   8  15
ATOM     14  C   UNL     1       5.773   5.656  15.988  0.00  0.00    +0.000 C 
ATOM     15  O   UNL     1       4.810   6.643  16.344  0.00  0.00    +0.000 OA
ENDBRANCH   8  15
BRANCH  11  16
ATOM     16  O   UNL     1       1.448   4.934  20.390  0.00  0.00    +0.000 OA
ATOM     17  C   UNL     1       0.938   3.659  20.040  0.00  0.00    +0.000 C 
ENDBRANCH  11  16
ENDBRANCH   1  12
BRANCH   5  18
ATOM     18  S   UNL     1      -0.660  11.149  20.057  0.00  0.00    +0.000 S 
ATOM     19  O   UNL     1      -1.439  10.725  18.911  0.00  0.00    +0.000 OA
ATOM     20  O   UNL     1      -1.282  11.424  21.335  0.00  0.00    +0.000 OA
BRANCH  18  21
ATOM     21  C   UNL     1       0.251  12.594  19.604  0.00  0.00    +0.000 A 
ATOM     22  C   UNL     1      -0.460  13.663  19.060  0.00  0.00    +0.000 A 
ATOM     23  C   UNL     1       0.201  14.853  18.747  0.00  0.00    +0.000 A 
ATOM     24  C   UNL     1       1.581  15.005  18.966  0.00  0.00    +0.000 A 
ATOM     25  C   UNL     1       2.278  13.901  19.500  0.00  0.00    +0.000 A 
ATOM     26  C   UNL     1       1.624  12.700  19.817  0.00  0.00    +0.000 A 
BRANCH  24  27
ATOM     27  C   UNL     1       2.313  16.327  18.658  0.00  0.00    +0.000 C 
ATOM     28  C   UNL     1       3.115  16.875  19.862  0.00  0.00    +0.000 C 
ATOM     29  C   UNL     1       3.315  16.120  17.501  0.00  0.00    +0.000 C 
ATOM     30  C   UNL     1       1.300  17.417  18.252  0.00  0.00    +0.000 C 
ENDBRANCH  24  27
ENDBRANCH  18  21
ENDBRANCH   5  18
TORSDOF 6
ENDMDL
MODEL 9
REMARK VINA RESULT:      -7.3      3.515      9.713
REMARK  Name = 
REMARK  13 active torsions:
REMARK  status: ('A' for Active; 'I' for Inactive)
REMARK    1  A    between atoms: C_1  and  O_2
REMARK    2  A    between atoms: O_2  and  C_3
REMARK    3  A    between atoms: C_6  and  O_7
REMARK    4  A    between atoms: O_7  and  C_8
REMARK    5  A    between atoms: C_9  and  C_10
REMARK    6  A    between atoms: C_12  and  C_13
REMARK    7  A    between atoms: C_14  and  S_15
REMARK    8  A    between atoms: S_15  and  C_18
REMARK    9  A    between atoms: C_21  and  C_22
REMARK   10  A    between atoms: C_22  and  C_23
REMARK   11  A    between atoms: C_22  and  C_24
REMARK   12  A    between atoms: C_22  and  C_25
REMARK   13  A    between atoms: N_28  and  C_29
REMARK                            x       y       z     vdW  Elec       q    Type
REMARK                         _______ _______ _______ _____ _____    ______ ____
ROOT
ATOM      1  C   UNL     1      -3.284  12.228  19.545  0.00  0.00    +0.000 A 
ATOM      2  N   UNL     1      -3.218  11.306  18.604  0.00  0.00    +0.000 NA
ATOM      3  C   UNL     1      -1.893  11.003  18.422  0.00  0.00    +0.000 A 
ATOM      4  C   UNL     1      -1.474   9.966  17.449  0.00  0.00    +0.000 C 
ATOM      5  C   UNL     1      -1.094  11.747  19.272  0.00  0.00    +0.000 A 
ATOM      6  N   UNL     1      -1.988  12.586  19.917  0.00  0.00    +0.000 N 
ATOM      7  C   UNL     1      -1.625  13.638  20.845  0.00  0.00    +0.000 C 
ENDROOT
BRANCH   1  12
ATOM      8  C   UNL     1      -5.716  13.107  22.310  0.00  0.00    +0.000 A 
ATOM      9  C   UNL     1      -6.833  13.556  21.613  0.00  0.00    +0.000 A 
ATOM     10  C   UNL     1      -6.823  13.555  20.221  0.00  0.00    +0.000 A 
ATOM     11  C   UNL     1      -5.689  13.152  19.486  0.00  0.00    +0.000 A 
ATOM     12  C   UNL     1      -4.533  12.727  20.170  0.00  0.00    +0.000 A 
ATOM     13  C   UNL     1      -4.604  12.671  21.582  0.00  0.00    +0.000 A 
BRANCH   8  15
ATOM     14  C   UNL     1      -7.140  13.091  24.209  0.00  0.00    +0.000 C 
ATOM     15  O   UNL     1      -5.822  13.108  23.670  0.00  0.00    +0.000 OA
ENDBRANCH   8  15
BRANCH  11  16
ATOM     16  O   UNL     1      -5.937  13.134  18.140  0.00  0.00    +0.000 OA
ATOM     17  C   UNL     1      -6.824  12.144  17.647  0.00  0.00    +0.000 C 
ENDBRANCH  11  16
ENDBRANCH   1  12
BRANCH   5  18
ATOM     18  S   UNL     1       0.648  11.656  19.577  0.00  0.00    +0.000 S 
ATOM     19  O   UNL     1       1.241  12.477  18.540  0.00  0.00    +0.000 OA
ATOM     20  O   UNL     1       0.815  11.973  20.980  0.00  0.00    +0.000 OA
BRANCH  18  21
ATOM     21  C   UNL     1       1.201   9.993  19.353  0.00  0.00    +0.000 A 
ATOM     22  C   UNL     1       1.745   9.653  18.115  0.00  0.00    +0.000 A 
ATOM     23  C   UNL     1       2.258   8.372  17.907  0.00  0.00    +0.000 A 
ATOM     24  C   UNL     1       2.241   7.400  18.922  0.00  0.00    +0.000 A 
ATOM     25  C   UNL     1       1.669   7.767  20.159  0.00  0.00    +0.000 A 
ATOM     26  C   UNL     1       1.148   9.052  20.378  0.00  0.00    +0.000 A 
BRANCH  24  27
ATOM     27  C   UNL     1       2.839   5.994  18.715  0.00  0.00    +0.000 C 
ATOM     28  C   UNL     1       1.974   5.090  17.806  0.00  0.00    +0.000 C 
ATOM     29  C   UNL     1       4.231   6.103  18.055  0.00  0.00    +0.000 C 
ATOM     30  C   UNL     1       2.984   5.271  20.070  0.00  0.00    +0.000 C 
ENDBRANCH  24  27
ENDBRANCH  18  21
ENDBRANCH   5  18
TORSDOF 6
ENDMDL
