MODEL 1
REMARK VINA RESULT:      -6.8      0.000      0.000
REMARK  Name = 
REMARK  11 active torsions:
REMARK  status: ('A' for Active; 'I' for Inactive)
REMARK    1  A    between atoms: C_1  and  C_2
REMARK    2  A    between atoms: N_4  and  C_5
REMARK    3  A    between atoms: C_5  and  C_6
REMARK    4  A    between atoms: C_5  and  C_7
REMARK    5  A    between atoms: C_5  and  C_8
REMARK    6  A    between atoms: N_11  and  C_12
REMARK    7  A    between atoms: C_12  and  C_13
REMARK    8  A    between atoms: N_15  and  C_16
REMARK    9  A    between atoms: C_16  and  C_17
REMARK   10  A    between atoms: C_16  and  C_18
REMARK   11  A    between atoms: C_16  and  C_19
REMARK                            x       y       z     vdW  Elec       q    Type
REMARK                         _______ _______ _______ _____ _____    ______ ____
ROOT
ATOM      1  C   UNL     1       7.143   6.919  17.361  0.00  0.00    +0.000 C 
ATOM      2  C   UNL     1       5.963   6.015  17.488  0.00  0.00    +0.000 A 
ATOM      3  N   UNL     1       4.963   6.274  18.277  0.00  0.00    +0.000 NA
ATOM      4  N   UNL     1       4.122   5.192  18.129  0.00  0.00    +0.000 N 
ATOM      5  C   UNL     1       4.681   4.286  17.222  0.00  0.00    +0.000 A 
ATOM      6  O   UNL     1       4.243   3.203  16.868  0.00  0.00    +0.000 OA
ATOM      7  N   UNL     1       5.853   4.865  16.804  0.00  0.00    +0.000 N 
ENDROOT
BRANCH   4   8
ATOM      8  C   UNL     1       2.867   5.047  18.880  0.00  0.00    +0.000 C 
ATOM      9  C   UNL     1       1.704   4.655  17.947  0.00  0.00    +0.000 C 
ATOM     10  C   UNL     1       3.032   3.944  19.939  0.00  0.00    +0.000 C 
ATOM     11  C   UNL     1       2.497   6.371  19.573  0.00  0.00    +0.000 C 
ENDBRANCH   4   8
BRANCH   7  12
ATOM     12  C   UNL     1       6.830   4.171  15.992  0.00  0.00    +0.000 C 
BRANCH  12  13
ATOM     13  C   UNL     1       6.723   4.341  14.477  0.00  0.00    +0.000 C 
ATOM     14  O   UNL     1       6.946   5.447  13.984  0.00  0.00    +0.000 OA
ATOM     15  N   UNL     1       6.296   3.259  13.735  0.00  0.00    +0.000 N 
ATOM     16  H   UNL     1       6.290   2.352  14.187  0.00  0.00    +0.000 HD
BRANCH  15  17
ATOM     17  C   UNL     1       6.127   3.299  12.265  0.00  0.00    +0.000 C 
ATOM     18  C   UNL     1       7.152   4.243  11.612  0.00  0.00    +0.000 C 
ATOM     19  C   UNL     1       6.350   1.888  11.691  0.00  0.00    +0.000 C 
ATOM     20  C   UNL     1       4.697   3.733  11.894  0.00  0.00    +0.000 C 
ENDBRANCH  15  17
ENDBRANCH  12  13
ENDBRANCH   7  12
TORSDOF 4
ENDMDL
MODEL 2
REMARK VINA RESULT:      -6.8      0.193      1.019
REMARK  Name = 
REMARK  11 active torsions:
REMARK  status: ('A' for Active; 'I' for Inactive)
REMARK    1  A    between atoms: C_1  and  C_2
REMARK    2  A    between atoms: N_4  and  C_5
REMARK    3  A    between atoms: C_5  and  C_6
REMARK    4  A    between atoms: C_5  and  C_7
REMARK    5  A    between atoms: C_5  and  C_8
REMARK    6  A    between atoms: N_11  and  C_12
REMARK    7  A    between atoms: C_12  and  C_13
REMARK    8  A    between atoms: N_15  and  C_16
REMARK    9  A    between atoms: C_16  and  C_17
REMARK   10  A    between atoms: C_16  and  C_18
REMARK   11  A    between atoms: C_16  and  C_19
REMARK                            x       y       z     vdW  Elec       q    Type
REMARK                         _______ _______ _______ _____ _____    ______ ____
ROOT
ATOM      1  C   UNL     1       6.970   6.851  17.400  0.00  0.00    +0.000 C 
ATOM      2  C   UNL     1       5.818   5.917  17.564  0.00  0.00    +0.000 A 
ATOM      3  N   UNL     1       4.832   6.156  18.376  0.00  0.00    +0.000 NA
ATOM      4  N   UNL     1       4.017   5.051  18.259  0.00  0.00    +0.000 N 
ATOM      5  C   UNL     1       4.576   4.152  17.345  0.00  0.00    +0.000 A 
ATOM      6  O   UNL     1       4.160   3.055  17.012  0.00  0.00    +0.000 OA
ATOM      7  N   UNL     1       5.722   4.758  16.893  0.00  0.00    +0.000 N 
ENDROOT
BRANCH   4   8
ATOM      8  C   UNL     1       2.786   4.880  19.043  0.00  0.00    +0.000 C 
ATOM      9  C   UNL     1       2.969   3.809  20.137  0.00  0.00    +0.000 C 
ATOM     10  C   UNL     1       2.427   6.211  19.724  0.00  0.00    +0.000 C 
ATOM     11  C   UNL     1       1.624   4.440  18.134  0.00  0.00    +0.000 C 
ENDBRANCH   4   8
BRANCH   7  12
ATOM     12  C   UNL     1       6.696   4.084  16.062  0.00  0.00    +0.000 C 
BRANCH  12  13
ATOM     13  C   UNL     1       6.606   4.316  14.554  0.00  0.00    +0.000 C 
ATOM     14  O   UNL     1       6.720   5.464  14.121  0.00  0.00    +0.000 OA
ATOM     15  N   UNL     1       6.317   3.234  13.750  0.00  0.00    +0.000 N 
ATOM     16  H   UNL     1       6.399   2.310  14.159  0.00  0.00    +0.000 HD
BRANCH  15  17
ATOM     17  C   UNL     1       6.178   3.329  12.280  0.00  0.00    +0.000 C 
ATOM     18  C   UNL     1       7.201   4.315  11.686  0.00  0.00    +0.000 C 
ATOM     19  C   UNL     1       6.438   1.945  11.656  0.00  0.00    +0.000 C 
ATOM     20  C   UNL     1       4.749   3.753  11.894  0.00  0.00    +0.000 C 
ENDBRANCH  15  17
ENDBRANCH  12  13
ENDBRANCH   7  12
TORSDOF 4
ENDMDL
MODEL 3
REMARK VINA RESULT:      -6.6      3.194      4.755
REMARK  Name = 
REMARK  11 active torsions:
REMARK  status: ('A' for Active; 'I' for Inactive)
REMARK    1  A    between atoms: C_1  and  C_2
REMARK    2  A    between atoms: N_4  and  C_5
REMARK    3  A    between atoms: C_5  and  C_6
REMARK    4  A    between atoms: C_5  and  C_7
REMARK    5  A    between atoms: C_5  and  C_8
REMARK    6  A    between atoms: N_11  and  C_12
REMARK    7  A    between atoms: C_12  and  C_13
REMARK    8  A    between atoms: N_15  and  C_16
REMARK    9  A    between atoms: C_16  and  C_17
REMARK   10  A    between atoms: C_16  and  C_18
REMARK   11  A    between atoms: C_16  and  C_19
REMARK                            x       y       z     vdW  Elec       q    Type
REMARK                         _______ _______ _______ _____ _____    ______ ____
ROOT
ATOM      1  C   UNL     1       1.946   7.789  20.221  0.00  0.00    +0.000 C 
ATOM      2  C   UNL     1       2.226   6.399  19.759  0.00  0.00    +0.000 A 
ATOM      3  N   UNL     1       1.992   5.355  20.498  0.00  0.00    +0.000 NA
ATOM      4  N   UNL     1       2.418   4.292  19.732  0.00  0.00    +0.000 N 
ATOM      5  C   UNL     1       2.916   4.763  18.513  0.00  0.00    +0.000 A 
ATOM      6  O   UNL     1       3.409   4.123  17.599  0.00  0.00    +0.000 OA
ATOM      7  N   UNL     1       2.747   6.125  18.553  0.00  0.00    +0.000 N 
ENDROOT
BRANCH   4   8
ATOM      8  C   UNL     1       2.375   2.900  20.202  0.00  0.00    +0.000 C 
ATOM      9  C   UNL     1       1.707   2.804  21.589  0.00  0.00    +0.000 C 
ATOM     10  C   UNL     1       1.559   2.052  19.212  0.00  0.00    +0.000 C 
ATOM     11  C   UNL     1       3.798   2.325  20.317  0.00  0.00    +0.000 C 
ENDBRANCH   4   8
BRANCH   7  12
ATOM     12  C   UNL     1       3.297   7.018  17.556  0.00  0.00    +0.000 C 
BRANCH  12  13
ATOM     13  C   UNL     1       4.767   6.825  17.183  0.00  0.00    +0.000 C 
ATOM     14  O   UNL     1       5.105   6.961  16.006  0.00  0.00    +0.000 OA
ATOM     15  N   UNL     1       5.637   6.421  18.174  0.00  0.00    +0.000 N 
ATOM     16  H   UNL     1       5.319   6.489  19.134  0.00  0.00    +0.000 HD
BRANCH  15  17
ATOM     17  C   UNL     1       7.078   6.176  17.939  0.00  0.00    +0.000 C 
ATOM     18  C   UNL     1       7.291   5.115  16.844  0.00  0.00    +0.000 C 
ATOM     19  C   UNL     1       7.744   7.482  17.468  0.00  0.00    +0.000 C 
ATOM     20  C   UNL     1       7.774   5.740  19.241  0.00  0.00    +0.000 C 
ENDBRANCH  15  17
ENDBRANCH  12  13
ENDBRANCH   7  12
TORSDOF 4
ENDMDL
MODEL 4
REMARK VINA RESULT:      -6.6      3.208      4.643
REMARK  Name = 
REMARK  11 active torsions:
REMARK  status: ('A' for Active; 'I' for Inactive)
REMARK    1  A    between atoms: C_1  and  C_2
REMARK    2  A    between atoms: N_4  and  C_5
REMARK    3  A    between atoms: C_5  and  C_6
REMARK    4  A    between atoms: C_5  and  C_7
REMARK    5  A    between atoms: C_5  and  C_8
REMARK    6  A    between atoms: N_11  and  C_12
REMARK    7  A    between atoms: C_12  and  C_13
REMARK    8  A    between atoms: N_15  and  C_16
REMARK    9  A    between atoms: C_16  and  C_17
REMARK   10  A    between atoms: C_16  and  C_18
REMARK   11  A    between atoms: C_16  and  C_19
REMARK                            x       y       z     vdW  Elec       q    Type
REMARK                         _______ _______ _______ _____ _____    ______ ____
ROOT
ATOM      1  C   UNL     1       1.933   7.749  20.206  0.00  0.00    +0.000 C 
ATOM      2  C   UNL     1       2.227   6.360  19.748  0.00  0.00    +0.000 A 
ATOM      3  N   UNL     1       2.009   5.317  20.492  0.00  0.00    +0.000 NA
ATOM      4  N   UNL     1       2.443   4.255  19.729  0.00  0.00    +0.000 N 
ATOM      5  C   UNL     1       2.931   4.727  18.506  0.00  0.00    +0.000 A 
ATOM      6  O   UNL     1       3.428   4.089  17.592  0.00  0.00    +0.000 OA
ATOM      7  N   UNL     1       2.747   6.087  18.541  0.00  0.00    +0.000 N 
ENDROOT
BRANCH   4   8
ATOM      8  C   UNL     1       2.418   2.865  20.205  0.00  0.00    +0.000 C 
ATOM      9  C   UNL     1       1.623   1.962  19.240  0.00  0.00    +0.000 C 
ATOM     10  C   UNL     1       3.858   2.331  20.293  0.00  0.00    +0.000 C 
ATOM     11  C   UNL     1       1.756   2.781  21.592  0.00  0.00    +0.000 C 
ENDBRANCH   4   8
BRANCH   7  12
ATOM     12  C   UNL     1       3.283   6.982  17.539  0.00  0.00    +0.000 C 
BRANCH  12  13
ATOM     13  C   UNL     1       4.760   6.823  17.180  0.00  0.00    +0.000 C 
ATOM     14  O   UNL     1       5.107   6.966  16.007  0.00  0.00    +0.000 OA
ATOM     15  N   UNL     1       5.630   6.440  18.180  0.00  0.00    +0.000 N 
ATOM     16  H   UNL     1       5.301   6.500  19.137  0.00  0.00    +0.000 HD
BRANCH  15  17
ATOM     17  C   UNL     1       7.078   6.227  17.959  0.00  0.00    +0.000 C 
ATOM     18  C   UNL     1       7.768   5.723  19.240  0.00  0.00    +0.000 C 
ATOM     19  C   UNL     1       7.273   5.161  16.865  0.00  0.00    +0.000 C 
ATOM     20  C   UNL     1       7.750   7.524  17.472  0.00  0.00    +0.000 C 
ENDBRANCH  15  17
ENDBRANCH  12  13
ENDBRANCH   7  12
TORSDOF 4
ENDMDL
MODEL 5
REMARK VINA RESULT:      -6.6      3.212      4.703
REMARK  Name = 
REMARK  11 active torsions:
REMARK  status: ('A' for Active; 'I' for Inactive)
REMARK    1  A    between atoms: C_1  and  C_2
REMARK    2  A    between atoms: N_4  and  C_5
REMARK    3  A    between atoms: C_5  and  C_6
REMARK    4  A    between atoms: C_5  and  C_7
REMARK    5  A    between atoms: C_5  and  C_8
REMARK    6  A    between atoms: N_11  and  C_12
REMARK    7  A    between atoms: C_12  and  C_13
REMARK    8  A    between atoms: N_15  and  C_16
REMARK    9  A    between atoms: C_16  and  C_17
REMARK   10  A    between atoms: C_16  and  C_18
REMARK   11  A    between atoms: C_16  and  C_19
REMARK                            x       y       z     vdW  Elec       q    Type
REMARK                         _______ _______ _______ _____ _____    ______ ____
ROOT
ATOM      1  C   UNL     1       1.940   7.784  20.201  0.00  0.00    +0.000 C 
ATOM      2  C   UNL     1       2.222   6.392  19.747  0.00  0.00    +0.000 A 
ATOM      3  N   UNL     1       1.992   5.352  20.493  0.00  0.00    +0.000 NA
ATOM      4  N   UNL     1       2.419   4.284  19.732  0.00  0.00    +0.000 N 
ATOM      5  C   UNL     1       2.914   4.750  18.509  0.00  0.00    +0.000 A 
ATOM      6  O   UNL     1       3.407   4.106  17.598  0.00  0.00    +0.000 OA
ATOM      7  N   UNL     1       2.742   6.111  18.542  0.00  0.00    +0.000 N 
ENDROOT
BRANCH   4   8
ATOM      8  C   UNL     1       2.381   2.896  20.211  0.00  0.00    +0.000 C 
ATOM      9  C   UNL     1       3.804   2.327  20.376  0.00  0.00    +0.000 C 
ATOM     10  C   UNL     1       1.678   2.848  21.578  0.00  0.00    +0.000 C 
ATOM     11  C   UNL     1       1.622   2.001  19.214  0.00  0.00    +0.000 C 
ENDBRANCH   4   8
BRANCH   7  12
ATOM     12  C   UNL     1       3.288   7.000  17.538  0.00  0.00    +0.000 C 
BRANCH  12  13
ATOM     13  C   UNL     1       4.764   6.824  17.181  0.00  0.00    +0.000 C 
ATOM     14  O   UNL     1       5.115   6.974  16.010  0.00  0.00    +0.000 OA
ATOM     15  N   UNL     1       5.626   6.421  18.179  0.00  0.00    +0.000 N 
ATOM     16  H   UNL     1       5.296   6.477  19.136  0.00  0.00    +0.000 HD
BRANCH  15  17
ATOM     17  C   UNL     1       7.072   6.192  17.960  0.00  0.00    +0.000 C 
ATOM     18  C   UNL     1       7.768   5.744  19.258  0.00  0.00    +0.000 C 
ATOM     19  C   UNL     1       7.255   5.075  16.916  0.00  0.00    +0.000 C 
ATOM     20  C   UNL     1       7.746   7.461  17.409  0.00  0.00    +0.000 C 
ENDBRANCH  15  17
ENDBRANCH  12  13
ENDBRANCH   7  12
TORSDOF 4
ENDMDL
MODEL 6
REMARK VINA RESULT:      -6.6      0.426      1.425
REMARK  Name = 
REMARK  11 active torsions:
REMARK  status: ('A' for Active; 'I' for Inactive)
REMARK    1  A    between atoms: C_1  and  C_2
REMARK    2  A    between atoms: N_4  and  C_5
REMARK    3  A    between atoms: C_5  and  C_6
REMARK    4  A    between atoms: C_5  and  C_7
REMARK    5  A    between atoms: C_5  and  C_8
REMARK    6  A    between atoms: N_11  and  C_12
REMARK    7  A    between atoms: C_12  and  C_13
REMARK    8  A    between atoms: N_15  and  C_16
REMARK    9  A    between atoms: C_16  and  C_17
REMARK   10  A    between atoms: C_16  and  C_18
REMARK   11  A    between atoms: C_16  and  C_19
REMARK                            x       y       z     vdW  Elec       q    Type
REMARK                         _______ _______ _______ _____ _____    ______ ____
ROOT
ATOM      1  C   UNL     1       6.923   6.701  17.682  0.00  0.00    +0.000 C 
ATOM      2  C   UNL     1       5.773   5.754  17.775  0.00  0.00    +0.000 A 
ATOM      3  N   UNL     1       4.791   5.925  18.609  0.00  0.00    +0.000 NA
ATOM      4  N   UNL     1       3.976   4.832  18.406  0.00  0.00    +0.000 N 
ATOM      5  C   UNL     1       4.532   4.011  17.419  0.00  0.00    +0.000 A 
ATOM      6  O   UNL     1       4.115   2.944  16.999  0.00  0.00    +0.000 OA
ATOM      7  N   UNL     1       5.674   4.654  17.012  0.00  0.00    +0.000 N 
ENDROOT
BRANCH   4   8
ATOM      8  C   UNL     1       2.750   4.595  19.180  0.00  0.00    +0.000 C 
ATOM      9  C   UNL     1       2.900   3.362  20.094  0.00  0.00    +0.000 C 
ATOM     10  C   UNL     1       2.460   5.820  20.062  0.00  0.00    +0.000 C 
ATOM     11  C   UNL     1       1.557   4.349  18.238  0.00  0.00    +0.000 C 
ENDBRANCH   4   8
BRANCH   7  12
ATOM     12  C   UNL     1       6.645   4.052  16.124  0.00  0.00    +0.000 C 
BRANCH  12  13
ATOM     13  C   UNL     1       6.484   4.323  14.628  0.00  0.00    +0.000 C 
ATOM     14  O   UNL     1       6.333   5.484  14.246  0.00  0.00    +0.000 OA
ATOM     15  N   UNL     1       6.430   3.238  13.777  0.00  0.00    +0.000 N 
ATOM     16  H   UNL     1       6.722   2.339  14.144  0.00  0.00    +0.000 HD
BRANCH  15  17
ATOM     17  C   UNL     1       6.253   3.363  12.314  0.00  0.00    +0.000 C 
ATOM     18  C   UNL     1       6.520   2.023  11.604  0.00  0.00    +0.000 C 
ATOM     19  C   UNL     1       4.801   3.777  12.012  0.00  0.00    +0.000 C 
ATOM     20  C   UNL     1       7.177   4.455  11.745  0.00  0.00    +0.000 C 
ENDBRANCH  15  17
ENDBRANCH  12  13
ENDBRANCH   7  12
TORSDOF 4
ENDMDL
MODEL 7
REMARK VINA RESULT:      -6.5      0.945      1.546
REMARK  Name = 
REMARK  11 active torsions:
REMARK  status: ('A' for Active; 'I' for Inactive)
REMARK    1  A    between atoms: C_1  and  C_2
REMARK    2  A    between atoms: N_4  and  C_5
REMARK    3  A    between atoms: C_5  and  C_6
REMARK    4  A    between atoms: C_5  and  C_7
REMARK    5  A    between atoms: C_5  and  C_8
REMARK    6  A    between atoms: N_11  and  C_12
REMARK    7  A    between atoms: C_12  and  C_13
REMARK    8  A    between atoms: N_15  and  C_16
REMARK    9  A    between atoms: C_16  and  C_17
REMARK   10  A    between atoms: C_16  and  C_18
REMARK   11  A    between atoms: C_16  and  C_19
REMARK                            x       y       z     vdW  Elec       q    Type
REMARK                         _______ _______ _______ _____ _____    ______ ____
ROOT
ATOM      1  C   UNL     1       7.401   5.764  19.030  0.00  0.00    +0.000 C 
ATOM      2  C   UNL     1       6.140   5.140  18.534  0.00  0.00    +0.000 A 
ATOM      3  N   UNL     1       5.051   5.103  19.243  0.00  0.00    +0.000 NA
ATOM      4  N   UNL     1       4.151   4.421  18.452  0.00  0.00    +0.000 N 
ATOM      5  C   UNL     1       4.768   4.056  17.251  0.00  0.00    +0.000 A 
ATOM      6  O   UNL     1       4.299   3.415  16.325  0.00  0.00    +0.000 OA
ATOM      7  N   UNL     1       6.041   4.564  17.326  0.00  0.00    +0.000 N 
ENDROOT
BRANCH   4   8
ATOM      8  C   UNL     1       2.782   4.110  18.885  0.00  0.00    +0.000 C 
ATOM      9  C   UNL     1       2.573   2.588  19.016  0.00  0.00    +0.000 C 
ATOM     10  C   UNL     1       2.524   4.754  20.258  0.00  0.00    +0.000 C 
ATOM     11  C   UNL     1       1.759   4.647  17.868  0.00  0.00    +0.000 C 
ENDBRANCH   4   8
BRANCH   7  12
ATOM     12  C   UNL     1       7.071   4.256  16.358  0.00  0.00    +0.000 C 
BRANCH  12  13
ATOM     13  C   UNL     1       6.748   4.519  14.887  0.00  0.00    +0.000 C 
ATOM     14  O   UNL     1       6.565   5.679  14.516  0.00  0.00    +0.000 OA
ATOM     15  N   UNL     1       6.591   3.430  14.056  0.00  0.00    +0.000 N 
ATOM     16  H   UNL     1       6.914   2.531  14.395  0.00  0.00    +0.000 HD
BRANCH  15  17
ATOM     17  C   UNL     1       6.254   3.547  12.620  0.00  0.00    +0.000 C 
ATOM     18  C   UNL     1       4.804   4.027  12.426  0.00  0.00    +0.000 C 
ATOM     19  C   UNL     1       7.187   4.580  11.962  0.00  0.00    +0.000 C 
ATOM     20  C   UNL     1       6.466   2.202  11.901  0.00  0.00    +0.000 C 
ENDBRANCH  15  17
ENDBRANCH  12  13
ENDBRANCH   7  12
TORSDOF 4
ENDMDL
MODEL 8
REMARK VINA RESULT:      -6.5      0.973      1.394
REMARK  Name = 
REMARK  11 active torsions:
REMARK  status: ('A' for Active; 'I' for Inactive)
REMARK    1  A    between atoms: C_1  and  C_2
REMARK    2  A    between atoms: N_4  and  C_5
REMARK    3  A    between atoms: C_5  and  C_6
REMARK    4  A    between atoms: C_5  and  C_7
REMARK    5  A    between atoms: C_5  and  C_8
REMARK    6  A    between atoms: N_11  and  C_12
REMARK    7  A    between atoms: C_12  and  C_13
REMARK    8  A    between atoms: N_15  and  C_16
REMARK    9  A    between atoms: C_16  and  C_17
REMARK   10  A    between atoms: C_16  and  C_18
REMARK   11  A    between atoms: C_16  and  C_19
REMARK                            x       y       z     vdW  Elec       q    Type
REMARK                         _______ _______ _______ _____ _____    ______ ____
ROOT
ATOM      1  C   UNL     1       7.451   5.715  19.143  0.00  0.00    +0.000 C 
ATOM      2  C   UNL     1       6.169   5.152  18.628  0.00  0.00    +0.000 A 
ATOM      3  N   UNL     1       5.072   5.156  19.325  0.00  0.00    +0.000 NA
ATOM      4  N   UNL     1       4.152   4.521  18.519  0.00  0.00    +0.000 N 
ATOM      5  C   UNL     1       4.765   4.141  17.320  0.00  0.00    +0.000 A 
ATOM      6  O   UNL     1       4.278   3.530  16.383  0.00  0.00    +0.000 OA
ATOM      7  N   UNL     1       6.057   4.592  17.413  0.00  0.00    +0.000 N 
ENDROOT
BRANCH   4   8
ATOM      8  C   UNL     1       2.765   4.267  18.935  0.00  0.00    +0.000 C 
ATOM      9  C   UNL     1       1.768   4.735  17.855  0.00  0.00    +0.000 C 
ATOM     10  C   UNL     1       2.568   2.758  19.155  0.00  0.00    +0.000 C 
ATOM     11  C   UNL     1       2.446   5.021  20.239  0.00  0.00    +0.000 C 
ENDBRANCH   4   8
BRANCH   7  12
ATOM     12  C   UNL     1       7.084   4.248  16.453  0.00  0.00    +0.000 C 
BRANCH  12  13
ATOM     13  C   UNL     1       6.787   4.538  14.982  0.00  0.00    +0.000 C 
ATOM     14  O   UNL     1       6.653   5.708  14.620  0.00  0.00    +0.000 OA
ATOM     15  N   UNL     1       6.599   3.463  14.138  0.00  0.00    +0.000 N 
ATOM     16  H   UNL     1       6.884   2.549  14.471  0.00  0.00    +0.000 HD
BRANCH  15  17
ATOM     17  C   UNL     1       6.283   3.607  12.699  0.00  0.00    +0.000 C 
ATOM     18  C   UNL     1       6.439   2.266  11.958  0.00  0.00    +0.000 C 
ATOM     19  C   UNL     1       4.820   4.064  12.545  0.00  0.00    +0.000 C 
ATOM     20  C   UNL     1       7.178   4.678  12.050  0.00  0.00    +0.000 C 
ENDBRANCH  15  17
ENDBRANCH  12  13
ENDBRANCH   7  12
TORSDOF 4
ENDMDL
MODEL 9
REMARK VINA RESULT:      -6.5      0.778      1.294
REMARK  Name = 
REMARK  11 active torsions:
REMARK  status: ('A' for Active; 'I' for Inactive)
REMARK    1  A    between atoms: C_1  and  C_2
REMARK    2  A    between atoms: N_4  and  C_5
REMARK    3  A    between atoms: C_5  and  C_6
REMARK    4  A    between atoms: C_5  and  C_7
REMARK    5  A    between atoms: C_5  and  C_8
REMARK    6  A    between atoms: N_11  and  C_12
REMARK    7  A    between atoms: C_12  and  C_13
REMARK    8  A    between atoms: N_15  and  C_16
REMARK    9  A    between atoms: C_16  and  C_17
REMARK   10  A    between atoms: C_16  and  C_18
REMARK   11  A    between atoms: C_16  and  C_19
REMARK                            x       y       z     vdW  Elec       q    Type
REMARK                         _______ _______ _______ _____ _____    ______ ____
ROOT
ATOM      1  C   UNL     1       6.655   6.496  17.791  0.00  0.00    +0.000 C 
ATOM      2  C   UNL     1       5.542   5.512  17.919  0.00  0.00    +0.000 A 
ATOM      3  N   UNL     1       4.603   5.629  18.810  0.00  0.00    +0.000 NA
ATOM      4  N   UNL     1       3.811   4.517  18.621  0.00  0.00    +0.000 N 
ATOM      5  C   UNL     1       4.335   3.741  17.581  0.00  0.00    +0.000 A 
ATOM      6  O   UNL     1       3.927   2.674  17.154  0.00  0.00    +0.000 OA
ATOM      7  N   UNL     1       5.433   4.431  17.131  0.00  0.00    +0.000 N 
ENDROOT
BRANCH   4   8
ATOM      8  C   UNL     1       2.636   4.221  19.453  0.00  0.00    +0.000 C 
ATOM      9  C   UNL     1       1.412   3.875  18.582  0.00  0.00    +0.000 C 
ATOM     10  C   UNL     1       2.944   3.016  20.358  0.00  0.00    +0.000 C 
ATOM     11  C   UNL     1       2.273   5.437  20.326  0.00  0.00    +0.000 C 
ENDBRANCH   4   8
BRANCH   7  12
ATOM     12  C   UNL     1       6.370   3.883  16.174  0.00  0.00    +0.000 C 
BRANCH  12  13
ATOM     13  C   UNL     1       6.119   4.191  14.698  0.00  0.00    +0.000 C 
ATOM     14  O   UNL     1       5.595   5.263  14.394  0.00  0.00    +0.000 OA
ATOM     15  N   UNL     1       6.416   3.210  13.775  0.00  0.00    +0.000 N 
ATOM     16  H   UNL     1       6.988   2.432  14.084  0.00  0.00    +0.000 HD
BRANCH  15  17
ATOM     17  C   UNL     1       6.198   3.372  12.320  0.00  0.00    +0.000 C 
ATOM     18  C   UNL     1       4.738   3.756  12.015  0.00  0.00    +0.000 C 
ATOM     19  C   UNL     1       7.103   4.501  11.794  0.00  0.00    +0.000 C 
ATOM     20  C   UNL     1       6.574   2.083  11.567  0.00  0.00    +0.000 C 
ENDBRANCH  15  17
ENDBRANCH  12  13
ENDBRANCH   7  12
TORSDOF 4
ENDMDL
