MODEL 1
REMARK VINA RESULT:      -6.8      0.000      0.000
REMARK  Name = 
REMARK  5 active torsions:
REMARK  status: ('A' for Active; 'I' for Inactive)
REMARK    1  A    between atoms: C_1  and  O_2
REMARK    2  A    between atoms: O_2  and  C_3
REMARK    3  A    between atoms: C_6  and  C_7
REMARK    4  A    between atoms: C_13  and  O_14
REMARK    5  A    between atoms: O_14  and  C_15
REMARK                            x       y       z     vdW  Elec       q    Type
REMARK                         _______ _______ _______ _____ _____    ______ ____
ROOT
ATOM      1  C   UNL     1       5.502   5.559  15.768  0.00  0.00    +0.000 A 
ATOM      2  C   UNL     1       5.277   4.207  15.961  0.00  0.00    +0.000 A 
ATOM      3  C   UNL     1       4.400   3.772  16.962  0.00  0.00    +0.000 A 
ATOM      4  C   UNL     1       3.703   4.656  17.822  0.00  0.00    +0.000 A 
ATOM      5  C   UNL     1       3.935   6.042  17.580  0.00  0.00    +0.000 A 
ATOM      6  C   UNL     1       4.826   6.469  16.574  0.00  0.00    +0.000 A 
ENDROOT
BRANCH   4   7
ATOM      7  C   UNL     1       2.796   4.098  18.906  0.00  0.00    +0.000 A 
ATOM      8  C   UNL     1       1.515   3.574  18.612  0.00  0.00    +0.000 A 
ATOM      9  C   UNL     1       0.659   3.052  19.593  0.00  0.00    +0.000 A 
ATOM     10  C   UNL     1       1.048   3.027  20.921  0.00  0.00    +0.000 A 
ATOM     11  C   UNL     1       2.296   3.520  21.261  0.00  0.00    +0.000 A 
ATOM     12  C   UNL     1       3.142   4.041  20.273  0.00  0.00    +0.000 A 
ENDBRANCH   4   7
BRANCH   1  14
ATOM     13  C   UNL     1       6.937   4.771  14.055  0.00  0.00    +0.000 C 
ATOM     14  O   UNL     1       6.387   5.869  14.774  0.00  0.00    +0.000 OA
ENDBRANCH   1  14
BRANCH   5  15
ATOM     15  O   UNL     1       3.262   6.953  18.352  0.00  0.00    +0.000 OA
ATOM     16  C   UNL     1       2.627   8.074  17.757  0.00  0.00    +0.000 C 
ENDBRANCH   5  15
TORSDOF 3
ENDMDL
MODEL 2
REMARK VINA RESULT:      -6.8      0.137      1.188
REMARK  Name = 
REMARK  5 active torsions:
REMARK  status: ('A' for Active; 'I' for Inactive)
REMARK    1  A    between atoms: C_1  and  O_2
REMARK    2  A    between atoms: O_2  and  C_3
REMARK    3  A    between atoms: C_6  and  C_7
REMARK    4  A    between atoms: C_13  and  O_14
REMARK    5  A    between atoms: O_14  and  C_15
REMARK                            x       y       z     vdW  Elec       q    Type
REMARK                         _______ _______ _______ _____ _____    ______ ____
ROOT
ATOM      1  C   UNL     1       5.557   5.525  15.807  0.00  0.00    +0.000 A 
ATOM      2  C   UNL     1       5.323   4.171  15.969  0.00  0.00    +0.000 A 
ATOM      3  C   UNL     1       4.438   3.720  16.956  0.00  0.00    +0.000 A 
ATOM      4  C   UNL     1       3.742   4.590  17.832  0.00  0.00    +0.000 A 
ATOM      5  C   UNL     1       3.984   5.979  17.621  0.00  0.00    +0.000 A 
ATOM      6  C   UNL     1       4.882   6.422  16.628  0.00  0.00    +0.000 A 
ENDROOT
BRANCH   4   7
ATOM      7  C   UNL     1       2.825   4.014  18.899  0.00  0.00    +0.000 A 
ATOM      8  C   UNL     1       3.270   3.786  20.222  0.00  0.00    +0.000 A 
ATOM      9  C   UNL     1       2.444   3.258  21.225  0.00  0.00    +0.000 A 
ATOM     10  C   UNL     1       1.126   2.934  20.950  0.00  0.00    +0.000 A 
ATOM     11  C   UNL     1       0.640   3.146  19.672  0.00  0.00    +0.000 A 
ATOM     12  C   UNL     1       1.474   3.673  18.677  0.00  0.00    +0.000 A 
ENDBRANCH   4   7
BRANCH   1  14
ATOM     13  C   UNL     1       6.974   4.768  14.065  0.00  0.00    +0.000 C 
ATOM     14  O   UNL     1       6.449   5.850  14.824  0.00  0.00    +0.000 OA
ENDBRANCH   1  14
BRANCH   5  15
ATOM     15  O   UNL     1       3.313   6.877  18.408  0.00  0.00    +0.000 OA
ATOM     16  C   UNL     1       2.654   7.993  17.831  0.00  0.00    +0.000 C 
ENDBRANCH   5  15
TORSDOF 3
ENDMDL
MODEL 3
REMARK VINA RESULT:      -6.7      1.997      2.462
REMARK  Name = 
REMARK  5 active torsions:
REMARK  status: ('A' for Active; 'I' for Inactive)
REMARK    1  A    between atoms: C_1  and  O_2
REMARK    2  A    between atoms: O_2  and  C_3
REMARK    3  A    between atoms: C_6  and  C_7
REMARK    4  A    between atoms: C_13  and  O_14
REMARK    5  A    between atoms: O_14  and  C_15
REMARK                            x       y       z     vdW  Elec       q    Type
REMARK                         _______ _______ _______ _____ _____    ______ ____
ROOT
ATOM      1  C   UNL     1       6.660   4.963  15.941  0.00  0.00    +0.000 A 
ATOM      2  C   UNL     1       5.337   4.619  15.727  0.00  0.00    +0.000 A 
ATOM      3  C   UNL     1       4.478   4.402  16.811  0.00  0.00    +0.000 A 
ATOM      4  C   UNL     1       4.890   4.512  18.163  0.00  0.00    +0.000 A 
ATOM      5  C   UNL     1       6.251   4.894  18.350  0.00  0.00    +0.000 A 
ATOM      6  C   UNL     1       7.108   5.104  17.250  0.00  0.00    +0.000 A 
ENDROOT
BRANCH   4   7
ATOM      7  C   UNL     1       3.901   4.225  19.280  0.00  0.00    +0.000 A 
ATOM      8  C   UNL     1       3.813   2.953  19.892  0.00  0.00    +0.000 A 
ATOM      9  C   UNL     1       2.911   2.662  20.926  0.00  0.00    +0.000 A 
ATOM     10  C   UNL     1       2.051   3.638  21.401  0.00  0.00    +0.000 A 
ATOM     11  C   UNL     1       2.103   4.903  20.842  0.00  0.00    +0.000 A 
ATOM     12  C   UNL     1       3.008   5.182  19.808  0.00  0.00    +0.000 A 
ENDBRANCH   4   7
BRANCH   1  14
ATOM     13  C   UNL     1       6.911   4.532  13.625  0.00  0.00    +0.000 C 
ATOM     14  O   UNL     1       7.409   5.137  14.812  0.00  0.00    +0.000 OA
ENDBRANCH   1  14
BRANCH   5  15
ATOM     15  O   UNL     1       6.704   5.057  19.632  0.00  0.00    +0.000 OA
ATOM     16  C   UNL     1       7.944   5.700  19.884  0.00  0.00    +0.000 C 
ENDBRANCH   5  15
TORSDOF 3
ENDMDL
MODEL 4
REMARK VINA RESULT:      -6.6      1.998      2.472
REMARK  Name = 
REMARK  5 active torsions:
REMARK  status: ('A' for Active; 'I' for Inactive)
REMARK    1  A    between atoms: C_1  and  O_2
REMARK    2  A    between atoms: O_2  and  C_3
REMARK    3  A    between atoms: C_6  and  C_7
REMARK    4  A    between atoms: C_13  and  O_14
REMARK    5  A    between atoms: O_14  and  C_15
REMARK                            x       y       z     vdW  Elec       q    Type
REMARK                         _______ _______ _______ _____ _____    ______ ____
ROOT
ATOM      1  C   UNL     1       7.063   5.171  15.083  0.00  0.00    +0.000 A 
ATOM      2  C   UNL     1       6.039   4.457  14.486  0.00  0.00    +0.000 A 
ATOM      3  C   UNL     1       4.963   3.992  15.250  0.00  0.00    +0.000 A 
ATOM      4  C   UNL     1       4.848   4.211  16.645  0.00  0.00    +0.000 A 
ATOM      5  C   UNL     1       5.905   4.973  17.226  0.00  0.00    +0.000 A 
ATOM      6  C   UNL     1       6.987   5.431  16.447  0.00  0.00    +0.000 A 
ENDROOT
BRANCH   4   7
ATOM      7  C   UNL     1       3.662   3.641  17.406  0.00  0.00    +0.000 A 
ATOM      8  C   UNL     1       2.476   4.385  17.607  0.00  0.00    +0.000 A 
ATOM      9  C   UNL     1       1.367   3.882  18.303  0.00  0.00    +0.000 A 
ATOM     10  C   UNL     1       1.393   2.602  18.832  0.00  0.00    +0.000 A 
ATOM     11  C   UNL     1       2.527   1.830  18.655  0.00  0.00    +0.000 A 
ATOM     12  C   UNL     1       3.630   2.343  17.959  0.00  0.00    +0.000 A 
ENDBRANCH   4   7
BRANCH   1  14
ATOM     13  C   UNL     1       7.903   5.245  12.869  0.00  0.00    +0.000 C 
ATOM     14  O   UNL     1       8.069   5.563  14.245  0.00  0.00    +0.000 OA
ENDBRANCH   1  14
BRANCH   5  15
ATOM     15  O   UNL     1       5.836   5.255  18.565  0.00  0.00    +0.000 OA
ATOM     16  C   UNL     1       7.013   5.545  19.303  0.00  0.00    +0.000 C 
ENDBRANCH   5  15
TORSDOF 3
ENDMDL
MODEL 5
REMARK VINA RESULT:      -6.6      1.950      2.423
REMARK  Name = 
REMARK  5 active torsions:
REMARK  status: ('A' for Active; 'I' for Inactive)
REMARK    1  A    between atoms: C_1  and  O_2
REMARK    2  A    between atoms: O_2  and  C_3
REMARK    3  A    between atoms: C_6  and  C_7
REMARK    4  A    between atoms: C_13  and  O_14
REMARK    5  A    between atoms: O_14  and  C_15
REMARK                            x       y       z     vdW  Elec       q    Type
REMARK                         _______ _______ _______ _____ _____    ______ ____
ROOT
ATOM      1  C   UNL     1       6.497   4.794  15.758  0.00  0.00    +0.000 A 
ATOM      2  C   UNL     1       5.147   4.528  15.605  0.00  0.00    +0.000 A 
ATOM      3  C   UNL     1       4.332   4.339  16.727  0.00  0.00    +0.000 A 
ATOM      4  C   UNL     1       4.814   4.402  18.058  0.00  0.00    +0.000 A 
ATOM      5  C   UNL     1       6.202   4.703  18.183  0.00  0.00    +0.000 A 
ATOM      6  C   UNL     1       7.016   4.886  17.045  0.00  0.00    +0.000 A 
ENDROOT
BRANCH   4   7
ATOM      7  C   UNL     1       3.866   4.150  19.218  0.00  0.00    +0.000 A 
ATOM      8  C   UNL     1       3.014   5.161  19.721  0.00  0.00    +0.000 A 
ATOM      9  C   UNL     1       2.130   4.953  20.790  0.00  0.00    +0.000 A 
ATOM     10  C   UNL     1       2.054   3.716  21.407  0.00  0.00    +0.000 A 
ATOM     11  C   UNL     1       2.861   2.691  20.948  0.00  0.00    +0.000 A 
ATOM     12  C   UNL     1       3.742   2.909  19.880  0.00  0.00    +0.000 A 
ENDBRANCH   4   7
BRANCH   1  14
ATOM     13  C   UNL     1       6.698   4.250  13.461  0.00  0.00    +0.000 C 
ATOM     14  O   UNL     1       7.199   4.947  14.596  0.00  0.00    +0.000 OA
ENDBRANCH   1  14
BRANCH   5  15
ATOM     15  O   UNL     1       6.726   4.817  19.444  0.00  0.00    +0.000 OA
ATOM     16  C   UNL     1       7.827   5.677  19.694  0.00  0.00    +0.000 C 
ENDBRANCH   5  15
TORSDOF 3
ENDMDL
MODEL 6
REMARK VINA RESULT:      -6.6      1.961      2.485
REMARK  Name = 
REMARK  5 active torsions:
REMARK  status: ('A' for Active; 'I' for Inactive)
REMARK    1  A    between atoms: C_1  and  O_2
REMARK    2  A    between atoms: O_2  and  C_3
REMARK    3  A    between atoms: C_6  and  C_7
REMARK    4  A    between atoms: C_13  and  O_14
REMARK    5  A    between atoms: O_14  and  C_15
REMARK                            x       y       z     vdW  Elec       q    Type
REMARK                         _______ _______ _______ _____ _____    ______ ____
ROOT
ATOM      1  C   UNL     1       7.006   5.176  15.066  0.00  0.00    +0.000 A 
ATOM      2  C   UNL     1       6.046   4.359  14.494  0.00  0.00    +0.000 A 
ATOM      3  C   UNL     1       4.964   3.900  15.254  0.00  0.00    +0.000 A 
ATOM      4  C   UNL     1       4.780   4.227  16.620  0.00  0.00    +0.000 A 
ATOM      5  C   UNL     1       5.770   5.092  17.172  0.00  0.00    +0.000 A 
ATOM      6  C   UNL     1       6.859   5.543  16.399  0.00  0.00    +0.000 A 
ENDROOT
BRANCH   4   7
ATOM      7  C   UNL     1       3.594   3.658  17.381  0.00  0.00    +0.000 A 
ATOM      8  C   UNL     1       3.631   2.371  17.968  0.00  0.00    +0.000 A 
ATOM      9  C   UNL     1       2.551   1.823  18.677  0.00  0.00    +0.000 A 
ATOM     10  C   UNL     1       1.379   2.543  18.835  0.00  0.00    +0.000 A 
ATOM     11  C   UNL     1       1.295   3.811  18.287  0.00  0.00    +0.000 A 
ATOM     12  C   UNL     1       2.379   4.348  17.580  0.00  0.00    +0.000 A 
ENDBRANCH   4   7
BRANCH   1  14
ATOM     13  C   UNL     1       7.866   5.232  12.859  0.00  0.00    +0.000 C 
ATOM     14  O   UNL     1       8.024   5.552  14.236  0.00  0.00    +0.000 OA
ENDBRANCH   1  14
BRANCH   5  15
ATOM     15  O   UNL     1       5.631   5.480  18.479  0.00  0.00    +0.000 OA
ATOM     16  C   UNL     1       6.744   5.467  19.359  0.00  0.00    +0.000 C 
ENDBRANCH   5  15
TORSDOF 3
ENDMDL
MODEL 7
REMARK VINA RESULT:      -6.4      1.528      2.072
REMARK  Name = 
REMARK  5 active torsions:
REMARK  status: ('A' for Active; 'I' for Inactive)
REMARK    1  A    between atoms: C_1  and  O_2
REMARK    2  A    between atoms: O_2  and  C_3
REMARK    3  A    between atoms: C_6  and  C_7
REMARK    4  A    between atoms: C_13  and  O_14
REMARK    5  A    between atoms: O_14  and  C_15
REMARK                            x       y       z     vdW  Elec       q    Type
REMARK                         _______ _______ _______ _____ _____    ______ ____
ROOT
ATOM      1  C   UNL     1       6.152   6.566  17.275  0.00  0.00    +0.000 A 
ATOM      2  C   UNL     1       6.266   5.229  17.616  0.00  0.00    +0.000 A 
ATOM      3  C   UNL     1       5.159   4.527  18.107  0.00  0.00    +0.000 A 
ATOM      4  C   UNL     1       3.883   5.116  18.286  0.00  0.00    +0.000 A 
ATOM      5  C   UNL     1       3.791   6.486  17.901  0.00  0.00    +0.000 A 
ATOM      6  C   UNL     1       4.914   7.185  17.414  0.00  0.00    +0.000 A 
ENDROOT
BRANCH   4   7
ATOM      7  C   UNL     1       2.742   4.290  18.858  0.00  0.00    +0.000 A 
ATOM      8  C   UNL     1       2.304   4.445  20.194  0.00  0.00    +0.000 A 
ATOM      9  C   UNL     1       1.254   3.697  20.745  0.00  0.00    +0.000 A 
ATOM     10  C   UNL     1       0.587   2.755  19.980  0.00  0.00    +0.000 A 
ATOM     11  C   UNL     1       0.972   2.571  18.664  0.00  0.00    +0.000 A 
ATOM     12  C   UNL     1       2.024   3.323  18.124  0.00  0.00    +0.000 A 
ENDBRANCH   4   7
BRANCH   1  14
ATOM     13  C   UNL     1       7.829   8.203  17.621  0.00  0.00    +0.000 C 
ATOM     14  O   UNL     1       7.298   7.154  16.821  0.00  0.00    +0.000 OA
ENDBRANCH   1  14
BRANCH   5  15
ATOM     15  O   UNL     1       2.574   7.106  18.012  0.00  0.00    +0.000 OA
ATOM     16  C   UNL     1       2.445   8.495  17.751  0.00  0.00    +0.000 C 
ENDBRANCH   5  15
TORSDOF 3
ENDMDL
MODEL 8
REMARK VINA RESULT:      -6.4      1.593      1.827
REMARK  Name = 
REMARK  5 active torsions:
REMARK  status: ('A' for Active; 'I' for Inactive)
REMARK    1  A    between atoms: C_1  and  O_2
REMARK    2  A    between atoms: O_2  and  C_3
REMARK    3  A    between atoms: C_6  and  C_7
REMARK    4  A    between atoms: C_13  and  O_14
REMARK    5  A    between atoms: O_14  and  C_15
REMARK                            x       y       z     vdW  Elec       q    Type
REMARK                         _______ _______ _______ _____ _____    ______ ____
ROOT
ATOM      1  C   UNL     1       6.270   6.540  17.299  0.00  0.00    +0.000 A 
ATOM      2  C   UNL     1       6.405   5.278  17.850  0.00  0.00    +0.000 A 
ATOM      3  C   UNL     1       5.285   4.602  18.350  0.00  0.00    +0.000 A 
ATOM      4  C   UNL     1       3.976   5.144  18.329  0.00  0.00    +0.000 A 
ATOM      5  C   UNL     1       3.867   6.434  17.730  0.00  0.00    +0.000 A 
ATOM      6  C   UNL     1       5.003   7.108  17.236  0.00  0.00    +0.000 A 
ENDROOT
BRANCH   4   7
ATOM      7  C   UNL     1       2.821   4.356  18.924  0.00  0.00    +0.000 A 
ATOM      8  C   UNL     1       2.069   3.437  18.155  0.00  0.00    +0.000 A 
ATOM      9  C   UNL     1       0.999   2.697  18.681  0.00  0.00    +0.000 A 
ATOM     10  C   UNL     1       0.632   2.841  20.008  0.00  0.00    +0.000 A 
ATOM     11  C   UNL     1       1.342   3.721  20.805  0.00  0.00    +0.000 A 
ATOM     12  C   UNL     1       2.408   4.457  20.269  0.00  0.00    +0.000 A 
ENDBRANCH   4   7
BRANCH   1  14
ATOM     13  C   UNL     1       7.935   8.193  17.630  0.00  0.00    +0.000 C 
ATOM     14  O   UNL     1       7.430   7.111  16.857  0.00  0.00    +0.000 OA
ENDBRANCH   1  14
BRANCH   5  15
ATOM     15  O   UNL     1       2.623   7.001  17.642  0.00  0.00    +0.000 OA
ATOM     16  C   UNL     1       2.289   8.137  18.425  0.00  0.00    +0.000 C 
ENDBRANCH   5  15
TORSDOF 3
ENDMDL
MODEL 9
REMARK VINA RESULT:      -6.4      1.695      3.799
REMARK  Name = 
REMARK  5 active torsions:
REMARK  status: ('A' for Active; 'I' for Inactive)
REMARK    1  A    between atoms: C_1  and  O_2
REMARK    2  A    between atoms: O_2  and  C_3
REMARK    3  A    between atoms: C_6  and  C_7
REMARK    4  A    between atoms: C_13  and  O_14
REMARK    5  A    between atoms: O_14  and  C_15
REMARK                            x       y       z     vdW  Elec       q    Type
REMARK                         _______ _______ _______ _____ _____    ______ ____
ROOT
ATOM      1  C   UNL     1       5.108   4.424  16.354  0.00  0.00    +0.000 A 
ATOM      2  C   UNL     1       5.488   5.748  16.491  0.00  0.00    +0.000 A 
ATOM      3  C   UNL     1       4.669   6.649  17.182  0.00  0.00    +0.000 A 
ATOM      4  C   UNL     1       3.433   6.284  17.770  0.00  0.00    +0.000 A 
ATOM      5  C   UNL     1       3.084   4.908  17.635  0.00  0.00    +0.000 A 
ATOM      6  C   UNL     1       3.913   4.010  16.932  0.00  0.00    +0.000 A 
ENDROOT
BRANCH   4   7
ATOM      7  C   UNL     1       2.590   7.334  18.473  0.00  0.00    +0.000 A 
ATOM      8  C   UNL     1       2.269   7.238  19.847  0.00  0.00    +0.000 A 
ATOM      9  C   UNL     1       1.494   8.195  20.520  0.00  0.00    +0.000 A 
ATOM     10  C   UNL     1       1.003   9.300  19.845  0.00  0.00    +0.000 A 
ATOM     11  C   UNL     1       1.296   9.445  18.501  0.00  0.00    +0.000 A 
ATOM     12  C   UNL     1       2.070   8.483  17.838  0.00  0.00    +0.000 A 
ENDBRANCH   4   7
BRANCH   1  14
ATOM     13  C   UNL     1       6.260   4.049  14.318  0.00  0.00    +0.000 C 
ATOM     14  O   UNL     1       5.975   3.637  15.650  0.00  0.00    +0.000 OA
ENDBRANCH   1  14
BRANCH   5  15
ATOM     15  O   UNL     1       1.919   4.478  18.215  0.00  0.00    +0.000 OA
ATOM     16  C   UNL     1       1.647   3.092  18.347  0.00  0.00    +0.000 C 
ENDBRANCH   5  15
TORSDOF 3
ENDMDL
