MODEL 1
REMARK VINA RESULT:      -8.1      0.000      0.000
REMARK  Name = 
REMARK  11 active torsions:
REMARK  status: ('A' for Active; 'I' for Inactive)
REMARK    1  A    between atoms: C_1  and  C_2
REMARK    2  A    between atoms: C_2  and  C_3
REMARK    3  A    between atoms: C_3  and  C_4
REMARK    4  A    between atoms: C_4  and  C_5
REMARK    5  A    between atoms: C_5  and  C_6
REMARK    6  A    between atoms: C_6  and  C_7
REMARK    7  A    between atoms: C_7  and  C_8
REMARK    8  A    between atoms: C_8  and  N_9
REMARK    9  A    between atoms: C_11  and  C_12
REMARK   10  A    between atoms: C_12  and  N_13
REMARK   11  A    between atoms: N_13  and  C_14
REMARK                            x       y       z     vdW  Elec       q    Type
REMARK                         _______ _______ _______ _____ _____    ______ ____
ROOT
ATOM      1  N   UNL     1       3.814   5.024  17.334  0.00  0.00    +0.000 N 
ATOM      2  C   UNL     1       3.679   6.334  17.707  0.00  0.00    +0.000 A 
ATOM      3  C   UNL     1       2.729   6.406  18.708  0.00  0.00    +0.000 A 
ATOM      4  C   UNL     1       2.264   5.073  18.937  0.00  0.00    +0.000 A 
ATOM      5  C   UNL     1       1.299   4.505  19.793  0.00  0.00    +0.000 A 
ATOM      6  F   UNL     1       0.575   5.272  20.621  0.00  0.00    +0.000 F 
ATOM      7  C   UNL     1       1.070   3.132  19.792  0.00  0.00    +0.000 A 
ATOM      8  C   UNL     1       1.782   2.308  18.930  0.00  0.00    +0.000 A 
ATOM      9  C   UNL     1       2.742   2.838  18.059  0.00  0.00    +0.000 A 
ATOM     10  C   UNL     1       2.970   4.225  18.074  0.00  0.00    +0.000 A 
ENDROOT
BRANCH   1  11
ATOM     11  C   UNL     1       4.727   4.576  16.293  0.00  0.00    +0.000 C 
BRANCH  11  12
ATOM     12  C   UNL     1       5.486   5.701  15.588  0.00  0.00    +0.000 C 
BRANCH  12  13
ATOM     13  C   UNL     1       6.586   5.195  14.653  0.00  0.00    +0.000 C 
BRANCH  13  14
ATOM     14  C   UNL     1       6.345   3.733  14.284  0.00  0.00    +0.000 C 
BRANCH  14  15
ATOM     15  C   UNL     1       6.162   3.571  12.777  0.00  0.00    +0.000 C 
BRANCH  15  16
ATOM     16  C   UNL     1       4.704   3.795  12.378  0.00  0.00    +0.000 C 
BRANCH  16  18
ATOM     17  C   UNL     1       3.297   3.614  10.304  0.00  0.00    +0.000 C 
ATOM     18  C   UNL     1       4.318   2.920  11.189  0.00  0.00    +0.000 C 
ENDBRANCH  16  18
ENDBRANCH  15  16
ENDBRANCH  14  15
ENDBRANCH  13  14
ENDBRANCH  12  13
ENDBRANCH  11  12
ENDBRANCH   1  11
BRANCH   3  19
ATOM     19  C   UNL     1       2.237   7.649  19.362  0.00  0.00    +0.000 C 
BRANCH  19  20
ATOM     20  N   UNL     1       1.633   8.516  18.354  0.00  0.00    +0.000 NA
ATOM     21  H   UNL     1       0.952   7.979  17.820  0.00  0.00    +0.000 HD
BRANCH  20  22
ATOM     22  C   UNL     1       1.026   9.740  18.891  0.00  0.00    +0.000 C 
ATOM     23  C   UNL     1       0.883   9.688  20.435  0.00  0.00    +0.000 C 
ATOM     24  C   UNL     1       0.267  10.991  20.968  0.00  0.00    +0.000 C 
ATOM     25  C   UNL     1       1.190  12.166  20.615  0.00  0.00    +0.000 C 
ATOM     26  C   UNL     1       1.359  12.259  19.090  0.00  0.00    +0.000 C 
ATOM     27  C   UNL     1      -0.018  12.489  18.449  0.00  0.00    +0.000 C 
ATOM     28  C   UNL     1      -0.955  11.322  18.785  0.00  0.00    +0.000 C 
ATOM     29  C   UNL     1      -1.107  11.199  20.310  0.00  0.00    +0.000 C 
ATOM     30  C   UNL     1      -0.353  10.021  18.242  0.00  0.00    +0.000 C 
ATOM     31  C   UNL     1       1.960  10.942  18.557  0.00  0.00    +0.000 C 
ENDBRANCH  20  22
ENDBRANCH  19  20
ENDBRANCH   3  19
TORSDOF 10
ENDMDL
MODEL 2
REMARK VINA RESULT:      -8.0      0.601      1.580
REMARK  Name = 
REMARK  11 active torsions:
REMARK  status: ('A' for Active; 'I' for Inactive)
REMARK    1  A    between atoms: C_1  and  C_2
REMARK    2  A    between atoms: C_2  and  C_3
REMARK    3  A    between atoms: C_3  and  C_4
REMARK    4  A    between atoms: C_4  and  C_5
REMARK    5  A    between atoms: C_5  and  C_6
REMARK    6  A    between atoms: C_6  and  C_7
REMARK    7  A    between atoms: C_7  and  C_8
REMARK    8  A    between atoms: C_8  and  N_9
REMARK    9  A    between atoms: C_11  and  C_12
REMARK   10  A    between atoms: C_12  and  N_13
REMARK   11  A    between atoms: N_13  and  C_14
REMARK                            x       y       z     vdW  Elec       q    Type
REMARK                         _______ _______ _______ _____ _____    ______ ____
ROOT
ATOM      1  N   UNL     1       4.419   4.886  17.501  0.00  0.00    +0.000 N 
ATOM      2  C   UNL     1       4.155   6.165  17.914  0.00  0.00    +0.000 A 
ATOM      3  C   UNL     1       3.022   6.141  18.704  0.00  0.00    +0.000 A 
ATOM      4  C   UNL     1       2.579   4.782  18.757  0.00  0.00    +0.000 A 
ATOM      5  C   UNL     1       1.489   4.129  19.366  0.00  0.00    +0.000 A 
ATOM      6  F   UNL     1       0.580   4.817  20.073  0.00  0.00    +0.000 F 
ATOM      7  C   UNL     1       1.325   2.752  19.240  0.00  0.00    +0.000 A 
ATOM      8  C   UNL     1       2.231   2.010  18.494  0.00  0.00    +0.000 A 
ATOM      9  C   UNL     1       3.321   2.625  17.867  0.00  0.00    +0.000 A 
ATOM     10  C   UNL     1       3.480   4.014  18.008  0.00  0.00    +0.000 A 
ENDROOT
BRANCH   1  11
ATOM     11  C   UNL     1       5.541   4.537  16.642  0.00  0.00    +0.000 C 
BRANCH  11  12
ATOM     12  C   UNL     1       5.162   4.245  15.189  0.00  0.00    +0.000 C 
BRANCH  12  13
ATOM     13  C   UNL     1       6.310   4.479  14.206  0.00  0.00    +0.000 C 
BRANCH  13  14
ATOM     14  C   UNL     1       6.141   3.602  12.967  0.00  0.00    +0.000 C 
BRANCH  14  15
ATOM     15  C   UNL     1       4.767   3.805  12.335  0.00  0.00    +0.000 C 
BRANCH  15  16
ATOM     16  C   UNL     1       4.598   2.918  11.102  0.00  0.00    +0.000 C 
BRANCH  16  18
ATOM     17  C   UNL     1       3.023   4.217   9.637  0.00  0.00    +0.000 C 
ATOM     18  C   UNL     1       3.180   3.011  10.547  0.00  0.00    +0.000 C 
ENDBRANCH  16  18
ENDBRANCH  15  16
ENDBRANCH  14  15
ENDBRANCH  13  14
ENDBRANCH  12  13
ENDBRANCH  11  12
ENDBRANCH   1  11
BRANCH   3  19
ATOM     19  C   UNL     1       2.354   7.323  19.315  0.00  0.00    +0.000 C 
BRANCH  19  20
ATOM     20  N   UNL     1       1.881   8.209  18.256  0.00  0.00    +0.000 NA
ATOM     21  H   UNL     1       1.246   7.693  17.651  0.00  0.00    +0.000 HD
BRANCH  20  22
ATOM     22  C   UNL     1       1.255   9.447  18.735  0.00  0.00    +0.000 C 
ATOM     23  C   UNL     1       2.110  10.698  18.400  0.00  0.00    +0.000 C 
ATOM     24  C   UNL     1       1.417  11.978  18.893  0.00  0.00    +0.000 C 
ATOM     25  C   UNL     1       0.064  12.123  18.183  0.00  0.00    +0.000 C 
ATOM     26  C   UNL     1      -0.822  10.905  18.489  0.00  0.00    +0.000 C 
ATOM     27  C   UNL     1      -1.053  10.826  20.007  0.00  0.00    +0.000 C 
ATOM     28  C   UNL     1       0.289  10.674  20.735  0.00  0.00    +0.000 C 
ATOM     29  C   UNL     1       1.195  11.873  20.411  0.00  0.00    +0.000 C 
ATOM     30  C   UNL     1       0.977   9.390  20.259  0.00  0.00    +0.000 C 
ATOM     31  C   UNL     1      -0.113   9.621  18.011  0.00  0.00    +0.000 C 
ENDBRANCH  20  22
ENDBRANCH  19  20
ENDBRANCH   3  19
TORSDOF 10
ENDMDL
MODEL 3
REMARK VINA RESULT:      -8.0      0.734      1.646
REMARK  Name = 
REMARK  11 active torsions:
REMARK  status: ('A' for Active; 'I' for Inactive)
REMARK    1  A    between atoms: C_1  and  C_2
REMARK    2  A    between atoms: C_2  and  C_3
REMARK    3  A    between atoms: C_3  and  C_4
REMARK    4  A    between atoms: C_4  and  C_5
REMARK    5  A    between atoms: C_5  and  C_6
REMARK    6  A    between atoms: C_6  and  C_7
REMARK    7  A    between atoms: C_7  and  C_8
REMARK    8  A    between atoms: C_8  and  N_9
REMARK    9  A    between atoms: C_11  and  C_12
REMARK   10  A    between atoms: C_12  and  N_13
REMARK   11  A    between atoms: N_13  and  C_14
REMARK                            x       y       z     vdW  Elec       q    Type
REMARK                         _______ _______ _______ _____ _____    ______ ____
ROOT
ATOM      1  N   UNL     1       4.656   5.679  17.051  0.00  0.00    +0.000 N 
ATOM      2  C   UNL     1       4.125   6.855  17.510  0.00  0.00    +0.000 A 
ATOM      3  C   UNL     1       3.022   6.560  18.288  0.00  0.00    +0.000 A 
ATOM      4  C   UNL     1       2.879   5.136  18.284  0.00  0.00    +0.000 A 
ATOM      5  C   UNL     1       1.951   4.243  18.857  0.00  0.00    +0.000 A 
ATOM      6  F   UNL     1       0.916   4.694  19.581  0.00  0.00    +0.000 F 
ATOM      7  C   UNL     1       2.084   2.869  18.676  0.00  0.00    +0.000 A 
ATOM      8  C   UNL     1       3.128   2.366  17.910  0.00  0.00    +0.000 A 
ATOM      9  C   UNL     1       4.063   3.224  17.318  0.00  0.00    +0.000 A 
ATOM     10  C   UNL     1       3.923   4.608  17.514  0.00  0.00    +0.000 A 
ENDROOT
BRANCH   1  11
ATOM     11  C   UNL     1       5.827   5.611  16.190  0.00  0.00    +0.000 C 
BRANCH  11  12
ATOM     12  C   UNL     1       5.534   5.181  14.752  0.00  0.00    +0.000 C 
BRANCH  12  13
ATOM     13  C   UNL     1       6.074   3.790  14.415  0.00  0.00    +0.000 C 
BRANCH  13  14
ATOM     14  C   UNL     1       6.523   3.727  12.957  0.00  0.00    +0.000 C 
BRANCH  14  15
ATOM     15  C   UNL     1       5.365   4.039  12.013  0.00  0.00    +0.000 C 
BRANCH  15  16
ATOM     16  C   UNL     1       4.806   2.757  11.395  0.00  0.00    +0.000 C 
BRANCH  16  18
ATOM     17  C   UNL     1       3.210   4.058   9.954  0.00  0.00    +0.000 C 
ATOM     18  C   UNL     1       3.351   2.939  10.972  0.00  0.00    +0.000 C 
ENDBRANCH  16  18
ENDBRANCH  15  16
ENDBRANCH  14  15
ENDBRANCH  13  14
ENDBRANCH  12  13
ENDBRANCH  11  12
ENDBRANCH   1  11
BRANCH   3  19
ATOM     19  C   UNL     1       2.118   7.547  18.938  0.00  0.00    +0.000 C 
BRANCH  19  20
ATOM     20  N   UNL     1       1.830   8.627  17.998  0.00  0.00    +0.000 NA
ATOM     21  H   UNL     1       1.266   8.259  17.234  0.00  0.00    +0.000 HD
BRANCH  20  22
ATOM     22  C   UNL     1       1.189   9.801  18.600  0.00  0.00    +0.000 C 
ATOM     23  C   UNL     1      -0.291   9.948  18.155  0.00  0.00    +0.000 C 
ATOM     24  C   UNL     1      -0.940  11.171  18.820  0.00  0.00    +0.000 C 
ATOM     25  C   UNL     1      -0.919  10.987  20.343  0.00  0.00    +0.000 C 
ATOM     26  C   UNL     1       0.531  10.841  20.833  0.00  0.00    +0.000 C 
ATOM     27  C   UNL     1       1.312  12.114  20.467  0.00  0.00    +0.000 C 
ATOM     28  C   UNL     1       1.307  12.313  18.945  0.00  0.00    +0.000 C 
ATOM     29  C   UNL     1      -0.141  12.429  18.440  0.00  0.00    +0.000 C 
ATOM     30  C   UNL     1       1.968  11.102  18.277  0.00  0.00    +0.000 C 
ATOM     31  C   UNL     1       1.185   9.624  20.148  0.00  0.00    +0.000 C 
ENDBRANCH  20  22
ENDBRANCH  19  20
ENDBRANCH   3  19
TORSDOF 10
ENDMDL
MODEL 4
REMARK VINA RESULT:      -7.9      4.218      7.730
REMARK  Name = 
REMARK  11 active torsions:
REMARK  status: ('A' for Active; 'I' for Inactive)
REMARK    1  A    between atoms: C_1  and  C_2
REMARK    2  A    between atoms: C_2  and  C_3
REMARK    3  A    between atoms: C_3  and  C_4
REMARK    4  A    between atoms: C_4  and  C_5
REMARK    5  A    between atoms: C_5  and  C_6
REMARK    6  A    between atoms: C_6  and  C_7
REMARK    7  A    between atoms: C_7  and  C_8
REMARK    8  A    between atoms: C_8  and  N_9
REMARK    9  A    between atoms: C_11  and  C_12
REMARK   10  A    between atoms: C_12  and  N_13
REMARK   11  A    between atoms: N_13  and  C_14
REMARK                            x       y       z     vdW  Elec       q    Type
REMARK                         _______ _______ _______ _____ _____    ______ ____
ROOT
ATOM      1  N   UNL     1       6.838   7.056  17.316  0.00  0.00    +0.000 N 
ATOM      2  C   UNL     1       5.697   7.476  17.946  0.00  0.00    +0.000 A 
ATOM      3  C   UNL     1       4.680   6.591  17.641  0.00  0.00    +0.000 A 
ATOM      4  C   UNL     1       5.238   5.598  16.776  0.00  0.00    +0.000 A 
ATOM      5  C   UNL     1       4.715   4.468  16.116  0.00  0.00    +0.000 A 
ATOM      6  F   UNL     1       3.418   4.143  16.227  0.00  0.00    +0.000 F 
ATOM      7  C   UNL     1       5.533   3.667  15.324  0.00  0.00    +0.000 A 
ATOM      8  C   UNL     1       6.875   3.987  15.164  0.00  0.00    +0.000 A 
ATOM      9  C   UNL     1       7.427   5.107  15.797  0.00  0.00    +0.000 A 
ATOM     10  C   UNL     1       6.593   5.904  16.600  0.00  0.00    +0.000 A 
ENDROOT
BRANCH   1  11
ATOM     11  C   UNL     1       8.109   7.757  17.407  0.00  0.00    +0.000 C 
BRANCH  11  12
ATOM     12  C   UNL     1       8.000   9.213  17.864  0.00  0.00    +0.000 C 
BRANCH  12  13
ATOM     13  C   UNL     1       8.972   9.567  18.991  0.00  0.00    +0.000 C 
BRANCH  13  14
ATOM     14  C   UNL     1       9.093  11.082  19.137  0.00  0.00    +0.000 C 
BRANCH  14  15
ATOM     15  C   UNL     1       9.462  11.734  17.807  0.00  0.00    +0.000 C 
BRANCH  15  16
ATOM     16  C   UNL     1      10.558  12.782  18.000  0.00  0.00    +0.000 C 
BRANCH  16  18
ATOM     17  C   UNL     1      12.333  11.631  19.358  0.00  0.00    +0.000 C 
ATOM     18  C   UNL     1      11.208  12.652  19.375  0.00  0.00    +0.000 C 
ENDBRANCH  16  18
ENDBRANCH  15  16
ENDBRANCH  14  15
ENDBRANCH  13  14
ENDBRANCH  12  13
ENDBRANCH  11  12
ENDBRANCH   1  11
BRANCH   3  19
ATOM     19  C   UNL     1       3.261   6.704  18.076  0.00  0.00    +0.000 C 
BRANCH  19  20
ATOM     20  N   UNL     1       3.155   6.310  19.478  0.00  0.00    +0.000 NA
ATOM     21  H   UNL     1       2.552   6.972  19.963  0.00  0.00    +0.000 HD
BRANCH  20  22
ATOM     22  C   UNL     1       2.693   4.933  19.689  0.00  0.00    +0.000 C 
ATOM     23  C   UNL     1       1.795   4.437  18.524  0.00  0.00    +0.000 C 
ATOM     24  C   UNL     1       1.348   2.987  18.762  0.00  0.00    +0.000 C 
ATOM     25  C   UNL     1       2.586   2.082  18.827  0.00  0.00    +0.000 C 
ATOM     26  C   UNL     1       3.505   2.534  19.973  0.00  0.00    +0.000 C 
ATOM     27  C   UNL     1       2.736   2.433  21.299  0.00  0.00    +0.000 C 
ATOM     28  C   UNL     1       1.496   3.337  21.257  0.00  0.00    +0.000 C 
ATOM     29  C   UNL     1       0.583   2.913  20.094  0.00  0.00    +0.000 C 
ATOM     30  C   UNL     1       1.938   4.788  21.035  0.00  0.00    +0.000 C 
ATOM     31  C   UNL     1       3.936   3.997  19.740  0.00  0.00    +0.000 C 
ENDBRANCH  20  22
ENDBRANCH  19  20
ENDBRANCH   3  19
TORSDOF 10
ENDMDL
MODEL 5
REMARK VINA RESULT:      -7.9      3.968      7.889
REMARK  Name = 
REMARK  11 active torsions:
REMARK  status: ('A' for Active; 'I' for Inactive)
REMARK    1  A    between atoms: C_1  and  C_2
REMARK    2  A    between atoms: C_2  and  C_3
REMARK    3  A    between atoms: C_3  and  C_4
REMARK    4  A    between atoms: C_4  and  C_5
REMARK    5  A    between atoms: C_5  and  C_6
REMARK    6  A    between atoms: C_6  and  C_7
REMARK    7  A    between atoms: C_7  and  C_8
REMARK    8  A    between atoms: C_8  and  N_9
REMARK    9  A    between atoms: C_11  and  C_12
REMARK   10  A    between atoms: C_12  and  N_13
REMARK   11  A    between atoms: N_13  and  C_14
REMARK                            x       y       z     vdW  Elec       q    Type
REMARK                         _______ _______ _______ _____ _____    ______ ____
ROOT
ATOM      1  N   UNL     1       6.711   7.100  17.236  0.00  0.00    +0.000 N 
ATOM      2  C   UNL     1       5.534   7.502  17.808  0.00  0.00    +0.000 A 
ATOM      3  C   UNL     1       4.563   6.564  17.512  0.00  0.00    +0.000 A 
ATOM      4  C   UNL     1       5.189   5.556  16.713  0.00  0.00    +0.000 A 
ATOM      5  C   UNL     1       4.733   4.376  16.090  0.00  0.00    +0.000 A 
ATOM      6  F   UNL     1       3.447   4.005  16.173  0.00  0.00    +0.000 F 
ATOM      7  C   UNL     1       5.608   3.573  15.365  0.00  0.00    +0.000 A 
ATOM      8  C   UNL     1       6.942   3.939  15.235  0.00  0.00    +0.000 A 
ATOM      9  C   UNL     1       7.428   5.108  15.832  0.00  0.00    +0.000 A 
ATOM     10  C   UNL     1       6.537   5.907  16.568  0.00  0.00    +0.000 A 
ENDROOT
BRANCH   1  11
ATOM     11  C   UNL     1       7.951   7.855  17.337  0.00  0.00    +0.000 C 
BRANCH  11  12
ATOM     12  C   UNL     1       7.782   9.288  17.844  0.00  0.00    +0.000 C 
BRANCH  12  13
ATOM     13  C   UNL     1       8.930   9.750  18.742  0.00  0.00    +0.000 C 
BRANCH  13  14
ATOM     14  C   UNL     1       9.635  10.960  18.132  0.00  0.00    +0.000 C 
BRANCH  14  15
ATOM     15  C   UNL     1       9.833  12.060  19.171  0.00  0.00    +0.000 C 
BRANCH  15  16
ATOM     16  C   UNL     1       9.325  11.614  20.541  0.00  0.00    +0.000 C 
BRANCH  16  18
ATOM     17  C   UNL     1       9.063  13.831  21.696  0.00  0.00    +0.000 C 
ATOM     18  C   UNL     1       9.844  12.529  21.647  0.00  0.00    +0.000 C 
ENDBRANCH  16  18
ENDBRANCH  15  16
ENDBRANCH  14  15
ENDBRANCH  13  14
ENDBRANCH  12  13
ENDBRANCH  11  12
ENDBRANCH   1  11
BRANCH   3  19
ATOM     19  C   UNL     1       3.126   6.639  17.893  0.00  0.00    +0.000 C 
BRANCH  19  20
ATOM     20  N   UNL     1       2.988   6.320  19.311  0.00  0.00    +0.000 NA
ATOM     21  H   UNL     1       2.342   6.981  19.738  0.00  0.00    +0.000 HD
BRANCH  20  22
ATOM     22  C   UNL     1       2.575   4.938  19.585  0.00  0.00    +0.000 C 
ATOM     23  C   UNL     1       1.726   4.346  18.429  0.00  0.00    +0.000 C 
ATOM     24  C   UNL     1       1.330   2.894  18.734  0.00  0.00    +0.000 C 
ATOM     25  C   UNL     1       2.601   2.044  18.874  0.00  0.00    +0.000 C 
ATOM     26  C   UNL     1       3.475   2.592  20.014  0.00  0.00    +0.000 C 
ATOM     27  C   UNL     1       2.679   2.530  21.327  0.00  0.00    +0.000 C 
ATOM     28  C   UNL     1       1.406   3.379  21.210  0.00  0.00    +0.000 C 
ATOM     29  C   UNL     1       0.538   2.858  20.052  0.00  0.00    +0.000 C 
ATOM     30  C   UNL     1       1.796   4.833  20.920  0.00  0.00    +0.000 C 
ATOM     31  C   UNL     1       3.853   4.057  19.712  0.00  0.00    +0.000 C 
ENDBRANCH  20  22
ENDBRANCH  19  20
ENDBRANCH   3  19
TORSDOF 10
ENDMDL
MODEL 6
REMARK VINA RESULT:      -7.9      3.982      7.865
REMARK  Name = 
REMARK  11 active torsions:
REMARK  status: ('A' for Active; 'I' for Inactive)
REMARK    1  A    between atoms: C_1  and  C_2
REMARK    2  A    between atoms: C_2  and  C_3
REMARK    3  A    between atoms: C_3  and  C_4
REMARK    4  A    between atoms: C_4  and  C_5
REMARK    5  A    between atoms: C_5  and  C_6
REMARK    6  A    between atoms: C_6  and  C_7
REMARK    7  A    between atoms: C_7  and  C_8
REMARK    8  A    between atoms: C_8  and  N_9
REMARK    9  A    between atoms: C_11  and  C_12
REMARK   10  A    between atoms: C_12  and  N_13
REMARK   11  A    between atoms: N_13  and  C_14
REMARK                            x       y       z     vdW  Elec       q    Type
REMARK                         _______ _______ _______ _____ _____    ______ ____
ROOT
ATOM      1  N   UNL     1       6.738   7.079  17.280  0.00  0.00    +0.000 N 
ATOM      2  C   UNL     1       5.568   7.498  17.855  0.00  0.00    +0.000 A 
ATOM      3  C   UNL     1       4.579   6.585  17.542  0.00  0.00    +0.000 A 
ATOM      4  C   UNL     1       5.185   5.576  16.729  0.00  0.00    +0.000 A 
ATOM      5  C   UNL     1       4.706   4.416  16.087  0.00  0.00    +0.000 A 
ATOM      6  F   UNL     1       3.413   4.070  16.161  0.00  0.00    +0.000 F 
ATOM      7  C   UNL     1       5.567   3.606  15.351  0.00  0.00    +0.000 A 
ATOM      8  C   UNL     1       6.908   3.946  15.230  0.00  0.00    +0.000 A 
ATOM      9  C   UNL     1       7.417   5.095  15.846  0.00  0.00    +0.000 A 
ATOM     10  C   UNL     1       6.540   5.901  16.593  0.00  0.00    +0.000 A 
ENDROOT
BRANCH   1  11
ATOM     11  C   UNL     1       7.993   7.807  17.395  0.00  0.00    +0.000 C 
BRANCH  11  12
ATOM     12  C   UNL     1       7.844   9.263  17.836  0.00  0.00    +0.000 C 
BRANCH  12  13
ATOM     13  C   UNL     1       8.950   9.724  18.786  0.00  0.00    +0.000 C 
BRANCH  13  14
ATOM     14  C   UNL     1       9.628  10.983  18.251  0.00  0.00    +0.000 C 
BRANCH  14  15
ATOM     15  C   UNL     1       9.283  12.198  19.109  0.00  0.00    +0.000 C 
BRANCH  15  16
ATOM     16  C   UNL     1      10.461  12.587  20.001  0.00  0.00    +0.000 C 
BRANCH  16  18
ATOM     17  C   UNL     1       8.496  13.251  21.421  0.00  0.00    +0.000 C 
ATOM     18  C   UNL     1       9.989  12.967  21.402  0.00  0.00    +0.000 C 
ENDBRANCH  16  18
ENDBRANCH  15  16
ENDBRANCH  14  15
ENDBRANCH  13  14
ENDBRANCH  12  13
ENDBRANCH  11  12
ENDBRANCH   1  11
BRANCH   3  19
ATOM     19  C   UNL     1       3.143   6.684  17.921  0.00  0.00    +0.000 C 
BRANCH  19  20
ATOM     20  N   UNL     1       2.991   6.325  19.328  0.00  0.00    +0.000 NA
ATOM     21  H   UNL     1       2.312   6.950  19.758  0.00  0.00    +0.000 HD
BRANCH  20  22
ATOM     22  C   UNL     1       2.628   4.922  19.561  0.00  0.00    +0.000 C 
ATOM     23  C   UNL     1       3.879   4.017  19.717  0.00  0.00    +0.000 C 
ATOM     24  C   UNL     1       3.467   2.561  19.983  0.00  0.00    +0.000 C 
ATOM     25  C   UNL     1       2.665   2.494  21.290  0.00  0.00    +0.000 C 
ATOM     26  C   UNL     1       1.411   3.375  21.181  0.00  0.00    +0.000 C 
ATOM     27  C   UNL     1       0.537   2.858  20.027  0.00  0.00    +0.000 C 
ATOM     28  C   UNL     1       1.319   2.922  18.708  0.00  0.00    +0.000 C 
ATOM     29  C   UNL     1       2.593   2.068  18.816  0.00  0.00    +0.000 C 
ATOM     30  C   UNL     1       1.719   4.376  18.430  0.00  0.00    +0.000 C 
ATOM     31  C   UNL     1       1.829   4.833  20.895  0.00  0.00    +0.000 C 
ENDBRANCH  20  22
ENDBRANCH  19  20
ENDBRANCH   3  19
TORSDOF 10
ENDMDL
MODEL 7
REMARK VINA RESULT:      -7.8      1.056      1.813
REMARK  Name = 
REMARK  11 active torsions:
REMARK  status: ('A' for Active; 'I' for Inactive)
REMARK    1  A    between atoms: C_1  and  C_2
REMARK    2  A    between atoms: C_2  and  C_3
REMARK    3  A    between atoms: C_3  and  C_4
REMARK    4  A    between atoms: C_4  and  C_5
REMARK    5  A    between atoms: C_5  and  C_6
REMARK    6  A    between atoms: C_6  and  C_7
REMARK    7  A    between atoms: C_7  and  C_8
REMARK    8  A    between atoms: C_8  and  N_9
REMARK    9  A    between atoms: C_11  and  C_12
REMARK   10  A    between atoms: C_12  and  N_13
REMARK   11  A    between atoms: N_13  and  C_14
REMARK                            x       y       z     vdW  Elec       q    Type
REMARK                         _______ _______ _______ _____ _____    ______ ____
ROOT
ATOM      1  N   UNL     1       4.651   6.217  17.756  0.00  0.00    +0.000 N 
ATOM      2  C   UNL     1       3.865   7.324  17.937  0.00  0.00    +0.000 A 
ATOM      3  C   UNL     1       2.901   7.024  18.881  0.00  0.00    +0.000 A 
ATOM      4  C   UNL     1       3.113   5.665  19.275  0.00  0.00    +0.000 A 
ATOM      5  C   UNL     1       2.458   4.789  20.163  0.00  0.00    +0.000 A 
ATOM      6  F   UNL     1       1.374   5.184  20.848  0.00  0.00    +0.000 F 
ATOM      7  C   UNL     1       2.918   3.488  20.345  0.00  0.00    +0.000 A 
ATOM      8  C   UNL     1       4.022   3.035  19.634  0.00  0.00    +0.000 A 
ATOM      9  C   UNL     1       4.692   3.874  18.735  0.00  0.00    +0.000 A 
ATOM     10  C   UNL     1       4.223   5.188  18.567  0.00  0.00    +0.000 A 
ENDROOT
BRANCH   1  11
ATOM     11  C   UNL     1       5.767   6.170  16.824  0.00  0.00    +0.000 C 
BRANCH  11  12
ATOM     12  C   UNL     1       5.372   5.881  15.375  0.00  0.00    +0.000 C 
BRANCH  12  13
ATOM     13  C   UNL     1       5.177   4.392  15.087  0.00  0.00    +0.000 C 
BRANCH  13  14
ATOM     14  C   UNL     1       6.408   3.814  14.392  0.00  0.00    +0.000 C 
BRANCH  14  15
ATOM     15  C   UNL     1       6.592   4.425  13.005  0.00  0.00    +0.000 C 
BRANCH  15  16
ATOM     16  C   UNL     1       6.693   3.335  11.939  0.00  0.00    +0.000 C 
BRANCH  16  18
ATOM     17  C   UNL     1       4.242   3.363  11.382  0.00  0.00    +0.000 C 
ATOM     18  C   UNL     1       5.407   2.516  11.865  0.00  0.00    +0.000 C 
ENDBRANCH  16  18
ENDBRANCH  15  16
ENDBRANCH  14  15
ENDBRANCH  13  14
ENDBRANCH  12  13
ENDBRANCH  11  12
ENDBRANCH   1  11
BRANCH   3  19
ATOM     19  C   UNL     1       1.809   7.927  19.336  0.00  0.00    +0.000 C 
BRANCH  19  20
ATOM     20  N   UNL     1       1.562   8.938  18.311  0.00  0.00    +0.000 NA
ATOM     21  H   UNL     1       1.020   8.520  17.558  0.00  0.00    +0.000 HD
BRANCH  20  22
ATOM     22  C   UNL     1       0.913  10.157  18.806  0.00  0.00    +0.000 C 
ATOM     23  C   UNL     1      -0.528  10.314  18.251  0.00  0.00    +0.000 C 
ATOM     24  C   UNL     1      -1.188  11.586  18.804  0.00  0.00    +0.000 C 
ATOM     25  C   UNL     1      -1.276  11.484  20.333  0.00  0.00    +0.000 C 
ATOM     26  C   UNL     1       0.132  11.331  20.930  0.00  0.00    +0.000 C 
ATOM     27  C   UNL     1       0.970  12.563  20.553  0.00  0.00    +0.000 C 
ATOM     28  C   UNL     1       1.075  12.680  19.027  0.00  0.00    +0.000 C 
ATOM     29  C   UNL     1      -0.331  12.803  18.416  0.00  0.00    +0.000 C 
ATOM     30  C   UNL     1       1.748  11.420  18.471  0.00  0.00    +0.000 C 
ATOM     31  C   UNL     1       0.799  10.063  20.356  0.00  0.00    +0.000 C 
ENDBRANCH  20  22
ENDBRANCH  19  20
ENDBRANCH   3  19
TORSDOF 10
ENDMDL
MODEL 8
REMARK VINA RESULT:      -7.7      1.768      3.538
REMARK  Name = 
REMARK  11 active torsions:
REMARK  status: ('A' for Active; 'I' for Inactive)
REMARK    1  A    between atoms: C_1  and  C_2
REMARK    2  A    between atoms: C_2  and  C_3
REMARK    3  A    between atoms: C_3  and  C_4
REMARK    4  A    between atoms: C_4  and  C_5
REMARK    5  A    between atoms: C_5  and  C_6
REMARK    6  A    between atoms: C_6  and  C_7
REMARK    7  A    between atoms: C_7  and  C_8
REMARK    8  A    between atoms: C_8  and  N_9
REMARK    9  A    between atoms: C_11  and  C_12
REMARK   10  A    between atoms: C_12  and  N_13
REMARK   11  A    between atoms: N_13  and  C_14
REMARK                            x       y       z     vdW  Elec       q    Type
REMARK                         _______ _______ _______ _____ _____    ______ ____
ROOT
ATOM      1  N   UNL     1       3.585   4.726  17.512  0.00  0.00    +0.000 N 
ATOM      2  C   UNL     1       3.672   6.092  17.542  0.00  0.00    +0.000 A 
ATOM      3  C   UNL     1       2.898   6.554  18.589  0.00  0.00    +0.000 A 
ATOM      4  C   UNL     1       2.309   5.407  19.209  0.00  0.00    +0.000 A 
ATOM      5  C   UNL     1       1.419   5.224  20.287  0.00  0.00    +0.000 A 
ATOM      6  F   UNL     1       0.927   6.274  20.962  0.00  0.00    +0.000 F 
ATOM      7  C   UNL     1       1.022   3.946  20.671  0.00  0.00    +0.000 A 
ATOM      8  C   UNL     1       1.490   2.836  19.979  0.00  0.00    +0.000 A 
ATOM      9  C   UNL     1       2.368   2.980  18.898  0.00  0.00    +0.000 A 
ATOM     10  C   UNL     1       2.767   4.275  18.525  0.00  0.00    +0.000 A 
ENDROOT
BRANCH   1  11
ATOM     11  C   UNL     1       4.270   3.901  16.528  0.00  0.00    +0.000 C 
BRANCH  11  12
ATOM     12  C   UNL     1       5.297   4.648  15.677  0.00  0.00    +0.000 C 
BRANCH  12  13
ATOM     13  C   UNL     1       6.743   4.272  16.007  0.00  0.00    +0.000 C 
BRANCH  13  14
ATOM     14  C   UNL     1       7.525   5.501  16.466  0.00  0.00    +0.000 C 
BRANCH  14  15
ATOM     15  C   UNL     1       7.175   5.868  17.905  0.00  0.00    +0.000 C 
BRANCH  15  16
ATOM     16  C   UNL     1       8.043   7.025  18.399  0.00  0.00    +0.000 C 
BRANCH  16  18
ATOM     17  C   UNL     1       8.486   9.492  18.222  0.00  0.00    +0.000 C 
ATOM     18  C   UNL     1       7.729   8.311  17.639  0.00  0.00    +0.000 C 
ENDBRANCH  16  18
ENDBRANCH  15  16
ENDBRANCH  14  15
ENDBRANCH  13  14
ENDBRANCH  12  13
ENDBRANCH  11  12
ENDBRANCH   1  11
BRANCH   3  19
ATOM     19  C   UNL     1       2.668   7.981  18.947  0.00  0.00    +0.000 C 
BRANCH  19  20
ATOM     20  N   UNL     1       1.529   8.489  18.187  0.00  0.00    +0.000 NA
ATOM     21  H   UNL     1       0.821   7.761  18.124  0.00  0.00    +0.000 HD
BRANCH  20  22
ATOM     22  C   UNL     1       0.954   9.732  18.714  0.00  0.00    +0.000 C 
ATOM     23  C   UNL     1      -0.453  10.017  18.124  0.00  0.00    +0.000 C 
ATOM     24  C   UNL     1      -1.038  11.309  18.712  0.00  0.00    +0.000 C 
ATOM     25  C   UNL     1      -1.183  11.151  20.232  0.00  0.00    +0.000 C 
ATOM     26  C   UNL     1       0.191  10.871  20.863  0.00  0.00    +0.000 C 
ATOM     27  C   UNL     1       1.126  12.054  20.565  0.00  0.00    +0.000 C 
ATOM     28  C   UNL     1       1.289  12.225  19.049  0.00  0.00    +0.000 C 
ATOM     29  C   UNL     1      -0.084  12.475  18.403  0.00  0.00    +0.000 C 
ATOM     30  C   UNL     1       1.888  10.943  18.459  0.00  0.00    +0.000 C 
ATOM     31  C   UNL     1       0.783   9.583  20.255  0.00  0.00    +0.000 C 
ENDBRANCH  20  22
ENDBRANCH  19  20
ENDBRANCH   3  19
TORSDOF 10
ENDMDL
MODEL 9
REMARK VINA RESULT:      -7.7      4.015      7.580
REMARK  Name = 
REMARK  11 active torsions:
REMARK  status: ('A' for Active; 'I' for Inactive)
REMARK    1  A    between atoms: C_1  and  C_2
REMARK    2  A    between atoms: C_2  and  C_3
REMARK    3  A    between atoms: C_3  and  C_4
REMARK    4  A    between atoms: C_4  and  C_5
REMARK    5  A    between atoms: C_5  and  C_6
REMARK    6  A    between atoms: C_6  and  C_7
REMARK    7  A    between atoms: C_7  and  C_8
REMARK    8  A    between atoms: C_8  and  N_9
REMARK    9  A    between atoms: C_11  and  C_12
REMARK   10  A    between atoms: C_12  and  N_13
REMARK   11  A    between atoms: N_13  and  C_14
REMARK                            x       y       z     vdW  Elec       q    Type
REMARK                         _______ _______ _______ _____ _____    ______ ____
ROOT
ATOM      1  N   UNL     1       6.478   7.395  17.203  0.00  0.00    +0.000 N 
ATOM      2  C   UNL     1       5.258   7.708  17.739  0.00  0.00    +0.000 A 
ATOM      3  C   UNL     1       4.397   6.652  17.509  0.00  0.00    +0.000 A 
ATOM      4  C   UNL     1       5.136   5.662  16.788  0.00  0.00    +0.000 A 
ATOM      5  C   UNL     1       4.817   4.399  16.250  0.00  0.00    +0.000 A 
ATOM      6  F   UNL     1       3.577   3.898  16.356  0.00  0.00    +0.000 F 
ATOM      7  C   UNL     1       5.782   3.645  15.588  0.00  0.00    +0.000 A 
ATOM      8  C   UNL     1       7.070   4.143  15.436  0.00  0.00    +0.000 A 
ATOM      9  C   UNL     1       7.421   5.397  15.949  0.00  0.00    +0.000 A 
ATOM     10  C   UNL     1       6.440   6.146  16.622  0.00  0.00    +0.000 A 
ENDROOT
BRANCH   1  11
ATOM     11  C   UNL     1       7.628   8.285  17.252  0.00  0.00    +0.000 C 
BRANCH  11  12
ATOM     12  C   UNL     1       8.262   8.426  18.637  0.00  0.00    +0.000 C 
BRANCH  12  13
ATOM     13  C   UNL     1       9.332   9.517  18.704  0.00  0.00    +0.000 C 
BRANCH  13  14
ATOM     14  C   UNL     1       9.072  10.451  19.883  0.00  0.00    +0.000 C 
BRANCH  14  15
ATOM     15  C   UNL     1       9.297  11.908  19.489  0.00  0.00    +0.000 C 
BRANCH  15  16
ATOM     16  C   UNL     1       9.211  12.082  17.973  0.00  0.00    +0.000 C 
BRANCH  16  18
ATOM     17  C   UNL     1      11.720  12.156  17.846  0.00  0.00    +0.000 C 
ATOM     18  C   UNL     1      10.425  12.835  17.435  0.00  0.00    +0.000 C 
ENDBRANCH  16  18
ENDBRANCH  15  16
ENDBRANCH  14  15
ENDBRANCH  13  14
ENDBRANCH  12  13
ENDBRANCH  11  12
ENDBRANCH   1  11
BRANCH   3  19
ATOM     19  C   UNL     1       2.956   6.598  17.879  0.00  0.00    +0.000 C 
BRANCH  19  20
ATOM     20  N   UNL     1       2.836   6.300  19.303  0.00  0.00    +0.000 NA
ATOM     21  H   UNL     1       2.143   6.922  19.715  0.00  0.00    +0.000 HD
BRANCH  20  22
ATOM     22  C   UNL     1       2.523   4.898  19.605  0.00  0.00    +0.000 C 
ATOM     23  C   UNL     1       1.635   4.761  20.871  0.00  0.00    +0.000 C 
ATOM     24  C   UNL     1       1.306   3.287  21.147  0.00  0.00    +0.000 C 
ATOM     25  C   UNL     1       0.527   2.712  19.955  0.00  0.00    +0.000 C 
ATOM     26  C   UNL     1       1.372   2.823  18.675  0.00  0.00    +0.000 C 
ATOM     27  C   UNL     1       2.670   2.022  18.864  0.00  0.00    +0.000 C 
ATOM     28  C   UNL     1       3.467   2.585  20.049  0.00  0.00    +0.000 C 
ATOM     29  C   UNL     1       2.619   2.507  21.329  0.00  0.00    +0.000 C 
ATOM     30  C   UNL     1       3.812   4.052  19.771  0.00  0.00    +0.000 C 
ATOM     31  C   UNL     1       1.717   4.304  18.413  0.00  0.00    +0.000 C 
ENDBRANCH  20  22
ENDBRANCH  19  20
ENDBRANCH   3  19
TORSDOF 10
ENDMDL
