MODEL 1
REMARK VINA RESULT:      -8.8      0.000      0.000
REMARK  Name = 
REMARK  4 active torsions:
REMARK  status: ('A' for Active; 'I' for Inactive)
REMARK    1  A    between atoms: C_1  and  C_2
REMARK    2  A    between atoms: C_7  and  C_8
REMARK    3  A    between atoms: N_16  and  C_17
REMARK    4  A    between atoms: C_17  and  C_18
REMARK                            x       y       z     vdW  Elec       q    Type
REMARK                         _______ _______ _______ _____ _____    ______ ____
ROOT
ATOM      1  C   UNL     1       3.915   6.762  17.570  0.00  0.00    +0.000 A 
ATOM      2  N   UNL     1       3.337   7.833  17.043  0.00  0.00    +0.000 NA
ATOM      3  C   UNL     1       2.472   8.332  17.986  0.00  0.00    +0.000 A 
ATOM      4  C   UNL     1       1.562   9.397  17.902  0.00  0.00    +0.000 A 
ATOM      5  C   UNL     1       0.754   9.690  19.012  0.00  0.00    +0.000 A 
ATOM      6  C   UNL     1       0.878   8.963  20.195  0.00  0.00    +0.000 A 
ATOM      7  C   UNL     1       1.796   7.915  20.302  0.00  0.00    +0.000 A 
ATOM      8  C   UNL     1       2.558   7.609  19.163  0.00  0.00    +0.000 A 
ATOM      9  N   UNL     1       3.423   6.572  18.861  0.00  0.00    +0.000 N 
ENDROOT
BRANCH   1  16
ATOM     10  C   UNL     1       6.875   7.416  17.564  0.00  0.00    +0.000 C 
ATOM     11  C   UNL     1       6.299   6.217  16.859  0.00  0.00    +0.000 A 
ATOM     12  C   UNL     1       7.195   5.397  16.137  0.00  0.00    +0.000 A 
ATOM     13  C   UNL     1       6.753   4.280  15.438  0.00  0.00    +0.000 A 
ATOM     14  C   UNL     1       5.400   3.989  15.411  0.00  0.00    +0.000 A 
ATOM     15  C   UNL     1       4.502   4.825  16.077  0.00  0.00    +0.000 A 
ATOM     16  C   UNL     1       4.914   5.924  16.852  0.00  0.00    +0.000 A 
ENDBRANCH   1  16
BRANCH   9  17
ATOM     17  C   UNL     1       3.712   5.490  19.797  0.00  0.00    +0.000 C 
BRANCH  17  18
ATOM     18  C   UNL     1       2.922   4.222  19.556  0.00  0.00    +0.000 A 
ATOM     19  C   UNL     1       3.589   3.122  19.006  0.00  0.00    +0.000 A 
ATOM     20  F   UNL     1       4.890   3.223  18.696  0.00  0.00    +0.000 F 
ATOM     21  C   UNL     1       2.936   1.924  18.724  0.00  0.00    +0.000 A 
ATOM     22  C   UNL     1       1.583   1.793  19.012  0.00  0.00    +0.000 A 
ATOM     23  C   UNL     1       0.898   2.857  19.582  0.00  0.00    +0.000 A 
ATOM     24  C   UNL     1       1.565   4.049  19.850  0.00  0.00    +0.000 A 
ATOM     25  F   UNL     1       0.838   5.031  20.389  0.00  0.00    +0.000 F 
ENDBRANCH  17  18
ENDBRANCH   9  17
TORSDOF 3
ENDMDL
MODEL 2
REMARK VINA RESULT:      -8.5      0.568      1.716
REMARK  Name = 
REMARK  4 active torsions:
REMARK  status: ('A' for Active; 'I' for Inactive)
REMARK    1  A    between atoms: C_1  and  C_2
REMARK    2  A    between atoms: C_7  and  C_8
REMARK    3  A    between atoms: N_16  and  C_17
REMARK    4  A    between atoms: C_17  and  C_18
REMARK                            x       y       z     vdW  Elec       q    Type
REMARK                         _______ _______ _______ _____ _____    ______ ____
ROOT
ATOM      1  C   UNL     1       4.102   6.603  17.563  0.00  0.00    +0.000 A 
ATOM      2  N   UNL     1       3.643   7.739  17.054  0.00  0.00    +0.000 NA
ATOM      3  C   UNL     1       2.747   8.256  17.956  0.00  0.00    +0.000 A 
ATOM      4  C   UNL     1       1.924   9.389  17.862  0.00  0.00    +0.000 A 
ATOM      5  C   UNL     1       1.057   9.689  18.925  0.00  0.00    +0.000 A 
ATOM      6  C   UNL     1       1.037   8.899  20.073  0.00  0.00    +0.000 A 
ATOM      7  C   UNL     1       1.866   7.781  20.191  0.00  0.00    +0.000 A 
ATOM      8  C   UNL     1       2.690   7.473  19.096  0.00  0.00    +0.000 A 
ATOM      9  N   UNL     1       3.500   6.389  18.803  0.00  0.00    +0.000 N 
ENDROOT
BRANCH   1  16
ATOM     10  C   UNL     1       6.930   6.236  18.590  0.00  0.00    +0.000 C 
ATOM     11  C   UNL     1       6.407   5.541  17.360  0.00  0.00    +0.000 A 
ATOM     12  C   UNL     1       7.308   4.716  16.649  0.00  0.00    +0.000 A 
ATOM     13  C   UNL     1       6.922   4.051  15.492  0.00  0.00    +0.000 A 
ATOM     14  C   UNL     1       5.642   4.235  15.000  0.00  0.00    +0.000 A 
ATOM     15  C   UNL     1       4.763   5.090  15.666  0.00  0.00    +0.000 A 
ATOM     16  C   UNL     1       5.090   5.728  16.877  0.00  0.00    +0.000 A 
ENDBRANCH   1  16
BRANCH   9  17
ATOM     17  C   UNL     1       3.637   5.245  19.698  0.00  0.00    +0.000 C 
BRANCH  17  18
ATOM     18  C   UNL     1       2.764   4.062  19.345  0.00  0.00    +0.000 A 
ATOM     19  C   UNL     1       1.466   4.019  19.866  0.00  0.00    +0.000 A 
ATOM     20  F   UNL     1       1.041   5.005  20.668  0.00  0.00    +0.000 F 
ATOM     21  C   UNL     1       0.601   2.954  19.617  0.00  0.00    +0.000 A 
ATOM     22  C   UNL     1       1.018   1.904  18.808  0.00  0.00    +0.000 A 
ATOM     23  C   UNL     1       2.290   1.929  18.254  0.00  0.00    +0.000 A 
ATOM     24  C   UNL     1       3.143   2.997  18.520  0.00  0.00    +0.000 A 
ATOM     25  F   UNL     1       4.355   2.946  17.961  0.00  0.00    +0.000 F 
ENDBRANCH  17  18
ENDBRANCH   9  17
TORSDOF 3
ENDMDL
MODEL 3
REMARK VINA RESULT:      -7.8      0.637      1.502
REMARK  Name = 
REMARK  4 active torsions:
REMARK  status: ('A' for Active; 'I' for Inactive)
REMARK    1  A    between atoms: C_1  and  C_2
REMARK    2  A    between atoms: C_7  and  C_8
REMARK    3  A    between atoms: N_16  and  C_17
REMARK    4  A    between atoms: C_17  and  C_18
REMARK                            x       y       z     vdW  Elec       q    Type
REMARK                         _______ _______ _______ _____ _____    ______ ____
ROOT
ATOM      1  C   UNL     1       3.680   6.792  18.030  0.00  0.00    +0.000 A 
ATOM      2  N   UNL     1       3.112   7.842  17.452  0.00  0.00    +0.000 NA
ATOM      3  C   UNL     1       2.206   8.356  18.346  0.00  0.00    +0.000 A 
ATOM      4  C   UNL     1       1.289   9.408  18.198  0.00  0.00    +0.000 A 
ATOM      5  C   UNL     1       0.435   9.722  19.267  0.00  0.00    +0.000 A 
ATOM      6  C   UNL     1       0.520   9.029  20.474  0.00  0.00    +0.000 A 
ATOM      7  C   UNL     1       1.444   7.994  20.645  0.00  0.00    +0.000 A 
ATOM      8  C   UNL     1       2.253   7.666  19.545  0.00  0.00    +0.000 A 
ATOM      9  N   UNL     1       3.140   6.631  19.305  0.00  0.00    +0.000 N 
ENDROOT
BRANCH   1  16
ATOM     10  C   UNL     1       2.996   4.202  16.610  0.00  0.00    +0.000 C 
ATOM     11  C   UNL     1       4.399   4.745  16.697  0.00  0.00    +0.000 A 
ATOM     12  C   UNL     1       5.430   3.972  16.116  0.00  0.00    +0.000 A 
ATOM     13  C   UNL     1       6.758   4.381  16.164  0.00  0.00    +0.000 A 
ATOM     14  C   UNL     1       7.083   5.547  16.834  0.00  0.00    +0.000 A 
ATOM     15  C   UNL     1       6.077   6.288  17.458  0.00  0.00    +0.000 A 
ATOM     16  C   UNL     1       4.715   5.947  17.374  0.00  0.00    +0.000 A 
ENDBRANCH   1  16
BRANCH   9  17
ATOM     17  C   UNL     1       3.403   5.579  20.281  0.00  0.00    +0.000 C 
BRANCH  17  18
ATOM     18  C   UNL     1       2.706   4.267  19.994  0.00  0.00    +0.000 A 
ATOM     19  C   UNL     1       3.491   3.165  19.636  0.00  0.00    +0.000 A 
ATOM     20  F   UNL     1       4.821   3.302  19.541  0.00  0.00    +0.000 F 
ATOM     21  C   UNL     1       2.932   1.926  19.327  0.00  0.00    +0.000 A 
ATOM     22  C   UNL     1       1.555   1.755  19.393  0.00  0.00    +0.000 A 
ATOM     23  C   UNL     1       0.750   2.821  19.771  0.00  0.00    +0.000 A 
ATOM     24  C   UNL     1       1.325   4.054  20.069  0.00  0.00    +0.000 A 
ATOM     25  F   UNL     1       0.486   5.035  20.414  0.00  0.00    +0.000 F 
ENDBRANCH  17  18
ENDBRANCH   9  17
TORSDOF 3
ENDMDL
MODEL 4
REMARK VINA RESULT:      -7.7      1.190      5.140
REMARK  Name = 
REMARK  4 active torsions:
REMARK  status: ('A' for Active; 'I' for Inactive)
REMARK    1  A    between atoms: C_1  and  C_2
REMARK    2  A    between atoms: C_7  and  C_8
REMARK    3  A    between atoms: N_16  and  C_17
REMARK    4  A    between atoms: C_17  and  C_18
REMARK                            x       y       z     vdW  Elec       q    Type
REMARK                         _______ _______ _______ _____ _____    ______ ____
ROOT
ATOM      1  C   UNL     1       3.357   6.692  18.250  0.00  0.00    +0.000 A 
ATOM      2  N   UNL     1       4.498   7.206  17.810  0.00  0.00    +0.000 NA
ATOM      3  C   UNL     1       5.100   6.249  17.031  0.00  0.00    +0.000 A 
ATOM      4  C   UNL     1       6.355   6.255  16.403  0.00  0.00    +0.000 A 
ATOM      5  C   UNL     1       6.759   5.122  15.680  0.00  0.00    +0.000 A 
ATOM      6  C   UNL     1       5.916   4.020  15.552  0.00  0.00    +0.000 A 
ATOM      7  C   UNL     1       4.654   4.007  16.153  0.00  0.00    +0.000 A 
ATOM      8  C   UNL     1       4.291   5.132  16.911  0.00  0.00    +0.000 A 
ATOM      9  N   UNL     1       3.222   5.398  17.748  0.00  0.00    +0.000 N 
ENDROOT
BRANCH   1  16
ATOM     10  C   UNL     1       2.053   9.308  17.449  0.00  0.00    +0.000 C 
ATOM     11  C   UNL     1       1.790   8.631  18.769  0.00  0.00    +0.000 A 
ATOM     12  C   UNL     1       0.923   9.285  19.672  0.00  0.00    +0.000 A 
ATOM     13  C   UNL     1       0.637   8.747  20.921  0.00  0.00    +0.000 A 
ATOM     14  C   UNL     1       1.250   7.568  21.307  0.00  0.00    +0.000 A 
ATOM     15  C   UNL     1       2.150   6.944  20.442  0.00  0.00    +0.000 A 
ATOM     16  C   UNL     1       2.414   7.417  19.144  0.00  0.00    +0.000 A 
ENDBRANCH   1  16
BRANCH   9  17
ATOM     17  C   UNL     1       2.170   4.422  18.015  0.00  0.00    +0.000 C 
BRANCH  17  18
ATOM     18  C   UNL     1       2.326   3.670  19.319  0.00  0.00    +0.000 A 
ATOM     19  C   UNL     1       1.251   3.669  20.214  0.00  0.00    +0.000 A 
ATOM     20  F   UNL     1       0.132   4.341  19.907  0.00  0.00    +0.000 F 
ATOM     21  C   UNL     1       1.315   3.028  21.450  0.00  0.00    +0.000 A 
ATOM     22  C   UNL     1       2.469   2.342  21.810  0.00  0.00    +0.000 A 
ATOM     23  C   UNL     1       3.543   2.301  20.933  0.00  0.00    +0.000 A 
ATOM     24  C   UNL     1       3.464   2.954  19.706  0.00  0.00    +0.000 A 
ATOM     25  F   UNL     1       4.541   2.879  18.920  0.00  0.00    +0.000 F 
ENDBRANCH  17  18
ENDBRANCH   9  17
TORSDOF 3
ENDMDL
MODEL 5
REMARK VINA RESULT:      -7.7      0.670      2.230
REMARK  Name = 
REMARK  4 active torsions:
REMARK  status: ('A' for Active; 'I' for Inactive)
REMARK    1  A    between atoms: C_1  and  C_2
REMARK    2  A    between atoms: C_7  and  C_8
REMARK    3  A    between atoms: N_16  and  C_17
REMARK    4  A    between atoms: C_17  and  C_18
REMARK                            x       y       z     vdW  Elec       q    Type
REMARK                         _______ _______ _______ _____ _____    ______ ____
ROOT
ATOM      1  C   UNL     1       3.659   6.790  18.034  0.00  0.00    +0.000 A 
ATOM      2  N   UNL     1       3.100   7.812  17.399  0.00  0.00    +0.000 NA
ATOM      3  C   UNL     1       2.186   8.371  18.257  0.00  0.00    +0.000 A 
ATOM      4  C   UNL     1       1.273   9.416  18.047  0.00  0.00    +0.000 A 
ATOM      5  C   UNL     1       0.408   9.784  19.091  0.00  0.00    +0.000 A 
ATOM      6  C   UNL     1       0.478   9.150  20.331  0.00  0.00    +0.000 A 
ATOM      7  C   UNL     1       1.398   8.124  20.562  0.00  0.00    +0.000 A 
ATOM      8  C   UNL     1       2.218   7.740  19.489  0.00  0.00    +0.000 A 
ATOM      9  N   UNL     1       3.105   6.694  19.310  0.00  0.00    +0.000 N 
ENDROOT
BRANCH   1  16
ATOM     10  C   UNL     1       2.968   4.222  16.581  0.00  0.00    +0.000 C 
ATOM     11  C   UNL     1       4.381   4.720  16.739  0.00  0.00    +0.000 A 
ATOM     12  C   UNL     1       5.415   3.914  16.211  0.00  0.00    +0.000 A 
ATOM     13  C   UNL     1       6.751   4.281  16.328  0.00  0.00    +0.000 A 
ATOM     14  C   UNL     1       7.078   5.437  17.014  0.00  0.00    +0.000 A 
ATOM     15  C   UNL     1       6.065   6.210  17.585  0.00  0.00    +0.000 A 
ATOM     16  C   UNL     1       4.699   5.912  17.432  0.00  0.00    +0.000 A 
ENDBRANCH   1  16
BRANCH   9  17
ATOM     17  C   UNL     1       3.355   5.689  20.339  0.00  0.00    +0.000 C 
BRANCH  17  18
ATOM     18  C   UNL     1       2.830   4.309  20.011  0.00  0.00    +0.000 A 
ATOM     19  C   UNL     1       1.447   4.100  20.052  0.00  0.00    +0.000 A 
ATOM     20  F   UNL     1       0.634   5.111  20.393  0.00  0.00    +0.000 F 
ATOM     21  C   UNL     1       0.877   2.855  19.793  0.00  0.00    +0.000 A 
ATOM     22  C   UNL     1       1.692   1.781  19.458  0.00  0.00    +0.000 A 
ATOM     23  C   UNL     1       3.066   1.961  19.383  0.00  0.00    +0.000 A 
ATOM     24  C   UNL     1       3.619   3.210  19.653  0.00  0.00    +0.000 A 
ATOM     25  F   UNL     1       4.949   3.303  19.571  0.00  0.00    +0.000 F 
ENDBRANCH  17  18
ENDBRANCH   9  17
TORSDOF 3
ENDMDL
MODEL 6
REMARK VINA RESULT:      -7.4      1.179      4.870
REMARK  Name = 
REMARK  4 active torsions:
REMARK  status: ('A' for Active; 'I' for Inactive)
REMARK    1  A    between atoms: C_1  and  C_2
REMARK    2  A    between atoms: C_7  and  C_8
REMARK    3  A    between atoms: N_16  and  C_17
REMARK    4  A    between atoms: C_17  and  C_18
REMARK                            x       y       z     vdW  Elec       q    Type
REMARK                         _______ _______ _______ _____ _____    ______ ____
ROOT
ATOM      1  C   UNL     1       3.410   6.656  18.228  0.00  0.00    +0.000 A 
ATOM      2  N   UNL     1       4.560   7.171  17.813  0.00  0.00    +0.000 NA
ATOM      3  C   UNL     1       5.165   6.228  17.020  0.00  0.00    +0.000 A 
ATOM      4  C   UNL     1       6.427   6.239  16.407  0.00  0.00    +0.000 A 
ATOM      5  C   UNL     1       6.831   5.119  15.663  0.00  0.00    +0.000 A 
ATOM      6  C   UNL     1       5.981   4.027  15.500  0.00  0.00    +0.000 A 
ATOM      7  C   UNL     1       4.712   4.010  16.085  0.00  0.00    +0.000 A 
ATOM      8  C   UNL     1       4.348   5.121  16.865  0.00  0.00    +0.000 A 
ATOM      9  N   UNL     1       3.271   5.375  17.695  0.00  0.00    +0.000 N 
ENDROOT
BRANCH   1  16
ATOM     10  C   UNL     1       2.061   9.251  17.432  0.00  0.00    +0.000 C 
ATOM     11  C   UNL     1       1.817   8.572  18.754  0.00  0.00    +0.000 A 
ATOM     12  C   UNL     1       0.945   9.214  19.662  0.00  0.00    +0.000 A 
ATOM     13  C   UNL     1       0.675   8.673  20.914  0.00  0.00    +0.000 A 
ATOM     14  C   UNL     1       1.309   7.504  21.297  0.00  0.00    +0.000 A 
ATOM     15  C   UNL     1       2.213   6.892  20.427  0.00  0.00    +0.000 A 
ATOM     16  C   UNL     1       2.461   7.368  19.127  0.00  0.00    +0.000 A 
ENDBRANCH   1  16
BRANCH   9  17
ATOM     17  C   UNL     1       2.209   4.402  17.926  0.00  0.00    +0.000 C 
BRANCH  17  18
ATOM     18  C   UNL     1       2.262   3.722  19.277  0.00  0.00    +0.000 A 
ATOM     19  C   UNL     1       3.413   2.999  19.609  0.00  0.00    +0.000 A 
ATOM     20  F   UNL     1       4.418   2.912  18.727  0.00  0.00    +0.000 F 
ATOM     21  C   UNL     1       3.537   2.318  20.819  0.00  0.00    +0.000 A 
ATOM     22  C   UNL     1       2.504   2.368  21.747  0.00  0.00    +0.000 A 
ATOM     23  C   UNL     1       1.360   3.098  21.459  0.00  0.00    +0.000 A 
ATOM     24  C   UNL     1       1.249   3.766  20.242  0.00  0.00    +0.000 A 
ATOM     25  F   UNL     1       0.115   4.440  20.032  0.00  0.00    +0.000 F 
ENDBRANCH  17  18
ENDBRANCH   9  17
TORSDOF 3
ENDMDL
MODEL 7
REMARK VINA RESULT:      -7.4      1.835      5.806
REMARK  Name = 
REMARK  4 active torsions:
REMARK  status: ('A' for Active; 'I' for Inactive)
REMARK    1  A    between atoms: C_1  and  C_2
REMARK    2  A    between atoms: C_7  and  C_8
REMARK    3  A    between atoms: N_16  and  C_17
REMARK    4  A    between atoms: C_17  and  C_18
REMARK                            x       y       z     vdW  Elec       q    Type
REMARK                         _______ _______ _______ _____ _____    ______ ____
ROOT
ATOM      1  C   UNL     1       4.015   3.743  18.100  0.00  0.00    +0.000 A 
ATOM      2  N   UNL     1       4.263   2.990  17.037  0.00  0.00    +0.000 NA
ATOM      3  C   UNL     1       5.192   3.654  16.277  0.00  0.00    +0.000 A 
ATOM      4  C   UNL     1       5.727   3.332  15.020  0.00  0.00    +0.000 A 
ATOM      5  C   UNL     1       6.653   4.207  14.430  0.00  0.00    +0.000 A 
ATOM      6  C   UNL     1       7.068   5.360  15.096  0.00  0.00    +0.000 A 
ATOM      7  C   UNL     1       6.562   5.682  16.358  0.00  0.00    +0.000 A 
ATOM      8  C   UNL     1       5.601   4.817  16.906  0.00  0.00    +0.000 A 
ATOM      9  N   UNL     1       4.793   4.898  18.027  0.00  0.00    +0.000 N 
ENDROOT
BRANCH   1  16
ATOM     10  C   UNL     1       1.029   4.163  17.789  0.00  0.00    +0.000 C 
ATOM     11  C   UNL     1       1.648   3.555  19.020  0.00  0.00    +0.000 A 
ATOM     12  C   UNL     1       0.778   3.209  20.080  0.00  0.00    +0.000 A 
ATOM     13  C   UNL     1       1.260   2.661  21.263  0.00  0.00    +0.000 A 
ATOM     14  C   UNL     1       2.623   2.492  21.425  0.00  0.00    +0.000 A 
ATOM     15  C   UNL     1       3.493   2.881  20.405  0.00  0.00    +0.000 A 
ATOM     16  C   UNL     1       3.044   3.375  19.167  0.00  0.00    +0.000 A 
ENDBRANCH   1  16
BRANCH   9  17
ATOM     17  C   UNL     1       4.809   6.046  18.927  0.00  0.00    +0.000 C 
BRANCH  17  18
ATOM     18  C   UNL     1       3.567   6.907  18.870  0.00  0.00    +0.000 A 
ATOM     19  C   UNL     1       3.398   7.753  17.768  0.00  0.00    +0.000 A 
ATOM     20  F   UNL     1       4.337   7.790  16.812  0.00  0.00    +0.000 F 
ATOM     21  C   UNL     1       2.300   8.602  17.646  0.00  0.00    +0.000 A 
ATOM     22  C   UNL     1       1.319   8.605  18.630  0.00  0.00    +0.000 A 
ATOM     23  C   UNL     1       1.443   7.759  19.723  0.00  0.00    +0.000 A 
ATOM     24  C   UNL     1       2.551   6.923  19.833  0.00  0.00    +0.000 A 
ATOM     25  F   UNL     1       2.606   6.145  20.917  0.00  0.00    +0.000 F 
ENDBRANCH  17  18
ENDBRANCH   9  17
TORSDOF 3
ENDMDL
MODEL 8
REMARK VINA RESULT:      -7.3      1.754      4.847
REMARK  Name = 
REMARK  4 active torsions:
REMARK  status: ('A' for Active; 'I' for Inactive)
REMARK    1  A    between atoms: C_1  and  C_2
REMARK    2  A    between atoms: C_7  and  C_8
REMARK    3  A    between atoms: N_16  and  C_17
REMARK    4  A    between atoms: C_17  and  C_18
REMARK                            x       y       z     vdW  Elec       q    Type
REMARK                         _______ _______ _______ _____ _____    ______ ____
ROOT
ATOM      1  C   UNL     1       4.430   4.835  18.504  0.00  0.00    +0.000 A 
ATOM      2  N   UNL     1       4.176   3.682  17.899  0.00  0.00    +0.000 NA
ATOM      3  C   UNL     1       2.918   3.290  18.285  0.00  0.00    +0.000 A 
ATOM      4  C   UNL     1       2.213   2.111  17.999  0.00  0.00    +0.000 A 
ATOM      5  C   UNL     1       0.934   1.933  18.551  0.00  0.00    +0.000 A 
ATOM      6  C   UNL     1       0.354   2.925  19.340  0.00  0.00    +0.000 A 
ATOM      7  C   UNL     1       1.034   4.114  19.614  0.00  0.00    +0.000 A 
ATOM      8  C   UNL     1       2.331   4.249  19.091  0.00  0.00    +0.000 A 
ATOM      9  N   UNL     1       3.328   5.189  19.281  0.00  0.00    +0.000 N 
ENDROOT
BRANCH   1  16
ATOM     10  C   UNL     1       5.137   6.342  15.971  0.00  0.00    +0.000 C 
ATOM     11  C   UNL     1       6.036   6.301  17.179  0.00  0.00    +0.000 A 
ATOM     12  C   UNL     1       7.276   6.972  17.087  0.00  0.00    +0.000 A 
ATOM     13  C   UNL     1       8.180   6.973  18.143  0.00  0.00    +0.000 A 
ATOM     14  C   UNL     1       7.879   6.263  19.292  0.00  0.00    +0.000 A 
ATOM     15  C   UNL     1       6.680   5.554  19.370  0.00  0.00    +0.000 A 
ATOM     16  C   UNL     1       5.708   5.583  18.353  0.00  0.00    +0.000 A 
ENDBRANCH   1  16
BRANCH   9  17
ATOM     17  C   UNL     1       3.173   6.332  20.175  0.00  0.00    +0.000 C 
BRANCH  17  18
ATOM     18  C   UNL     1       2.344   7.465  19.610  0.00  0.00    +0.000 A 
ATOM     19  C   UNL     1       1.512   8.175  20.483  0.00  0.00    +0.000 A 
ATOM     20  F   UNL     1       1.458   7.827  21.776  0.00  0.00    +0.000 F 
ATOM     21  C   UNL     1       0.692   9.214  20.045  0.00  0.00    +0.000 A 
ATOM     22  C   UNL     1       0.707   9.585  18.706  0.00  0.00    +0.000 A 
ATOM     23  C   UNL     1       1.541   8.919  17.820  0.00  0.00    +0.000 A 
ATOM     24  C   UNL     1       2.347   7.878  18.273  0.00  0.00    +0.000 A 
ATOM     25  F   UNL     1       3.115   7.277  17.360  0.00  0.00    +0.000 F 
ENDBRANCH  17  18
ENDBRANCH   9  17
TORSDOF 3
ENDMDL
MODEL 9
REMARK VINA RESULT:      -7.2      1.650      4.337
REMARK  Name = 
REMARK  4 active torsions:
REMARK  status: ('A' for Active; 'I' for Inactive)
REMARK    1  A    between atoms: C_1  and  C_2
REMARK    2  A    between atoms: C_7  and  C_8
REMARK    3  A    between atoms: N_16  and  C_17
REMARK    4  A    between atoms: C_17  and  C_18
REMARK                            x       y       z     vdW  Elec       q    Type
REMARK                         _______ _______ _______ _____ _____    ______ ____
ROOT
ATOM      1  C   UNL     1       2.695   5.925  19.069  0.00  0.00    +0.000 A 
ATOM      2  N   UNL     1       2.042   6.500  20.070  0.00  0.00    +0.000 NA
ATOM      3  C   UNL     1       1.825   7.808  19.715  0.00  0.00    +0.000 A 
ATOM      4  C   UNL     1       1.256   8.859  20.449  0.00  0.00    +0.000 A 
ATOM      5  C   UNL     1       1.178  10.133  19.863  0.00  0.00    +0.000 A 
ATOM      6  C   UNL     1       1.622  10.346  18.559  0.00  0.00    +0.000 A 
ATOM      7  C   UNL     1       2.170   9.304  17.807  0.00  0.00    +0.000 A 
ATOM      8  C   UNL     1       2.282   8.050  18.431  0.00  0.00    +0.000 A 
ATOM      9  N   UNL     1       2.897   6.867  18.061  0.00  0.00    +0.000 N 
ENDROOT
BRANCH   1  16
ATOM     10  C   UNL     1       1.108   3.737  17.697  0.00  0.00    +0.000 C 
ATOM     11  C   UNL     1       2.402   3.479  18.423  0.00  0.00    +0.000 A 
ATOM     12  C   UNL     1       2.855   2.142  18.486  0.00  0.00    +0.000 A 
ATOM     13  C   UNL     1       4.027   1.804  19.151  0.00  0.00    +0.000 A 
ATOM     14  C   UNL     1       4.743   2.791  19.805  0.00  0.00    +0.000 A 
ATOM     15  C   UNL     1       4.275   4.106  19.793  0.00  0.00    +0.000 A 
ATOM     16  C   UNL     1       3.132   4.502  19.075  0.00  0.00    +0.000 A 
ENDBRANCH   1  16
BRANCH   9  17
ATOM     17  C   UNL     1       3.625   6.718  16.806  0.00  0.00    +0.000 C 
BRANCH  17  18
ATOM     18  C   UNL     1       5.002   6.106  16.946  0.00  0.00    +0.000 A 
ATOM     19  C   UNL     1       5.198   4.803  16.474  0.00  0.00    +0.000 A 
ATOM     20  F   UNL     1       4.171   4.133  15.934  0.00  0.00    +0.000 F 
ATOM     21  C   UNL     1       6.424   4.150  16.588  0.00  0.00    +0.000 A 
ATOM     22  C   UNL     1       7.504   4.808  17.164  0.00  0.00    +0.000 A 
ATOM     23  C   UNL     1       7.350   6.110  17.618  0.00  0.00    +0.000 A 
ATOM     24  C   UNL     1       6.116   6.744  17.503  0.00  0.00    +0.000 A 
ATOM     25  F   UNL     1       6.041   7.993  17.971  0.00  0.00    +0.000 F 
ENDBRANCH  17  18
ENDBRANCH   9  17
TORSDOF 3
ENDMDL
