MODEL 1
REMARK VINA RESULT:      -6.7      0.000      0.000
REMARK  Name = 
REMARK  7 active torsions:
REMARK  status: ('A' for Active; 'I' for Inactive)
REMARK    1  A    between atoms: C_1  and  N_2
REMARK    2  A    between atoms: C_3  and  C_5
REMARK    3  A    between atoms: C_8  and  C_9
REMARK    4  A    between atoms: C_10  and  C_11
REMARK    5  A    between atoms: C_11  and  C_12
REMARK    6  A    between atoms: C_14  and  C_15
REMARK    7  A    between atoms: C_18  and  N_19
REMARK                            x       y       z     vdW  Elec       q    Type
REMARK                         _______ _______ _______ _____ _____    ______ ____
ROOT
ATOM      1  C   UNL     1      -3.158  12.631  19.994  0.00  0.00    +0.000 A 
ATOM      2  C   UNL     1      -3.373  13.217  21.289  0.00  0.00    +0.000 A 
ATOM      3  C   UNL     1      -4.693  13.331  21.792  0.00  0.00    +0.000 A 
ATOM      4  C   UNL     1      -5.787  12.723  21.122  0.00  0.00    +0.000 A 
ATOM      5  C   UNL     1      -7.164  12.760  21.758  0.00  0.00    +0.000 C 
ATOM      6  C   UNL     1      -5.573  12.079  19.870  0.00  0.00    +0.000 A 
ATOM      7  C   UNL     1      -4.259  12.041  19.252  0.00  0.00    +0.000 A 
ATOM      8  S   UNL     1      -5.045  14.236  23.310  0.00  0.00    +0.000 S 
ATOM      9  C   UNL     1      -3.468  14.530  24.033  0.00  0.00    +0.000 A 
ATOM     10  C   UNL     1      -3.450  15.078  25.324  0.00  0.00    +0.000 A 
ATOM     11  C   UNL     1      -2.241  15.411  25.931  0.00  0.00    +0.000 A 
ATOM     12  C   UNL     1      -1.056  15.218  25.235  0.00  0.00    +0.000 A 
ATOM     13  C   UNL     1      -1.075  14.642  23.959  0.00  0.00    +0.000 A 
ATOM     14  C   UNL     1      -2.283  14.262  23.351  0.00  0.00    +0.000 A 
ATOM     15  N   UNL     1      -2.273  13.739  22.042  0.00  0.00    +0.000 N 
ATOM     16  H   UNL     1      -1.386  13.285  21.816  0.00  0.00    +0.000 HD
ENDROOT
BRANCH   7  17
ATOM     17  C   UNL     1      -4.104  11.399  17.883  0.00  0.00    +0.000 A 
ATOM     18  C   UNL     1      -3.256  10.287  17.660  0.00  0.00    +0.000 A 
ATOM     19  C   UNL     1      -2.988   9.794  16.366  0.00  0.00    +0.000 A 
ATOM     20  C   UNL     1      -3.667  10.326  15.269  0.00  0.00    +0.000 A 
ATOM     21  C   UNL     1      -4.567  11.366  15.454  0.00  0.00    +0.000 A 
ATOM     22  C   UNL     1      -4.697  11.937  16.727  0.00  0.00    +0.000 A 
BRANCH  20  23
ATOM     23  N   UNL     1      -3.393   9.845  13.910  0.00  0.00    +0.000 N 
ATOM     24  O   UNL     1      -2.212   9.627  13.602  0.00  0.00    +0.000 OA
ATOM     25  O   UNL     1      -4.357   9.693  13.144  0.00  0.00    +0.000 OA
ENDBRANCH  20  23
ENDBRANCH   7  17
BRANCH   1  28
ATOM     26  C   UNL     1       0.173  13.704  18.394  0.00  0.00    +0.000 C 
ATOM     27  N   UNL     1      -1.231  13.652  18.758  0.00  0.00    +0.000 N 
ATOM     28  C   UNL     1      -1.709  12.588  19.513  0.00  0.00    +0.000 C 
ATOM     29  O   UNL     1      -0.917  11.725  19.863  0.00  0.00    +0.000 OA
ATOM     30  H   UNL     1      -1.849  14.408  18.483  0.00  0.00    +0.000 HD
ENDBRANCH   1  28
BRANCH   6  31
ATOM     31  C   UNL     1      -6.695  11.230  19.293  0.00  0.00    +0.000 C 
ATOM     32  C   UNL     1      -6.833   9.740  19.570  0.00  0.00    +0.000 C 
ATOM     33  O   UNL     1      -7.526  11.786  18.578  0.00  0.00    +0.000 OA
ENDBRANCH   6  31
TORSDOF 4
ENDMDL
MODEL 2
REMARK VINA RESULT:      -6.6      3.576      6.181
REMARK  Name = 
REMARK  7 active torsions:
REMARK  status: ('A' for Active; 'I' for Inactive)
REMARK    1  A    between atoms: C_1  and  N_2
REMARK    2  A    between atoms: C_3  and  C_5
REMARK    3  A    between atoms: C_8  and  C_9
REMARK    4  A    between atoms: C_10  and  C_11
REMARK    5  A    between atoms: C_11  and  C_12
REMARK    6  A    between atoms: C_14  and  C_15
REMARK    7  A    between atoms: C_18  and  N_19
REMARK                            x       y       z     vdW  Elec       q    Type
REMARK                         _______ _______ _______ _____ _____    ______ ____
ROOT
ATOM      1  C   UNL     1      -2.633  11.211  18.877  0.00  0.00    +0.000 A 
ATOM      2  C   UNL     1      -3.613  12.209  19.211  0.00  0.00    +0.000 A 
ATOM      3  C   UNL     1      -3.437  12.997  20.376  0.00  0.00    +0.000 A 
ATOM      4  C   UNL     1      -2.231  12.942  21.122  0.00  0.00    +0.000 A 
ATOM      5  C   UNL     1      -2.032  13.892  22.288  0.00  0.00    +0.000 C 
ATOM      6  C   UNL     1      -1.223  12.003  20.758  0.00  0.00    +0.000 A 
ATOM      7  C   UNL     1      -1.406  11.087  19.645  0.00  0.00    +0.000 A 
ATOM      8  S   UNL     1      -4.724  14.117  20.955  0.00  0.00    +0.000 S 
ATOM      9  C   UNL     1      -5.883  14.193  19.634  0.00  0.00    +0.000 A 
ATOM     10  C   UNL     1      -6.918  15.133  19.744  0.00  0.00    +0.000 A 
ATOM     11  C   UNL     1      -7.916  15.198  18.775  0.00  0.00    +0.000 A 
ATOM     12  C   UNL     1      -7.890  14.307  17.712  0.00  0.00    +0.000 A 
ATOM     13  C   UNL     1      -6.839  13.391  17.587  0.00  0.00    +0.000 A 
ATOM     14  C   UNL     1      -5.802  13.341  18.533  0.00  0.00    +0.000 A 
ATOM     15  N   UNL     1      -4.790  12.368  18.410  0.00  0.00    +0.000 N 
ATOM     16  H   UNL     1      -4.653  12.074  17.442  0.00  0.00    +0.000 HD
ENDROOT
BRANCH   7  17
ATOM     17  C   UNL     1      -0.325  10.062  19.346  0.00  0.00    +0.000 A 
ATOM     18  C   UNL     1       0.087   9.097  20.296  0.00  0.00    +0.000 A 
ATOM     19  C   UNL     1       1.196   8.253  20.079  0.00  0.00    +0.000 A 
ATOM     20  C   UNL     1       1.845   8.269  18.843  0.00  0.00    +0.000 A 
ATOM     21  C   UNL     1       1.422   9.146  17.855  0.00  0.00    +0.000 A 
ATOM     22  C   UNL     1       0.419  10.078  18.153  0.00  0.00    +0.000 A 
BRANCH  20  23
ATOM     23  N   UNL     1       3.013   7.416  18.597  0.00  0.00    +0.000 N 
ATOM     24  O   UNL     1       3.807   7.767  17.711  0.00  0.00    +0.000 OA
ATOM     25  O   UNL     1       3.135   6.388  19.281  0.00  0.00    +0.000 OA
ENDBRANCH  20  23
ENDBRANCH   7  17
BRANCH   1  28
ATOM     26  C   UNL     1      -2.652  10.041  15.212  0.00  0.00    +0.000 C 
ATOM     27  N   UNL     1      -2.504  10.864  16.398  0.00  0.00    +0.000 N 
ATOM     28  C   UNL     1      -2.926  10.380  17.630  0.00  0.00    +0.000 C 
ATOM     29  O   UNL     1      -3.402   9.254  17.677  0.00  0.00    +0.000 OA
ATOM     30  H   UNL     1      -2.067  11.776  16.325  0.00  0.00    +0.000 HD
ENDBRANCH   1  28
BRANCH   6  31
ATOM     31  C   UNL     1       0.146  12.125  21.408  0.00  0.00    +0.000 C 
ATOM     32  C   UNL     1       1.274  12.956  20.813  0.00  0.00    +0.000 C 
ATOM     33  O   UNL     1       0.335  11.526  22.465  0.00  0.00    +0.000 OA
ENDBRANCH   6  31
TORSDOF 4
ENDMDL
MODEL 3
REMARK VINA RESULT:      -6.6      4.191      7.210
REMARK  Name = 
REMARK  7 active torsions:
REMARK  status: ('A' for Active; 'I' for Inactive)
REMARK    1  A    between atoms: C_1  and  N_2
REMARK    2  A    between atoms: C_3  and  C_5
REMARK    3  A    between atoms: C_8  and  C_9
REMARK    4  A    between atoms: C_10  and  C_11
REMARK    5  A    between atoms: C_11  and  C_12
REMARK    6  A    between atoms: C_14  and  C_15
REMARK    7  A    between atoms: C_18  and  N_19
REMARK                            x       y       z     vdW  Elec       q    Type
REMARK                         _______ _______ _______ _____ _____    ______ ____
ROOT
ATOM      1  C   UNL     1      -1.455  14.041  20.619  0.00  0.00    +0.000 A 
ATOM      2  C   UNL     1      -0.410  14.759  19.942  0.00  0.00    +0.000 A 
ATOM      3  C   UNL     1      -0.616  16.114  19.581  0.00  0.00    +0.000 A 
ATOM      4  C   UNL     1      -1.761  16.825  20.028  0.00  0.00    +0.000 A 
ATOM      5  C   UNL     1      -1.882  18.308  19.727  0.00  0.00    +0.000 C 
ATOM      6  C   UNL     1      -2.772  16.139  20.759  0.00  0.00    +0.000 A 
ATOM      7  C   UNL     1      -2.666  14.719  21.050  0.00  0.00    +0.000 A 
ATOM      8  S   UNL     1       0.569  17.004  18.556  0.00  0.00    +0.000 S 
ATOM      9  C   UNL     1       1.985  15.961  18.497  0.00  0.00    +0.000 A 
ATOM     10  C   UNL     1       3.140  16.484  17.897  0.00  0.00    +0.000 A 
ATOM     11  C   UNL     1       4.274  15.692  17.744  0.00  0.00    +0.000 A 
ATOM     12  C   UNL     1       4.243  14.371  18.168  0.00  0.00    +0.000 A 
ATOM     13  C   UNL     1       3.100  13.861  18.796  0.00  0.00    +0.000 A 
ATOM     14  C   UNL     1       1.962  14.660  18.996  0.00  0.00    +0.000 A 
ATOM     15  N   UNL     1       0.807  14.099  19.577  0.00  0.00    +0.000 N 
ATOM     16  H   UNL     1       1.027  13.308  20.185  0.00  0.00    +0.000 HD
ENDROOT
BRANCH   7  17
ATOM     17  C   UNL     1      -3.807  14.025  21.776  0.00  0.00    +0.000 A 
ATOM     18  C   UNL     1      -4.966  13.569  21.102  0.00  0.00    +0.000 A 
ATOM     19  C   UNL     1      -6.091  13.073  21.793  0.00  0.00    +0.000 A 
ATOM     20  C   UNL     1      -6.031  12.903  23.178  0.00  0.00    +0.000 A 
ATOM     21  C   UNL     1      -4.883  13.265  23.868  0.00  0.00    +0.000 A 
ATOM     22  C   UNL     1      -3.842  13.897  23.175  0.00  0.00    +0.000 A 
BRANCH  20  23
ATOM     23  N   UNL     1      -7.194  12.408  23.924  0.00  0.00    +0.000 N 
ATOM     24  O   UNL     1      -7.915  13.243  24.489  0.00  0.00    +0.000 OA
ATOM     25  O   UNL     1      -7.383  11.182  23.955  0.00  0.00    +0.000 OA
ENDBRANCH  20  23
ENDBRANCH   7  17
BRANCH   1  28
ATOM     26  C   UNL     1      -0.648  10.834  22.585  0.00  0.00    +0.000 C 
ATOM     27  N   UNL     1      -0.807  12.231  22.227  0.00  0.00    +0.000 N 
ATOM     28  C   UNL     1      -1.164  12.574  20.929  0.00  0.00    +0.000 C 
ATOM     29  O   UNL     1      -1.349  11.674  20.122  0.00  0.00    +0.000 OA
ATOM     30  H   UNL     1      -0.684  12.947  22.935  0.00  0.00    +0.000 HD
ENDBRANCH   1  28
BRANCH   6  31
ATOM     31  C   UNL     1      -3.859  16.960  21.434  0.00  0.00    +0.000 C 
ATOM     32  C   UNL     1      -5.214  17.226  20.794  0.00  0.00    +0.000 C 
ATOM     33  O   UNL     1      -3.623  17.417  22.551  0.00  0.00    +0.000 OA
ENDBRANCH   6  31
TORSDOF 4
ENDMDL
MODEL 4
REMARK VINA RESULT:      -6.5      3.558      6.200
REMARK  Name = 
REMARK  7 active torsions:
REMARK  status: ('A' for Active; 'I' for Inactive)
REMARK    1  A    between atoms: C_1  and  N_2
REMARK    2  A    between atoms: C_3  and  C_5
REMARK    3  A    between atoms: C_8  and  C_9
REMARK    4  A    between atoms: C_10  and  C_11
REMARK    5  A    between atoms: C_11  and  C_12
REMARK    6  A    between atoms: C_14  and  C_15
REMARK    7  A    between atoms: C_18  and  N_19
REMARK                            x       y       z     vdW  Elec       q    Type
REMARK                         _______ _______ _______ _____ _____    ______ ____
ROOT
ATOM      1  C   UNL     1      -2.464  11.314  18.944  0.00  0.00    +0.000 A 
ATOM      2  C   UNL     1      -3.486  12.270  19.275  0.00  0.00    +0.000 A 
ATOM      3  C   UNL     1      -3.342  13.069  20.437  0.00  0.00    +0.000 A 
ATOM      4  C   UNL     1      -2.134  13.069  21.181  0.00  0.00    +0.000 A 
ATOM      5  C   UNL     1      -1.974  14.032  22.343  0.00  0.00    +0.000 C 
ATOM      6  C   UNL     1      -1.087  12.174  20.819  0.00  0.00    +0.000 A 
ATOM      7  C   UNL     1      -1.231  11.247  19.710  0.00  0.00    +0.000 A 
ATOM      8  S   UNL     1      -4.676  14.134  21.015  0.00  0.00    +0.000 S 
ATOM      9  C   UNL     1      -5.839  14.155  19.695  0.00  0.00    +0.000 A 
ATOM     10  C   UNL     1      -6.914  15.050  19.804  0.00  0.00    +0.000 A 
ATOM     11  C   UNL     1      -7.916  15.068  18.837  0.00  0.00    +0.000 A 
ATOM     12  C   UNL     1      -7.853  14.175  17.777  0.00  0.00    +0.000 A 
ATOM     13  C   UNL     1      -6.763  13.304  17.654  0.00  0.00    +0.000 A 
ATOM     14  C   UNL     1      -5.723  13.303  18.598  0.00  0.00    +0.000 A 
ATOM     15  N   UNL     1      -4.670  12.374  18.477  0.00  0.00    +0.000 N 
ATOM     16  H   UNL     1      -4.523  12.082  17.509  0.00  0.00    +0.000 HD
ENDROOT
BRANCH   7  17
ATOM     17  C   UNL     1      -0.107  10.268  19.413  0.00  0.00    +0.000 A 
ATOM     18  C   UNL     1       0.573  10.251  18.171  0.00  0.00    +0.000 A 
ATOM     19  C   UNL     1       1.501   9.244  17.836  0.00  0.00    +0.000 A 
ATOM     20  C   UNL     1       1.867   8.295  18.793  0.00  0.00    +0.000 A 
ATOM     21  C   UNL     1       1.281   8.324  20.051  0.00  0.00    +0.000 A 
ATOM     22  C   UNL     1       0.251   9.240  20.303  0.00  0.00    +0.000 A 
BRANCH  20  23
ATOM     23  N   UNL     1       2.815   7.224  18.465  0.00  0.00    +0.000 N 
ATOM     24  O   UNL     1       2.599   6.098  18.935  0.00  0.00    +0.000 OA
ATOM     25  O   UNL     1       3.785   7.509  17.745  0.00  0.00    +0.000 OA
ENDBRANCH  20  23
ENDBRANCH   7  17
BRANCH   1  28
ATOM     26  C   UNL     1      -2.550  10.190  15.265  0.00  0.00    +0.000 C 
ATOM     27  N   UNL     1      -2.437  11.012  16.456  0.00  0.00    +0.000 N 
ATOM     28  C   UNL     1      -2.723  10.465  17.701  0.00  0.00    +0.000 C 
ATOM     29  O   UNL     1      -3.051   9.289  17.755  0.00  0.00    +0.000 OA
ATOM     30  H   UNL     1      -2.122  11.973  16.374  0.00  0.00    +0.000 HD
ENDBRANCH   1  28
BRANCH   6  31
ATOM     31  C   UNL     1       0.277  12.358  21.465  0.00  0.00    +0.000 C 
ATOM     32  C   UNL     1       1.326  13.321  20.928  0.00  0.00    +0.000 C 
ATOM     33  O   UNL     1       0.529  11.698  22.472  0.00  0.00    +0.000 OA
ENDBRANCH   6  31
TORSDOF 4
ENDMDL
MODEL 5
REMARK VINA RESULT:      -6.2      3.678      7.634
REMARK  Name = 
REMARK  7 active torsions:
REMARK  status: ('A' for Active; 'I' for Inactive)
REMARK    1  A    between atoms: C_1  and  N_2
REMARK    2  A    between atoms: C_3  and  C_5
REMARK    3  A    between atoms: C_8  and  C_9
REMARK    4  A    between atoms: C_10  and  C_11
REMARK    5  A    between atoms: C_11  and  C_12
REMARK    6  A    between atoms: C_14  and  C_15
REMARK    7  A    between atoms: C_18  and  N_19
REMARK                            x       y       z     vdW  Elec       q    Type
REMARK                         _______ _______ _______ _____ _____    ______ ____
ROOT
ATOM      1  C   UNL     1      -1.171  14.195  21.308  0.00  0.00    +0.000 A 
ATOM      2  C   UNL     1       0.073  14.754  20.853  0.00  0.00    +0.000 A 
ATOM      3  C   UNL     1       0.531  15.976  21.406  0.00  0.00    +0.000 A 
ATOM      4  C   UNL     1      -0.122  16.568  22.519  0.00  0.00    +0.000 A 
ATOM      5  C   UNL     1       0.474  17.807  23.161  0.00  0.00    +0.000 C 
ATOM      6  C   UNL     1      -1.319  15.983  23.022  0.00  0.00    +0.000 A 
ATOM      7  C   UNL     1      -1.899  14.798  22.413  0.00  0.00    +0.000 A 
ATOM      8  S   UNL     1       1.972  16.827  20.737  0.00  0.00    +0.000 S 
ATOM      9  C   UNL     1       2.713  15.665  19.644  0.00  0.00    +0.000 A 
ATOM     10  C   UNL     1       3.962  16.004  19.103  0.00  0.00    +0.000 A 
ATOM     11  C   UNL     1       4.575  15.170  18.171  0.00  0.00    +0.000 A 
ATOM     12  C   UNL     1       3.926  14.014  17.764  0.00  0.00    +0.000 A 
ATOM     13  C   UNL     1       2.694  13.662  18.329  0.00  0.00    +0.000 A 
ATOM     14  C   UNL     1       2.083  14.470  19.301  0.00  0.00    +0.000 A 
ATOM     15  N   UNL     1       0.816  14.118  19.807  0.00  0.00    +0.000 N 
ATOM     16  H   UNL     1       0.645  13.113  19.755  0.00  0.00    +0.000 HD
ENDROOT
BRANCH   7  17
ATOM     17  C   UNL     1      -3.214  14.258  22.950  0.00  0.00    +0.000 A 
ATOM     18  C   UNL     1      -3.277  13.133  23.807  0.00  0.00    +0.000 A 
ATOM     19  C   UNL     1      -4.499  12.535  24.174  0.00  0.00    +0.000 A 
ATOM     20  C   UNL     1      -5.703  13.131  23.792  0.00  0.00    +0.000 A 
ATOM     21  C   UNL     1      -5.685  14.281  23.015  0.00  0.00    +0.000 A 
ATOM     22  C   UNL     1      -4.460  14.763  22.538  0.00  0.00    +0.000 A 
BRANCH  20  23
ATOM     23  N   UNL     1      -6.990  12.520  24.144  0.00  0.00    +0.000 N 
ATOM     24  O   UNL     1      -7.080  11.285  24.075  0.00  0.00    +0.000 OA
ATOM     25  O   UNL     1      -7.916  13.273  24.480  0.00  0.00    +0.000 OA
ENDBRANCH  20  23
ENDBRANCH   7  17
BRANCH   1  28
ATOM     26  C   UNL     1      -2.856  11.785  18.827  0.00  0.00    +0.000 C 
ATOM     27  N   UNL     1      -2.517  12.980  19.578  0.00  0.00    +0.000 N 
ATOM     28  C   UNL     1      -1.610  12.901  20.627  0.00  0.00    +0.000 C 
ATOM     29  O   UNL     1      -1.109  11.814  20.878  0.00  0.00    +0.000 OA
ATOM     30  H   UNL     1      -2.923  13.871  19.313  0.00  0.00    +0.000 HD
ENDBRANCH   1  28
BRANCH   6  31
ATOM     31  C   UNL     1      -1.864  16.481  24.352  0.00  0.00    +0.000 C 
ATOM     32  C   UNL     1      -1.477  15.864  25.688  0.00  0.00    +0.000 C 
ATOM     33  O   UNL     1      -2.645  17.430  24.332  0.00  0.00    +0.000 OA
ENDBRANCH   6  31
TORSDOF 4
ENDMDL
MODEL 6
REMARK VINA RESULT:      -6.2      3.704      7.532
REMARK  Name = 
REMARK  7 active torsions:
REMARK  status: ('A' for Active; 'I' for Inactive)
REMARK    1  A    between atoms: C_1  and  N_2
REMARK    2  A    between atoms: C_3  and  C_5
REMARK    3  A    between atoms: C_8  and  C_9
REMARK    4  A    between atoms: C_10  and  C_11
REMARK    5  A    between atoms: C_11  and  C_12
REMARK    6  A    between atoms: C_14  and  C_15
REMARK    7  A    between atoms: C_18  and  N_19
REMARK                            x       y       z     vdW  Elec       q    Type
REMARK                         _______ _______ _______ _____ _____    ______ ____
ROOT
ATOM      1  C   UNL     1      -1.226  14.246  21.219  0.00  0.00    +0.000 A 
ATOM      2  C   UNL     1       0.009  14.902  20.882  0.00  0.00    +0.000 A 
ATOM      3  C   UNL     1       0.311  16.159  21.463  0.00  0.00    +0.000 A 
ATOM      4  C   UNL     1      -0.494  16.699  22.500  0.00  0.00    +0.000 A 
ATOM      5  C   UNL     1      -0.065  17.985  23.183  0.00  0.00    +0.000 C 
ATOM      6  C   UNL     1      -1.684  16.022  22.890  0.00  0.00    +0.000 A 
ATOM      7  C   UNL     1      -2.104  14.792  22.240  0.00  0.00    +0.000 A 
ATOM      8  S   UNL     1       1.737  17.121  20.929  0.00  0.00    +0.000 S 
ATOM      9  C   UNL     1       2.674  16.020  19.927  0.00  0.00    +0.000 A 
ATOM     10  C   UNL     1       3.939  16.456  19.507  0.00  0.00    +0.000 A 
ATOM     11  C   UNL     1       4.705  15.672  18.648  0.00  0.00    +0.000 A 
ATOM     12  C   UNL     1       4.194  14.465  18.192  0.00  0.00    +0.000 A 
ATOM     13  C   UNL     1       2.944  14.017  18.638  0.00  0.00    +0.000 A 
ATOM     14  C   UNL     1       2.178  14.776  19.537  0.00  0.00    +0.000 A 
ATOM     15  N   UNL     1       0.899  14.325  19.921  0.00  0.00    +0.000 N 
ATOM     16  H   UNL     1       0.815  13.309  19.863  0.00  0.00    +0.000 HD
ENDROOT
BRANCH   7  17
ATOM     17  C   UNL     1      -3.418  14.149  22.652  0.00  0.00    +0.000 A 
ATOM     18  C   UNL     1      -4.645  14.461  22.017  0.00  0.00    +0.000 A 
ATOM     19  C   UNL     1      -5.883  13.990  22.501  0.00  0.00    +0.000 A 
ATOM     20  C   UNL     1      -5.911  13.086  23.564  0.00  0.00    +0.000 A 
ATOM     21  C   UNL     1      -4.723  12.693  24.165  0.00  0.00    +0.000 A 
ATOM     22  C   UNL     1      -3.523  13.295  23.764  0.00  0.00    +0.000 A 
BRANCH  20  23
ATOM     23  N   UNL     1      -7.185  12.595  24.100  0.00  0.00    +0.000 N 
ATOM     24  O   UNL     1      -7.464  11.400  23.922  0.00  0.00    +0.000 OA
ATOM     25  O   UNL     1      -7.916  13.405  24.692  0.00  0.00    +0.000 OA
ENDBRANCH  20  23
ENDBRANCH   7  17
BRANCH   1  28
ATOM     26  C   UNL     1      -2.498  11.696  18.635  0.00  0.00    +0.000 C 
ATOM     27  N   UNL     1      -2.327  12.914  19.404  0.00  0.00    +0.000 N 
ATOM     28  C   UNL     1      -1.490  12.918  20.512  0.00  0.00    +0.000 C 
ATOM     29  O   UNL     1      -0.905  11.884  20.799  0.00  0.00    +0.000 OA
ATOM     30  H   UNL     1      -2.798  13.763  19.109  0.00  0.00    +0.000 HD
ENDBRANCH   1  28
BRANCH   6  31
ATOM     31  C   UNL     1      -2.395  16.478  24.154  0.00  0.00    +0.000 C 
ATOM     32  C   UNL     1      -3.585  17.425  24.140  0.00  0.00    +0.000 C 
ATOM     33  O   UNL     1      -1.983  16.049  25.230  0.00  0.00    +0.000 OA
ENDBRANCH   6  31
TORSDOF 4
ENDMDL
MODEL 7
REMARK VINA RESULT:      -6.1      4.612      7.106
REMARK  Name = 
REMARK  7 active torsions:
REMARK  status: ('A' for Active; 'I' for Inactive)
REMARK    1  A    between atoms: C_1  and  N_2
REMARK    2  A    between atoms: C_3  and  C_5
REMARK    3  A    between atoms: C_8  and  C_9
REMARK    4  A    between atoms: C_10  and  C_11
REMARK    5  A    between atoms: C_11  and  C_12
REMARK    6  A    between atoms: C_14  and  C_15
REMARK    7  A    between atoms: C_18  and  N_19
REMARK                            x       y       z     vdW  Elec       q    Type
REMARK                         _______ _______ _______ _____ _____    ______ ____
ROOT
ATOM      1  C   UNL     1      -1.259  14.310  21.255  0.00  0.00    +0.000 A 
ATOM      2  C   UNL     1      -0.201  14.993  20.559  0.00  0.00    +0.000 A 
ATOM      3  C   UNL     1      -0.509  16.120  19.758  0.00  0.00    +0.000 A 
ATOM      4  C   UNL     1      -1.808  16.693  19.766  0.00  0.00    +0.000 A 
ATOM      5  C   UNL     1      -2.063  17.974  18.994  0.00  0.00    +0.000 C 
ATOM      6  C   UNL     1      -2.848  16.063  20.508  0.00  0.00    +0.000 A 
ATOM      7  C   UNL     1      -2.614  14.835  21.249  0.00  0.00    +0.000 A 
ATOM      8  S   UNL     1       0.734  16.891  18.705  0.00  0.00    +0.000 S 
ATOM      9  C   UNL     1       2.258  16.170  19.208  0.00  0.00    +0.000 A 
ATOM     10  C   UNL     1       3.432  16.713  18.664  0.00  0.00    +0.000 A 
ATOM     11  C   UNL     1       4.670  16.146  18.954  0.00  0.00    +0.000 A 
ATOM     12  C   UNL     1       4.729  15.023  19.767  0.00  0.00    +0.000 A 
ATOM     13  C   UNL     1       3.559  14.502  20.334  0.00  0.00    +0.000 A 
ATOM     14  C   UNL     1       2.308  15.088  20.085  0.00  0.00    +0.000 A 
ATOM     15  N   UNL     1       1.143  14.504  20.623  0.00  0.00    +0.000 N 
ATOM     16  H   UNL     1       1.334  13.980  21.478  0.00  0.00    +0.000 HD
ENDROOT
BRANCH   7  17
ATOM     17  C   UNL     1      -3.778  14.171  21.966  0.00  0.00    +0.000 A 
ATOM     18  C   UNL     1      -4.688  13.314  21.301  0.00  0.00    +0.000 A 
ATOM     19  C   UNL     1      -5.855  12.828  21.924  0.00  0.00    +0.000 A 
ATOM     20  C   UNL     1      -6.075  13.088  23.278  0.00  0.00    +0.000 A 
ATOM     21  C   UNL     1      -5.166  13.860  23.988  0.00  0.00    +0.000 A 
ATOM     22  C   UNL     1      -4.098  14.456  23.306  0.00  0.00    +0.000 A 
BRANCH  20  23
ATOM     23  N   UNL     1      -7.292  12.611  23.947  0.00  0.00    +0.000 N 
ATOM     24  O   UNL     1      -7.632  11.434  23.755  0.00  0.00    +0.000 OA
ATOM     25  O   UNL     1      -7.915  13.414  24.658  0.00  0.00    +0.000 OA
ENDBRANCH  20  23
ENDBRANCH   7  17
BRANCH   1  28
ATOM     26  C   UNL     1      -0.517  10.647  22.169  0.00  0.00    +0.000 C 
ATOM     27  N   UNL     1      -1.017  11.826  21.486  0.00  0.00    +0.000 N 
ATOM     28  C   UNL     1      -0.843  13.080  22.059  0.00  0.00    +0.000 C 
ATOM     29  O   UNL     1      -0.254  13.151  23.127  0.00  0.00    +0.000 OA
ATOM     30  H   UNL     1      -1.465  11.729  20.581  0.00  0.00    +0.000 HD
ENDBRANCH   1  28
BRANCH   6  31
ATOM     31  C   UNL     1      -4.154  16.816  20.704  0.00  0.00    +0.000 C 
ATOM     32  C   UNL     1      -4.361  17.844  21.806  0.00  0.00    +0.000 C 
ATOM     33  O   UNL     1      -5.075  16.579  19.925  0.00  0.00    +0.000 OA
ENDBRANCH   6  31
TORSDOF 4
ENDMDL
MODEL 8
REMARK VINA RESULT:      -6.1      3.577      8.255
REMARK  Name = 
REMARK  7 active torsions:
REMARK  status: ('A' for Active; 'I' for Inactive)
REMARK    1  A    between atoms: C_1  and  N_2
REMARK    2  A    between atoms: C_3  and  C_5
REMARK    3  A    between atoms: C_8  and  C_9
REMARK    4  A    between atoms: C_10  and  C_11
REMARK    5  A    between atoms: C_11  and  C_12
REMARK    6  A    between atoms: C_14  and  C_15
REMARK    7  A    between atoms: C_18  and  N_19
REMARK                            x       y       z     vdW  Elec       q    Type
REMARK                         _______ _______ _______ _____ _____    ______ ____
ROOT
ATOM      1  C   UNL     1      -2.128  13.622  21.593  0.00  0.00    +0.000 A 
ATOM      2  C   UNL     1      -2.826  13.003  20.499  0.00  0.00    +0.000 A 
ATOM      3  C   UNL     1      -4.214  13.238  20.335  0.00  0.00    +0.000 A 
ATOM      4  C   UNL     1      -4.890  14.207  21.122  0.00  0.00    +0.000 A 
ATOM      5  C   UNL     1      -6.346  14.520  20.830  0.00  0.00    +0.000 C 
ATOM      6  C   UNL     1      -4.190  14.877  22.165  0.00  0.00    +0.000 A 
ATOM      7  C   UNL     1      -2.797  14.582  22.454  0.00  0.00    +0.000 A 
ATOM      8  S   UNL     1      -5.181  12.336  19.112  0.00  0.00    +0.000 S 
ATOM      9  C   UNL     1      -3.989  11.516  18.111  0.00  0.00    +0.000 A 
ATOM     10  C   UNL     1      -4.459  10.864  16.961  0.00  0.00    +0.000 A 
ATOM     11  C   UNL     1      -3.587  10.129  16.163  0.00  0.00    +0.000 A 
ATOM     12  C   UNL     1      -2.253  10.027  16.529  0.00  0.00    +0.000 A 
ATOM     13  C   UNL     1      -1.780  10.705  17.660  0.00  0.00    +0.000 A 
ATOM     14  C   UNL     1      -2.638  11.485  18.452  0.00  0.00    +0.000 A 
ATOM     15  N   UNL     1      -2.143  12.106  19.616  0.00  0.00    +0.000 N 
ATOM     16  H   UNL     1      -1.141  12.295  19.555  0.00  0.00    +0.000 HD
ENDROOT
BRANCH   7  17
ATOM     17  C   UNL     1      -2.120  15.279  23.623  0.00  0.00    +0.000 A 
ATOM     18  C   UNL     1      -1.269  16.397  23.448  0.00  0.00    +0.000 A 
ATOM     19  C   UNL     1      -0.516  16.942  24.508  0.00  0.00    +0.000 A 
ATOM     20  C   UNL     1      -0.697  16.457  25.805  0.00  0.00    +0.000 A 
ATOM     21  C   UNL     1      -1.583  15.413  26.033  0.00  0.00    +0.000 A 
ATOM     22  C   UNL     1      -2.199  14.791  24.939  0.00  0.00    +0.000 A 
BRANCH  20  23
ATOM     23  N   UNL     1       0.087  16.993  26.924  0.00  0.00    +0.000 N 
ATOM     24  O   UNL     1      -0.324  18.026  27.474  0.00  0.00    +0.000 OA
ATOM     25  O   UNL     1       1.120  16.388  27.250  0.00  0.00    +0.000 OA
ENDBRANCH  20  23
ENDBRANCH   7  17
BRANCH   1  28
ATOM     26  C   UNL     1       1.701  13.894  21.330  0.00  0.00    +0.000 C 
ATOM     27  N   UNL     1       0.282  14.121  21.122  0.00  0.00    +0.000 N 
ATOM     28  C   UNL     1      -0.645  13.277  21.719  0.00  0.00    +0.000 C 
ATOM     29  O   UNL     1      -0.231  12.366  22.421  0.00  0.00    +0.000 OA
ATOM     30  H   UNL     1      -0.022  14.912  20.565  0.00  0.00    +0.000 HD
ENDBRANCH   1  28
BRANCH   6  31
ATOM     31  C   UNL     1      -4.853  16.074  22.828  0.00  0.00    +0.000 C 
ATOM     32  C   UNL     1      -5.677  15.964  24.103  0.00  0.00    +0.000 C 
ATOM     33  O   UNL     1      -4.702  17.176  22.305  0.00  0.00    +0.000 OA
ENDBRANCH   6  31
TORSDOF 4
ENDMDL
MODEL 9
REMARK VINA RESULT:      -5.8      4.832      7.273
REMARK  Name = 
REMARK  7 active torsions:
REMARK  status: ('A' for Active; 'I' for Inactive)
REMARK    1  A    between atoms: C_1  and  N_2
REMARK    2  A    between atoms: C_3  and  C_5
REMARK    3  A    between atoms: C_8  and  C_9
REMARK    4  A    between atoms: C_10  and  C_11
REMARK    5  A    between atoms: C_11  and  C_12
REMARK    6  A    between atoms: C_14  and  C_15
REMARK    7  A    between atoms: C_18  and  N_19
REMARK                            x       y       z     vdW  Elec       q    Type
REMARK                         _______ _______ _______ _____ _____    ______ ____
ROOT
ATOM      1  C   UNL     1      -1.263  14.630  21.096  0.00  0.00    +0.000 A 
ATOM      2  C   UNL     1      -0.184  15.230  20.357  0.00  0.00    +0.000 A 
ATOM      3  C   UNL     1      -0.439  16.371  19.555  0.00  0.00    +0.000 A 
ATOM      4  C   UNL     1      -1.693  17.035  19.603  0.00  0.00    +0.000 A 
ATOM      5  C   UNL     1      -1.883  18.325  18.827  0.00  0.00    +0.000 C 
ATOM      6  C   UNL     1      -2.748  16.486  20.386  0.00  0.00    +0.000 A 
ATOM      7  C   UNL     1      -2.576  15.250  21.131  0.00  0.00    +0.000 A 
ATOM      8  S   UNL     1       0.817  17.043  18.453  0.00  0.00    +0.000 S 
ATOM      9  C   UNL     1       2.304  16.219  18.909  0.00  0.00    +0.000 A 
ATOM     10  C   UNL     1       3.493  16.673  18.320  0.00  0.00    +0.000 A 
ATOM     11  C   UNL     1       4.697  16.021  18.573  0.00  0.00    +0.000 A 
ATOM     12  C   UNL     1       4.705  14.903  19.394  0.00  0.00    +0.000 A 
ATOM     13  C   UNL     1       3.522  14.471  20.007  0.00  0.00    +0.000 A 
ATOM     14  C   UNL     1       2.307  15.143  19.795  0.00  0.00    +0.000 A 
ATOM     15  N   UNL     1       1.123  14.648  20.379  0.00  0.00    +0.000 N 
ATOM     16  H   UNL     1       1.307  14.117  21.232  0.00  0.00    +0.000 HD
ENDROOT
BRANCH   7  17
ATOM     17  C   UNL     1      -3.758  14.677  21.895  0.00  0.00    +0.000 A 
ATOM     18  C   UNL     1      -3.940  14.892  23.283  0.00  0.00    +0.000 A 
ATOM     19  C   UNL     1      -4.942  14.231  24.022  0.00  0.00    +0.000 A 
ATOM     20  C   UNL     1      -5.873  13.429  23.359  0.00  0.00    +0.000 A 
ATOM     21  C   UNL     1      -5.779  13.254  21.986  0.00  0.00    +0.000 A 
ATOM     22  C   UNL     1      -4.683  13.799  21.303  0.00  0.00    +0.000 A 
BRANCH  20  23
ATOM     23  N   UNL     1      -6.915  12.714  24.106  0.00  0.00    +0.000 N 
ATOM     24  O   UNL     1      -6.741  11.506  24.325  0.00  0.00    +0.000 OA
ATOM     25  O   UNL     1      -7.914  13.356  24.466  0.00  0.00    +0.000 OA
ENDBRANCH  20  23
ENDBRANCH   7  17
BRANCH   1  28
ATOM     26  C   UNL     1      -0.809  10.929  22.043  0.00  0.00    +0.000 C 
ATOM     27  N   UNL     1      -1.244  12.139  21.371  0.00  0.00    +0.000 N 
ATOM     28  C   UNL     1      -0.908  13.379  21.897  0.00  0.00    +0.000 C 
ATOM     29  O   UNL     1      -0.234  13.412  22.917  0.00  0.00    +0.000 OA
ATOM     30  H   UNL     1      -1.767  12.070  20.504  0.00  0.00    +0.000 HD
ENDBRANCH   1  28
BRANCH   6  31
ATOM     31  C   UNL     1      -3.990  17.332  20.620  0.00  0.00    +0.000 C 
ATOM     32  C   UNL     1      -5.234  17.236  19.748  0.00  0.00    +0.000 C 
ATOM     33  O   UNL     1      -3.979  18.119  21.564  0.00  0.00    +0.000 OA
ENDBRANCH   6  31
TORSDOF 4
ENDMDL
