MODEL 1
REMARK VINA RESULT:      -7.1      0.000      0.000
REMARK  Name = 
REMARK  6 active torsions:
REMARK  status: ('A' for Active; 'I' for Inactive)
REMARK    1  A    between atoms: O_1  and  C_2
REMARK    2  A    between atoms: C_3  and  O_4
REMARK    3  A    between atoms: C_8  and  N_9
REMARK    4  A    between atoms: N_14  and  C_15
REMARK    5  A    between atoms: C_15  and  C_16
REMARK    6  A    between atoms: C_15  and  C_20
REMARK                            x       y       z     vdW  Elec       q    Type
REMARK                         _______ _______ _______ _____ _____    ______ ____
ROOT
ATOM      1  N   UNL     1       2.562   6.957  18.857  0.00  0.00    +0.000 N 
ATOM      2  C   UNL     1       2.828   7.437  17.602  0.00  0.00    +0.000 A 
ATOM      3  N   UNL     1       2.420   8.678  17.448  0.00  0.00    +0.000 NA
ATOM      4  C   UNL     1       1.836   9.009  18.653  0.00  0.00    +0.000 A 
ATOM      5  C   UNL     1       1.285  10.221  19.133  0.00  0.00    +0.000 A 
ATOM      6  N   UNL     1       1.262  11.374  18.346  0.00  0.00    +0.000 N 
ATOM      7  N   UNL     1       0.772  10.219  20.389  0.00  0.00    +0.000 NA
ATOM      8  C   UNL     1       0.820   9.074  21.095  0.00  0.00    +0.000 A 
ATOM      9 CL   UNL     1       0.068   9.125  22.631  0.00  0.00    +0.000 Cl
ATOM     10  N   UNL     1       1.373   7.887  20.771  0.00  0.00    +0.000 NA
ATOM     11  C   UNL     1       1.870   7.933  19.524  0.00  0.00    +0.000 A 
ATOM     12  H   UNL     1       1.824  11.240  17.509  0.00  0.00    +0.000 HD
ENDROOT
BRANCH   1  18
ATOM     13  C   UNL     1       2.004   4.598  19.500  0.00  0.00    +0.000 C 
ATOM     14  C   UNL     1       2.817   3.279  19.521  0.00  0.00    +0.000 C 
ATOM     15  C   UNL     1       4.032   3.574  18.688  0.00  0.00    +0.000 C 
ATOM     16  C   UNL     1       5.266   4.238  19.242  0.00  0.00    +0.000 C 
ATOM     17  C   UNL     1       4.194   5.069  18.579  0.00  0.00    +0.000 C 
ATOM     18  C   UNL     1       3.085   5.707  19.392  0.00  0.00    +0.000 C 
BRANCH  13  19
ATOM     19  O   UNL     1       1.238   4.747  20.696  0.00  0.00    +0.000 OA
ATOM     20  H   UNL     1       1.526   4.042  21.306  0.00  0.00    +0.000 HD
ENDBRANCH  13  19
BRANCH  14  21
ATOM     21  O   UNL     1       3.221   2.923  20.841  0.00  0.00    +0.000 OA
ATOM     22  H   UNL     1       3.827   2.163  20.766  0.00  0.00    +0.000 HD
ENDBRANCH  14  21
ENDBRANCH   1  18
BRANCH   6  23
ATOM     23  C   UNL     1       1.388  12.679  19.009  0.00  0.00    +0.000 C 
BRANCH  23  24
ATOM     24  C   UNL     1       0.030  13.403  18.955  0.00  0.00    +0.000 C 
ATOM     25  C   UNL     1      -0.719  13.670  20.281  0.00  0.00    +0.000 C 
ATOM     26  C   UNL     1      -1.854  12.747  19.818  0.00  0.00    +0.000 C 
ATOM     27  C   UNL     1      -1.256  12.735  18.406  0.00  0.00    +0.000 C 
ENDBRANCH  23  24
BRANCH  23  28
ATOM     28  C   UNL     1       2.517  13.415  18.306  0.00  0.00    +0.000 C 
ATOM     29  C   UNL     1       2.605  14.918  18.168  0.00  0.00    +0.000 C 
ATOM     30  C   UNL     1       3.507  14.211  19.134  0.00  0.00    +0.000 C 
ENDBRANCH  23  28
ENDBRANCH   6  23
TORSDOF 6
ENDMDL
MODEL 2
REMARK VINA RESULT:      -6.2      1.525      1.985
REMARK  Name = 
REMARK  6 active torsions:
REMARK  status: ('A' for Active; 'I' for Inactive)
REMARK    1  A    between atoms: O_1  and  C_2
REMARK    2  A    between atoms: C_3  and  O_4
REMARK    3  A    between atoms: C_8  and  N_9
REMARK    4  A    between atoms: N_14  and  C_15
REMARK    5  A    between atoms: C_15  and  C_16
REMARK    6  A    between atoms: C_15  and  C_20
REMARK                            x       y       z     vdW  Elec       q    Type
REMARK                         _______ _______ _______ _____ _____    ______ ____
ROOT
ATOM      1  N   UNL     1       1.912   8.205  18.850  0.00  0.00    +0.000 N 
ATOM      2  C   UNL     1       1.609   8.825  17.667  0.00  0.00    +0.000 A 
ATOM      3  N   UNL     1       0.880   9.906  17.844  0.00  0.00    +0.000 NA
ATOM      4  C   UNL     1       0.678   9.975  19.207  0.00  0.00    +0.000 A 
ATOM      5  C   UNL     1       0.043  10.944  20.019  0.00  0.00    +0.000 A 
ATOM      6  N   UNL     1      -0.530  12.093  19.470  0.00  0.00    +0.000 N 
ATOM      7  N   UNL     1       0.004  10.711  21.354  0.00  0.00    +0.000 NA
ATOM      8  C   UNL     1       0.570   9.582  21.821  0.00  0.00    +0.000 A 
ATOM      9 CL   UNL     1       0.397   9.313  23.502  0.00  0.00    +0.000 Cl
ATOM     10  N   UNL     1       1.254   8.628  21.159  0.00  0.00    +0.000 NA
ATOM     11  C   UNL     1       1.270   8.897  19.843  0.00  0.00    +0.000 A 
ATOM     12  H   UNL     1      -0.271  12.182  18.490  0.00  0.00    +0.000 HD
ENDROOT
BRANCH   1  18
ATOM     13  C   UNL     1       2.222   5.787  19.437  0.00  0.00    +0.000 C 
ATOM     14  C   UNL     1       3.235   4.703  18.987  0.00  0.00    +0.000 C 
ATOM     15  C   UNL     1       3.875   5.277  17.755  0.00  0.00    +0.000 C 
ATOM     16  C   UNL     1       5.046   6.223  17.801  0.00  0.00    +0.000 C 
ATOM     17  C   UNL     1       3.639   6.765  17.733  0.00  0.00    +0.000 C 
ATOM     18  C   UNL     1       2.876   7.123  18.993  0.00  0.00    +0.000 C 
BRANCH  13  19
ATOM     19  O   UNL     1       2.033   5.757  20.852  0.00  0.00    +0.000 OA
ATOM     20  H   UNL     1       1.072   5.814  21.010  0.00  0.00    +0.000 HD
ENDBRANCH  13  19
BRANCH  14  21
ATOM     21  O   UNL     1       4.235   4.467  19.976  0.00  0.00    +0.000 OA
ATOM     22  H   UNL     1       5.059   4.882  19.662  0.00  0.00    +0.000 HD
ENDBRANCH  14  21
ENDBRANCH   1  18
BRANCH   6  23
ATOM     23  C   UNL     1      -0.512  13.332  20.259  0.00  0.00    +0.000 C 
BRANCH  23  24
ATOM     24  C   UNL     1      -1.959  13.737  20.593  0.00  0.00    +0.000 C 
ATOM     25  C   UNL     1      -2.307  14.106  22.053  0.00  0.00    +0.000 C 
ATOM     26  C   UNL     1      -3.248  12.896  22.128  0.00  0.00    +0.000 C 
ATOM     27  C   UNL     1      -3.131  12.723  20.609  0.00  0.00    +0.000 C 
ENDBRANCH  23  24
BRANCH  23  28
ATOM     28  C   UNL     1       0.251  14.359  19.436  0.00  0.00    +0.000 C 
ATOM     29  C   UNL     1       0.311  15.836  19.753  0.00  0.00    +0.000 C 
ATOM     30  C   UNL     1       1.511  14.976  20.011  0.00  0.00    +0.000 C 
ENDBRANCH  23  28
ENDBRANCH   6  23
TORSDOF 6
ENDMDL
MODEL 3
REMARK VINA RESULT:      -5.9      5.767      8.702
REMARK  Name = 
REMARK  6 active torsions:
REMARK  status: ('A' for Active; 'I' for Inactive)
REMARK    1  A    between atoms: O_1  and  C_2
REMARK    2  A    between atoms: C_3  and  O_4
REMARK    3  A    between atoms: C_8  and  N_9
REMARK    4  A    between atoms: N_14  and  C_15
REMARK    5  A    between atoms: C_15  and  C_16
REMARK    6  A    between atoms: C_15  and  C_20
REMARK                            x       y       z     vdW  Elec       q    Type
REMARK                         _______ _______ _______ _____ _____    ______ ____
ROOT
ATOM      1  N   UNL     1      -3.782  13.294  22.468  0.00  0.00    +0.000 N 
ATOM      2  C   UNL     1      -3.580  14.586  22.061  0.00  0.00    +0.000 A 
ATOM      3  N   UNL     1      -2.310  14.843  21.833  0.00  0.00    +0.000 NA
ATOM      4  C   UNL     1      -1.653  13.667  22.133  0.00  0.00    +0.000 A 
ATOM      5  C   UNL     1      -0.295  13.289  22.016  0.00  0.00    +0.000 A 
ATOM      6  N   UNL     1       0.667  14.171  21.520  0.00  0.00    +0.000 N 
ATOM      7  N   UNL     1       0.040  12.035  22.410  0.00  0.00    +0.000 NA
ATOM      8  C   UNL     1      -0.933  11.235  22.883  0.00  0.00    +0.000 A 
ATOM      9 CL   UNL     1      -0.417   9.705  23.449  0.00  0.00    +0.000 Cl
ATOM     10  N   UNL     1      -2.259  11.460  22.979  0.00  0.00    +0.000 NA
ATOM     11  C   UNL     1      -2.548  12.708  22.578  0.00  0.00    +0.000 A 
ATOM     12  H   UNL     1       0.220  14.997  21.129  0.00  0.00    +0.000 HD
ENDROOT
BRANCH   1  18
ATOM     13  C   UNL     1      -5.728  12.842  23.984  0.00  0.00    +0.000 C 
ATOM     14  C   UNL     1      -7.243  12.629  23.737  0.00  0.00    +0.000 C 
ATOM     15  C   UNL     1      -7.467  13.119  22.335  0.00  0.00    +0.000 C 
ATOM     16  C   UNL     1      -7.240  12.259  21.119  0.00  0.00    +0.000 C 
ATOM     17  C   UNL     1      -6.141  13.165  21.620  0.00  0.00    +0.000 C 
ATOM     18  C   UNL     1      -5.087  12.657  22.582  0.00  0.00    +0.000 C 
BRANCH  13  19
ATOM     19  O   UNL     1      -5.218  11.881  24.909  0.00  0.00    +0.000 OA
ATOM     20  H   UNL     1      -4.808  11.170  24.380  0.00  0.00    +0.000 HD
ENDBRANCH  13  19
BRANCH  14  21
ATOM     21  O   UNL     1      -7.607  11.253  23.825  0.00  0.00    +0.000 OA
ATOM     22  H   UNL     1      -6.902  10.796  24.319  0.00  0.00    +0.000 HD
ENDBRANCH  14  21
ENDBRANCH   1  18
BRANCH   6  23
ATOM     23  C   UNL     1       1.795  13.622  20.756  0.00  0.00    +0.000 C 
BRANCH  23  24
ATOM     24  C   UNL     1       2.984  14.598  20.843  0.00  0.00    +0.000 C 
ATOM     25  C   UNL     1       4.257  14.148  21.596  0.00  0.00    +0.000 C 
ATOM     26  C   UNL     1       4.027  15.256  22.633  0.00  0.00    +0.000 C 
ATOM     27  C   UNL     1       2.959  15.874  21.723  0.00  0.00    +0.000 C 
ENDBRANCH  23  24
BRANCH  23  28
ATOM     28  C   UNL     1       1.286  13.382  19.344  0.00  0.00    +0.000 C 
ATOM     29  C   UNL     1       2.140  13.469  18.098  0.00  0.00    +0.000 C 
ATOM     30  C   UNL     1       1.714  12.126  18.609  0.00  0.00    +0.000 C 
ENDBRANCH  23  28
ENDBRANCH   6  23
TORSDOF 6
ENDMDL
MODEL 4
REMARK VINA RESULT:      -5.9      2.956      4.847
REMARK  Name = 
REMARK  6 active torsions:
REMARK  status: ('A' for Active; 'I' for Inactive)
REMARK    1  A    between atoms: O_1  and  C_2
REMARK    2  A    between atoms: C_3  and  O_4
REMARK    3  A    between atoms: C_8  and  N_9
REMARK    4  A    between atoms: N_14  and  C_15
REMARK    5  A    between atoms: C_15  and  C_16
REMARK    6  A    between atoms: C_15  and  C_20
REMARK                            x       y       z     vdW  Elec       q    Type
REMARK                         _______ _______ _______ _____ _____    ______ ____
ROOT
ATOM      1  N   UNL     1       1.074   8.730  20.810  0.00  0.00    +0.000 N 
ATOM      2  C   UNL     1       1.418   8.924  22.122  0.00  0.00    +0.000 A 
ATOM      3  N   UNL     1       0.919  10.042  22.606  0.00  0.00    +0.000 NA
ATOM      4  C   UNL     1       0.242  10.613  21.549  0.00  0.00    +0.000 A 
ATOM      5  C   UNL     1      -0.561  11.774  21.459  0.00  0.00    +0.000 A 
ATOM      6  N   UNL     1      -0.795  12.586  22.571  0.00  0.00    +0.000 N 
ATOM      7  N   UNL     1      -1.092  12.074  20.248  0.00  0.00    +0.000 NA
ATOM      8  C   UNL     1      -0.825  11.255  19.214  0.00  0.00    +0.000 A 
ATOM      9 CL   UNL     1      -1.449  11.751  17.701  0.00  0.00    +0.000 Cl
ATOM     10  N   UNL     1      -0.134  10.096  19.193  0.00  0.00    +0.000 NA
ATOM     11  C   UNL     1       0.371   9.835  20.410  0.00  0.00    +0.000 A 
ATOM     12  H   UNL     1      -0.459  12.131  23.417  0.00  0.00    +0.000 HD
ENDROOT
BRANCH   1  18
ATOM     13  C   UNL     1       2.409   7.614  19.004  0.00  0.00    +0.000 C 
ATOM     14  C   UNL     1       2.862   6.151  18.765  0.00  0.00    +0.000 C 
ATOM     15  C   UNL     1       2.654   5.472  20.089  0.00  0.00    +0.000 C 
ATOM     16  C   UNL     1       1.330   4.896  20.518  0.00  0.00    +0.000 C 
ATOM     17  C   UNL     1       1.706   6.303  20.916  0.00  0.00    +0.000 C 
ATOM     18  C   UNL     1       1.290   7.492  20.074  0.00  0.00    +0.000 C 
BRANCH  13  19
ATOM     19  O   UNL     1       1.904   8.198  17.803  0.00  0.00    +0.000 OA
ATOM     20  H   UNL     1       2.044   9.161  17.876  0.00  0.00    +0.000 HD
ENDBRANCH  13  19
BRANCH  14  21
ATOM     21  O   UNL     1       2.071   5.505  17.770  0.00  0.00    +0.000 OA
ATOM     22  H   UNL     1       2.571   4.728  17.459  0.00  0.00    +0.000 HD
ENDBRANCH  14  21
ENDBRANCH   1  18
BRANCH   6  23
ATOM     23  C   UNL     1      -2.088  13.275  22.677  0.00  0.00    +0.000 C 
BRANCH  23  24
ATOM     24  C   UNL     1      -1.898  14.582  23.469  0.00  0.00    +0.000 C 
ATOM     25  C   UNL     1      -2.661  15.845  23.008  0.00  0.00    +0.000 C 
ATOM     26  C   UNL     1      -1.324  16.529  22.692  0.00  0.00    +0.000 C 
ATOM     27  C   UNL     1      -0.585  15.404  23.428  0.00  0.00    +0.000 C 
ENDBRANCH  23  24
BRANCH  23  28
ATOM     28  C   UNL     1      -3.053  12.291  23.318  0.00  0.00    +0.000 C 
ATOM     29  C   UNL     1      -3.974  12.621  24.471  0.00  0.00    +0.000 C 
ATOM     30  C   UNL     1      -4.543  12.466  23.094  0.00  0.00    +0.000 C 
ENDBRANCH  23  28
ENDBRANCH   6  23
TORSDOF 6
ENDMDL
MODEL 5
REMARK VINA RESULT:      -5.8      0.860      2.270
REMARK  Name = 
REMARK  6 active torsions:
REMARK  status: ('A' for Active; 'I' for Inactive)
REMARK    1  A    between atoms: O_1  and  C_2
REMARK    2  A    between atoms: C_3  and  O_4
REMARK    3  A    between atoms: C_8  and  N_9
REMARK    4  A    between atoms: N_14  and  C_15
REMARK    5  A    between atoms: C_15  and  C_16
REMARK    6  A    between atoms: C_15  and  C_20
REMARK                            x       y       z     vdW  Elec       q    Type
REMARK                         _______ _______ _______ _____ _____    ______ ____
ROOT
ATOM      1  N   UNL     1       2.310   7.523  18.869  0.00  0.00    +0.000 N 
ATOM      2  C   UNL     1       2.394   8.049  17.607  0.00  0.00    +0.000 A 
ATOM      3  N   UNL     1       1.851   9.245  17.529  0.00  0.00    +0.000 NA
ATOM      4  C   UNL     1       1.367   9.495  18.797  0.00  0.00    +0.000 A 
ATOM      5  C   UNL     1       0.752  10.636  19.364  0.00  0.00    +0.000 A 
ATOM      6  N   UNL     1       0.532  11.794  18.614  0.00  0.00    +0.000 N 
ATOM      7  N   UNL     1       0.377  10.562  20.665  0.00  0.00    +0.000 NA
ATOM      8  C   UNL     1       0.611   9.416  21.331  0.00  0.00    +0.000 A 
ATOM      9 CL   UNL     1       0.023   9.365  22.937  0.00  0.00    +0.000 Cl
ATOM     10  N   UNL     1       1.242   8.297  20.920  0.00  0.00    +0.000 NA
ATOM     11  C   UNL     1       1.599   8.414  19.630  0.00  0.00    +0.000 A 
ATOM     12  H   UNL     1       1.014  11.731  17.720  0.00  0.00    +0.000 HD
ENDROOT
BRANCH   1  18
ATOM     13  C   UNL     1       2.089   5.074  19.359  0.00  0.00    +0.000 C 
ATOM     14  C   UNL     1       3.073   3.879  19.283  0.00  0.00    +0.000 C 
ATOM     15  C   UNL     1       4.221   4.391  18.459  0.00  0.00    +0.000 C 
ATOM     16  C   UNL     1       5.364   5.179  19.043  0.00  0.00    +0.000 C 
ATOM     17  C   UNL     1       4.176   5.898  18.449  0.00  0.00    +0.000 C 
ATOM     18  C   UNL     1       3.007   6.324  19.314  0.00  0.00    +0.000 C 
BRANCH  13  19
ATOM     19  O   UNL     1       1.333   5.040  20.570  0.00  0.00    +0.000 OA
ATOM     20  H   UNL     1       1.109   4.104  20.737  0.00  0.00    +0.000 HD
ENDBRANCH  13  19
BRANCH  14  21
ATOM     21  O   UNL     1       3.547   3.497  20.572  0.00  0.00    +0.000 OA
ATOM     22  H   UNL     1       2.783   3.508  21.178  0.00  0.00    +0.000 HD
ENDBRANCH  14  21
ENDBRANCH   1  18
BRANCH   6  23
ATOM     23  C   UNL     1       0.597  13.094  19.296  0.00  0.00    +0.000 C 
BRANCH  23  24
ATOM     24  C   UNL     1       2.072  13.515  19.435  0.00  0.00    +0.000 C 
ATOM     25  C   UNL     1       2.416  15.022  19.420  0.00  0.00    +0.000 C 
ATOM     26  C   UNL     1       3.205  14.822  18.119  0.00  0.00    +0.000 C 
ATOM     27  C   UNL     1       3.115  13.303  18.309  0.00  0.00    +0.000 C 
ENDBRANCH  23  24
BRANCH  23  28
ATOM     28  C   UNL     1      -0.133  12.926  20.619  0.00  0.00    +0.000 C 
ATOM     29  C   UNL     1      -0.087  13.924  21.755  0.00  0.00    +0.000 C 
ATOM     30  C   UNL     1      -1.326  13.813  20.920  0.00  0.00    +0.000 C 
ENDBRANCH  23  28
ENDBRANCH   6  23
TORSDOF 6
ENDMDL
MODEL 6
REMARK VINA RESULT:      -5.7      3.063      7.702
REMARK  Name = 
REMARK  6 active torsions:
REMARK  status: ('A' for Active; 'I' for Inactive)
REMARK    1  A    between atoms: O_1  and  C_2
REMARK    2  A    between atoms: C_3  and  O_4
REMARK    3  A    between atoms: C_8  and  N_9
REMARK    4  A    between atoms: N_14  and  C_15
REMARK    5  A    between atoms: C_15  and  C_16
REMARK    6  A    between atoms: C_15  and  C_20
REMARK                            x       y       z     vdW  Elec       q    Type
REMARK                         _______ _______ _______ _____ _____    ______ ____
ROOT
ATOM      1  N   UNL     1       1.331   9.506  18.612  0.00  0.00    +0.000 N 
ATOM      2  C   UNL     1       2.128  10.107  17.675  0.00  0.00    +0.000 A 
ATOM      3  N   UNL     1       3.141   9.345  17.320  0.00  0.00    +0.000 NA
ATOM      4  C   UNL     1       3.008   8.204  18.084  0.00  0.00    +0.000 A 
ATOM      5  C   UNL     1       3.736   6.992  18.105  0.00  0.00    +0.000 A 
ATOM      6  N   UNL     1       4.815   6.775  17.245  0.00  0.00    +0.000 N 
ATOM      7  N   UNL     1       3.351   6.047  18.999  0.00  0.00    +0.000 NA
ATOM      8  C   UNL     1       2.307   6.319  19.804  0.00  0.00    +0.000 A 
ATOM      9 CL   UNL     1       1.944   5.119  20.968  0.00  0.00    +0.000 Cl
ATOM     10  N   UNL     1       1.503   7.402  19.831  0.00  0.00    +0.000 NA
ATOM     11  C   UNL     1       1.916   8.309  18.931  0.00  0.00    +0.000 A 
ATOM     12  H   UNL     1       4.861   7.512  16.544  0.00  0.00    +0.000 HD
ENDROOT
BRANCH   1  18
ATOM     13  C   UNL     1       0.110  11.388  19.733  0.00  0.00    +0.000 C 
ATOM     14  C   UNL     1      -1.317  11.973  19.578  0.00  0.00    +0.000 C 
ATOM     15  C   UNL     1      -1.815  11.408  18.278  0.00  0.00    +0.000 C 
ATOM     16  C   UNL     1      -2.458  10.051  18.165  0.00  0.00    +0.000 C 
ATOM     17  C   UNL     1      -0.976  10.209  17.918  0.00  0.00    +0.000 C 
ATOM     18  C   UNL     1       0.029  10.005  19.033  0.00  0.00    +0.000 C 
BRANCH  13  19
ATOM     19  O   UNL     1       0.459  11.242  21.110  0.00  0.00    +0.000 OA
ATOM     20  H   UNL     1       1.085  10.496  21.166  0.00  0.00    +0.000 HD
ENDBRANCH  13  19
BRANCH  14  21
ATOM     21  O   UNL     1      -2.178  11.560  20.637  0.00  0.00    +0.000 OA
ATOM     22  H   UNL     1      -2.806  10.913  20.267  0.00  0.00    +0.000 HD
ENDBRANCH  14  21
ENDBRANCH   1  18
BRANCH   6  23
ATOM     23  C   UNL     1       5.066   5.409  16.766  0.00  0.00    +0.000 C 
BRANCH  23  24
ATOM     24  C   UNL     1       6.255   4.815  17.544  0.00  0.00    +0.000 C 
ATOM     25  C   UNL     1       6.049   4.427  19.026  0.00  0.00    +0.000 C 
ATOM     26  C   UNL     1       7.068   5.497  19.440  0.00  0.00    +0.000 C 
ATOM     27  C   UNL     1       7.483   5.657  17.973  0.00  0.00    +0.000 C 
ENDBRANCH  23  24
BRANCH  23  28
ATOM     28  C   UNL     1       5.290   5.511  15.265  0.00  0.00    +0.000 C 
ATOM     29  C   UNL     1       6.533   5.029  14.550  0.00  0.00    +0.000 C 
ATOM     30  C   UNL     1       5.261   4.247  14.428  0.00  0.00    +0.000 C 
ENDBRANCH  23  28
ENDBRANCH   6  23
TORSDOF 6
ENDMDL
MODEL 7
REMARK VINA RESULT:      -5.7      6.464      8.866
REMARK  Name = 
REMARK  6 active torsions:
REMARK  status: ('A' for Active; 'I' for Inactive)
REMARK    1  A    between atoms: O_1  and  C_2
REMARK    2  A    between atoms: C_3  and  O_4
REMARK    3  A    between atoms: C_8  and  N_9
REMARK    4  A    between atoms: N_14  and  C_15
REMARK    5  A    between atoms: C_15  and  C_16
REMARK    6  A    between atoms: C_15  and  C_20
REMARK                            x       y       z     vdW  Elec       q    Type
REMARK                         _______ _______ _______ _____ _____    ______ ____
ROOT
ATOM      1  N   UNL     1      -3.778  13.376  22.221  0.00  0.00    +0.000 N 
ATOM      2  C   UNL     1      -3.293  14.437  22.939  0.00  0.00    +0.000 A 
ATOM      3  N   UNL     1      -2.208  14.949  22.397  0.00  0.00    +0.000 NA
ATOM      4  C   UNL     1      -1.963  14.165  21.289  0.00  0.00    +0.000 A 
ATOM      5  C   UNL     1      -0.993  14.257  20.264  0.00  0.00    +0.000 A 
ATOM      6  N   UNL     1      -0.045  15.282  20.247  0.00  0.00    +0.000 N 
ATOM      7  N   UNL     1      -1.013  13.305  19.298  0.00  0.00    +0.000 NA
ATOM      8  C   UNL     1      -1.949  12.340  19.373  0.00  0.00    +0.000 A 
ATOM      9 CL   UNL     1      -1.850  11.124  18.174  0.00  0.00    +0.000 Cl
ATOM     10  N   UNL     1      -2.956  12.188  20.257  0.00  0.00    +0.000 NA
ATOM     11  C   UNL     1      -2.901  13.150  21.192  0.00  0.00    +0.000 A 
ATOM     12  H   UNL     1      -0.274  15.985  20.946  0.00  0.00    +0.000 HD
ENDROOT
BRANCH   1  18
ATOM     13  C   UNL     1      -5.560  12.879  23.914  0.00  0.00    +0.000 C 
ATOM     14  C   UNL     1      -7.096  12.694  23.819  0.00  0.00    +0.000 C 
ATOM     15  C   UNL     1      -7.459  13.247  22.471  0.00  0.00    +0.000 C 
ATOM     16  C   UNL     1      -7.375  12.440  21.201  0.00  0.00    +0.000 C 
ATOM     17  C   UNL     1      -6.215  13.311  21.622  0.00  0.00    +0.000 C 
ATOM     18  C   UNL     1      -5.073  12.749  22.445  0.00  0.00    +0.000 C 
BRANCH  13  19
ATOM     19  O   UNL     1      -4.971  11.873  24.737  0.00  0.00    +0.000 OA
ATOM     20  H   UNL     1      -5.454  11.043  24.559  0.00  0.00    +0.000 HD
ENDBRANCH  13  19
BRANCH  14  21
ATOM     21  O   UNL     1      -7.471  11.320  23.886  0.00  0.00    +0.000 OA
ATOM     22  H   UNL     1      -8.168  11.175  23.220  0.00  0.00    +0.000 HD
ENDBRANCH  14  21
ENDBRANCH   1  18
BRANCH   6  23
ATOM     23  C   UNL     1       0.420  15.787  18.948  0.00  0.00    +0.000 C 
BRANCH  23  24
ATOM     24  C   UNL     1       1.930  15.514  18.814  0.00  0.00    +0.000 C 
ATOM     25  C   UNL     1       2.388  14.145  18.261  0.00  0.00    +0.000 C 
ATOM     26  C   UNL     1       3.045  13.827  19.611  0.00  0.00    +0.000 C 
ATOM     27  C   UNL     1       2.853  15.287  20.038  0.00  0.00    +0.000 C 
ENDBRANCH  23  24
BRANCH  23  28
ATOM     28  C   UNL     1       0.044  17.259  18.895  0.00  0.00    +0.000 C 
ATOM     29  C   UNL     1       0.657  18.266  17.948  0.00  0.00    +0.000 C 
ATOM     30  C   UNL     1      -0.739  17.778  17.704  0.00  0.00    +0.000 C 
ENDBRANCH  23  28
ENDBRANCH   6  23
TORSDOF 6
ENDMDL
MODEL 8
REMARK VINA RESULT:      -5.7      2.931      7.927
REMARK  Name = 
REMARK  6 active torsions:
REMARK  status: ('A' for Active; 'I' for Inactive)
REMARK    1  A    between atoms: O_1  and  C_2
REMARK    2  A    between atoms: C_3  and  O_4
REMARK    3  A    between atoms: C_8  and  N_9
REMARK    4  A    between atoms: N_14  and  C_15
REMARK    5  A    between atoms: C_15  and  C_16
REMARK    6  A    between atoms: C_15  and  C_20
REMARK                            x       y       z     vdW  Elec       q    Type
REMARK                         _______ _______ _______ _____ _____    ______ ____
ROOT
ATOM      1  N   UNL     1       1.554   9.052  18.918  0.00  0.00    +0.000 N 
ATOM      2  C   UNL     1       2.264   9.474  17.825  0.00  0.00    +0.000 A 
ATOM      3  N   UNL     1       3.148   8.581  17.431  0.00  0.00    +0.000 NA
ATOM      4  C   UNL     1       3.022   7.542  18.329  0.00  0.00    +0.000 A 
ATOM      5  C   UNL     1       3.638   6.270  18.392  0.00  0.00    +0.000 A 
ATOM      6  N   UNL     1       4.565   5.861  17.431  0.00  0.00    +0.000 N 
ATOM      7  N   UNL     1       3.299   5.462  19.427  0.00  0.00    +0.000 NA
ATOM      8  C   UNL     1       2.403   5.917  20.323  0.00  0.00    +0.000 A 
ATOM      9 CL   UNL     1       2.099   4.881  21.651  0.00  0.00    +0.000 Cl
ATOM     10  N   UNL     1       1.708   7.072  20.331  0.00  0.00    +0.000 NA
ATOM     11  C   UNL     1       2.071   7.839  19.291  0.00  0.00    +0.000 A 
ATOM     12  H   UNL     1       4.579   6.516  16.653  0.00  0.00    +0.000 HD
ENDROOT
BRANCH   1  18
ATOM     13  C   UNL     1       0.714  10.906  20.383  0.00  0.00    +0.000 C 
ATOM     14  C   UNL     1      -0.561  11.786  20.360  0.00  0.00    +0.000 C 
ATOM     15  C   UNL     1      -1.134  11.582  18.986  0.00  0.00    +0.000 C 
ATOM     16  C   UNL     1      -2.035  10.427  18.635  0.00  0.00    +0.000 C 
ATOM     17  C   UNL     1      -0.547  10.324  18.399  0.00  0.00    +0.000 C 
ATOM     18  C   UNL     1       0.371   9.720  19.442  0.00  0.00    +0.000 C 
BRANCH  13  19
ATOM     19  O   UNL     1       0.994  10.443  21.705  0.00  0.00    +0.000 OA
ATOM     20  H   UNL     1       0.866  11.203  22.303  0.00  0.00    +0.000 HD
ENDBRANCH  13  19
BRANCH  14  21
ATOM     21  O   UNL     1      -1.512  11.371  21.338  0.00  0.00    +0.000 OA
ATOM     22  H   UNL     1      -1.580  10.400  21.285  0.00  0.00    +0.000 HD
ENDBRANCH  14  21
ENDBRANCH   1  18
BRANCH   6  23
ATOM     23  C   UNL     1       4.628   4.436  17.079  0.00  0.00    +0.000 C 
BRANCH  23  24
ATOM     24  C   UNL     1       5.030   4.301  15.599  0.00  0.00    +0.000 C 
ATOM     25  C   UNL     1       6.332   3.543  15.251  0.00  0.00    +0.000 C 
ATOM     26  C   UNL     1       6.928   4.841  14.689  0.00  0.00    +0.000 C 
ATOM     27  C   UNL     1       5.544   5.496  14.757  0.00  0.00    +0.000 C 
ENDBRANCH  23  24
BRANCH  23  28
ATOM     28  C   UNL     1       3.268   3.846  17.414  0.00  0.00    +0.000 C 
ATOM     29  C   UNL     1       2.671   2.631  16.739  0.00  0.00    +0.000 C 
ATOM     30  C   UNL     1       3.198   2.514  18.137  0.00  0.00    +0.000 C 
ENDBRANCH  23  28
ENDBRANCH   6  23
TORSDOF 6
ENDMDL
MODEL 9
REMARK VINA RESULT:      -5.7      2.813      7.717
REMARK  Name = 
REMARK  6 active torsions:
REMARK  status: ('A' for Active; 'I' for Inactive)
REMARK    1  A    between atoms: O_1  and  C_2
REMARK    2  A    between atoms: C_3  and  O_4
REMARK    3  A    between atoms: C_8  and  N_9
REMARK    4  A    between atoms: N_14  and  C_15
REMARK    5  A    between atoms: C_15  and  C_16
REMARK    6  A    between atoms: C_15  and  C_20
REMARK                            x       y       z     vdW  Elec       q    Type
REMARK                         _______ _______ _______ _____ _____    ______ ____
ROOT
ATOM      1  N   UNL     1       1.401   9.352  19.103  0.00  0.00    +0.000 N 
ATOM      2  C   UNL     1       2.000   9.827  17.967  0.00  0.00    +0.000 A 
ATOM      3  N   UNL     1       2.810   8.942  17.425  0.00  0.00    +0.000 NA
ATOM      4  C   UNL     1       2.754   7.851  18.267  0.00  0.00    +0.000 A 
ATOM      5  C   UNL     1       3.338   6.565  18.186  0.00  0.00    +0.000 A 
ATOM      6  N   UNL     1       4.143   6.198  17.106  0.00  0.00    +0.000 N 
ATOM      7  N   UNL     1       3.090   5.701  19.201  0.00  0.00    +0.000 NA
ATOM      8  C   UNL     1       2.310   6.117  20.216  0.00  0.00    +0.000 A 
ATOM      9 CL   UNL     1       2.123   5.007  21.504  0.00  0.00    +0.000 Cl
ATOM     10  N   UNL     1       1.652   7.285  20.370  0.00  0.00    +0.000 NA
ATOM     11  C   UNL     1       1.921   8.108  19.344  0.00  0.00    +0.000 A 
ATOM     12  H   UNL     1       4.091   6.900  16.372  0.00  0.00    +0.000 HD
ENDROOT
BRANCH   1  18
ATOM     13  C   UNL     1       0.760  10.798  21.049  0.00  0.00    +0.000 C 
ATOM     14  C   UNL     1      -0.370  11.833  21.280  0.00  0.00    +0.000 C 
ATOM     15  C   UNL     1      -0.892  12.133  19.904  0.00  0.00    +0.000 C 
ATOM     16  C   UNL     1      -1.931  11.286  19.216  0.00  0.00    +0.000 C 
ATOM     17  C   UNL     1      -0.463  11.029  18.972  0.00  0.00    +0.000 C 
ATOM     18  C   UNL     1       0.300  10.010  19.794  0.00  0.00    +0.000 C 
BRANCH  13  19
ATOM     19  O   UNL     1       0.899   9.930  22.174  0.00  0.00    +0.000 OA
ATOM     20  H   UNL     1       0.132   9.327  22.162  0.00  0.00    +0.000 HD
ENDBRANCH  13  19
BRANCH  14  21
ATOM     21  O   UNL     1      -1.423  11.300  22.081  0.00  0.00    +0.000 OA
ATOM     22  H   UNL     1      -2.215  11.846  21.923  0.00  0.00    +0.000 HD
ENDBRANCH  14  21
ENDBRANCH   1  18
BRANCH   6  23
ATOM     23  C   UNL     1       4.129   4.797  16.664  0.00  0.00    +0.000 C 
BRANCH  23  24
ATOM     24  C   UNL     1       3.486   3.930  17.762  0.00  0.00    +0.000 C 
ATOM     25  C   UNL     1       4.365   2.892  18.496  0.00  0.00    +0.000 C 
ATOM     26  C   UNL     1       3.503   1.762  17.917  0.00  0.00    +0.000 C 
ATOM     27  C   UNL     1       2.473   2.799  17.453  0.00  0.00    +0.000 C 
ENDBRANCH  23  24
BRANCH  23  28
ATOM     28  C   UNL     1       5.569   4.430  16.341  0.00  0.00    +0.000 C 
ATOM     29  C   UNL     1       5.996   3.607  15.146  0.00  0.00    +0.000 C 
ATOM     30  C   UNL     1       6.248   5.084  15.153  0.00  0.00    +0.000 C 
ENDBRANCH  23  28
ENDBRANCH   6  23
TORSDOF 6
ENDMDL
