MODEL 1
REMARK VINA RESULT:      -7.8      0.000      0.000
REMARK  Name = 
REMARK  4 active torsions:
REMARK  status: ('A' for Active; 'I' for Inactive)
REMARK    1  A    between atoms: C_2  and  C_12
REMARK    2  A    between atoms: N_3  and  C_4
REMARK    3  A    between atoms: C_4  and  C_5
REMARK    4  A    between atoms: C_12  and  C_14
REMARK                            x       y       z     vdW  Elec       q    Type
REMARK                         _______ _______ _______ _____ _____    ______ ____
ROOT
ATOM      1  C   UNL     1       2.762   5.283  18.722  0.00  0.00    +0.000 C 
ATOM      2  O   UNL     1       1.923   5.101  17.828  0.00  0.00    +0.000 OA
ENDROOT
BRANCH   1   3
ATOM      3  C   UNL     1       4.179   4.971  18.468  0.00  0.00    +0.000 A 
ATOM      4  C   UNL     1       5.096   5.109  19.513  0.00  0.00    +0.000 A 
ATOM      5  N   UNL     1       6.261   4.552  19.094  0.00  0.00    +0.000 N 
ATOM      6  C   UNL     1       6.315   4.661  17.732  0.00  0.00    +0.000 A 
ATOM      7  C   UNL     1       7.419   4.736  16.878  0.00  0.00    +0.000 A 
ATOM      8  C   UNL     1       7.171   4.572  15.521  0.00  0.00    +0.000 A 
ATOM      9  C   UNL     1       5.891   4.234  15.088  0.00  0.00    +0.000 A 
ATOM     10 CL   UNL     1       5.671   3.821  13.427  0.00  0.00    +0.000 Cl
ATOM     11  C   UNL     1       4.783   4.239  15.961  0.00  0.00    +0.000 A 
ATOM     12  C   UNL     1       4.978   4.586  17.316  0.00  0.00    +0.000 A 
ATOM     13  H   UNL     1       6.878   3.979  19.654  0.00  0.00    +0.000 HD
ENDBRANCH   1   3
BRANCH   1  15
ATOM     14  O   UNL     1       1.808   5.120  20.916  0.00  0.00    +0.000 OA
ATOM     15  C   UNL     1       2.172   5.854  20.022  0.00  0.00    +0.000 C 
ATOM     16  N   UNL     1       2.142   7.243  20.051  0.00  0.00    +0.000 N 
ATOM     17  H   UNL     1       2.363   7.718  19.180  0.00  0.00    +0.000 HD
BRANCH  16  18
ATOM     18  C   UNL     1       1.528   7.974  21.141  0.00  0.00    +0.000 C 
BRANCH  18  19
ATOM     19  C   UNL     1       0.708   9.168  20.707  0.00  0.00    +0.000 A 
ATOM     20  C   UNL     1      -0.014   9.899  21.673  0.00  0.00    +0.000 A 
ATOM     21  C   UNL     1      -0.720  11.055  21.322  0.00  0.00    +0.000 A 
ATOM     22  C   UNL     1      -0.708  11.501  20.004  0.00  0.00    +0.000 A 
ATOM     23 CL   UNL     1      -1.570  12.925  19.572  0.00  0.00    +0.000 Cl
ATOM     24  C   UNL     1       0.015  10.799  19.037  0.00  0.00    +0.000 A 
ATOM     25  C   UNL     1       0.732   9.651  19.392  0.00  0.00    +0.000 A 
ENDBRANCH  18  19
ENDBRANCH  16  18
ENDBRANCH   1  15
TORSDOF 4
ENDMDL
MODEL 2
REMARK VINA RESULT:      -7.8      3.256      8.723
REMARK  Name = 
REMARK  4 active torsions:
REMARK  status: ('A' for Active; 'I' for Inactive)
REMARK    1  A    between atoms: C_2  and  C_12
REMARK    2  A    between atoms: N_3  and  C_4
REMARK    3  A    between atoms: C_4  and  C_5
REMARK    4  A    between atoms: C_12  and  C_14
REMARK                            x       y       z     vdW  Elec       q    Type
REMARK                         _______ _______ _______ _____ _____    ______ ____
ROOT
ATOM      1  C   UNL     1       0.572   9.675  19.519  0.00  0.00    +0.000 C 
ATOM      2  O   UNL     1       0.808   9.264  20.665  0.00  0.00    +0.000 OA
ENDROOT
BRANCH   1   3
ATOM      3  C   UNL     1      -0.604  10.529  19.278  0.00  0.00    +0.000 A 
ATOM      4  C   UNL     1      -1.024  11.396  20.288  0.00  0.00    +0.000 A 
ATOM      5  N   UNL     1      -1.960  12.216  19.744  0.00  0.00    +0.000 N 
ATOM      6  C   UNL     1      -2.573  11.538  18.728  0.00  0.00    +0.000 A 
ATOM      7  C   UNL     1      -3.862  11.674  18.204  0.00  0.00    +0.000 A 
ATOM      8  C   UNL     1      -4.116  11.034  16.997  0.00  0.00    +0.000 A 
ATOM      9  C   UNL     1      -3.079  10.400  16.318  0.00  0.00    +0.000 A 
ATOM     10 CL   UNL     1      -3.382   9.813  14.725  0.00  0.00    +0.000 Cl
ATOM     11  C   UNL     1      -1.809  10.214  16.904  0.00  0.00    +0.000 A 
ATOM     12  C   UNL     1      -1.579  10.695  18.212  0.00  0.00    +0.000 A 
ATOM     13  H   UNL     1      -2.050  13.208  19.916  0.00  0.00    +0.000 HD
ENDBRANCH   1   3
BRANCH   1  15
ATOM     14  O   UNL     1       1.856   9.917  17.508  0.00  0.00    +0.000 OA
ATOM     15  C   UNL     1       1.603   9.225  18.472  0.00  0.00    +0.000 C 
ATOM     16  N   UNL     1       2.200   8.006  18.772  0.00  0.00    +0.000 N 
ATOM     17  H   UNL     1       1.795   7.484  19.546  0.00  0.00    +0.000 HD
BRANCH  16  18
ATOM     18  C   UNL     1       3.120   7.357  17.862  0.00  0.00    +0.000 C 
BRANCH  18  19
ATOM     19  C   UNL     1       3.250   5.864  18.064  0.00  0.00    +0.000 A 
ATOM     20  C   UNL     1       2.120   5.040  17.884  0.00  0.00    +0.000 A 
ATOM     21  C   UNL     1       2.220   3.648  17.985  0.00  0.00    +0.000 A 
ATOM     22  C   UNL     1       3.450   3.060  18.258  0.00  0.00    +0.000 A 
ATOM     23 CL   UNL     1       3.576   1.348  18.377  0.00  0.00    +0.000 Cl
ATOM     24  C   UNL     1       4.584   3.859  18.422  0.00  0.00    +0.000 A 
ATOM     25  C   UNL     1       4.486   5.249  18.308  0.00  0.00    +0.000 A 
ENDBRANCH  18  19
ENDBRANCH  16  18
ENDBRANCH   1  15
TORSDOF 4
ENDMDL
MODEL 3
REMARK VINA RESULT:      -7.8      5.480      7.164
REMARK  Name = 
REMARK  4 active torsions:
REMARK  status: ('A' for Active; 'I' for Inactive)
REMARK    1  A    between atoms: C_2  and  C_12
REMARK    2  A    between atoms: N_3  and  C_4
REMARK    3  A    between atoms: C_4  and  C_5
REMARK    4  A    between atoms: C_12  and  C_14
REMARK                            x       y       z     vdW  Elec       q    Type
REMARK                         _______ _______ _______ _____ _____    ______ ____
ROOT
ATOM      1  C   UNL     1       7.003   5.965  18.351  0.00  0.00    +0.000 C 
ATOM      2  O   UNL     1       7.590   5.888  19.441  0.00  0.00    +0.000 OA
ENDROOT
BRANCH   1   3
ATOM      3  C   UNL     1       5.895   5.042  18.052  0.00  0.00    +0.000 A 
ATOM      4  C   UNL     1       6.041   4.135  17.001  0.00  0.00    +0.000 A 
ATOM      5  N   UNL     1       5.001   3.266  17.079  0.00  0.00    +0.000 N 
ATOM      6  C   UNL     1       3.950   3.919  17.661  0.00  0.00    +0.000 A 
ATOM      7  C   UNL     1       2.574   3.709  17.526  0.00  0.00    +0.000 A 
ATOM      8  C   UNL     1       1.753   4.350  18.445  0.00  0.00    +0.000 A 
ATOM      9  C   UNL     1       2.318   5.059  19.502  0.00  0.00    +0.000 A 
ATOM     10 CL   UNL     1       1.274   5.650  20.742  0.00  0.00    +0.000 Cl
ATOM     11  C   UNL     1       3.703   5.316  19.571  0.00  0.00    +0.000 A 
ATOM     12  C   UNL     1       4.543   4.831  18.544  0.00  0.00    +0.000 A 
ATOM     13  H   UNL     1       5.051   2.267  16.928  0.00  0.00    +0.000 HD
ENDBRANCH   1   3
BRANCH   1  15
ATOM     14  O   UNL     1       7.712   6.884  16.253  0.00  0.00    +0.000 OA
ATOM     15  C   UNL     1       7.534   7.080  17.437  0.00  0.00    +0.000 C 
ATOM     16  N   UNL     1       7.742   8.285  18.099  0.00  0.00    +0.000 N 
ATOM     17  H   UNL     1       7.669   8.262  19.113  0.00  0.00    +0.000 HD
BRANCH  16  18
ATOM     18  C   UNL     1       8.337   9.429  17.440  0.00  0.00    +0.000 C 
BRANCH  18  19
ATOM     19  C   UNL     1       8.924  10.456  18.382  0.00  0.00    +0.000 A 
ATOM     20  C   UNL     1       9.107  11.781  17.935  0.00  0.00    +0.000 A 
ATOM     21  C   UNL     1       9.573  12.776  18.802  0.00  0.00    +0.000 A 
ATOM     22  C   UNL     1       9.854  12.463  20.128  0.00  0.00    +0.000 A 
ATOM     23 CL   UNL     1      10.421  13.686  21.197  0.00  0.00    +0.000 Cl
ATOM     24  C   UNL     1       9.663  11.160  20.593  0.00  0.00    +0.000 A 
ATOM     25  C   UNL     1       9.185  10.169  19.729  0.00  0.00    +0.000 A 
ENDBRANCH  18  19
ENDBRANCH  16  18
ENDBRANCH   1  15
TORSDOF 4
ENDMDL
MODEL 4
REMARK VINA RESULT:      -7.8      0.678      1.220
REMARK  Name = 
REMARK  4 active torsions:
REMARK  status: ('A' for Active; 'I' for Inactive)
REMARK    1  A    between atoms: C_2  and  C_12
REMARK    2  A    between atoms: N_3  and  C_4
REMARK    3  A    between atoms: C_4  and  C_5
REMARK    4  A    between atoms: C_12  and  C_14
REMARK                            x       y       z     vdW  Elec       q    Type
REMARK                         _______ _______ _______ _____ _____    ______ ____
ROOT
ATOM      1  C   UNL     1       2.519   4.589  18.605  0.00  0.00    +0.000 C 
ATOM      2  O   UNL     1       1.698   4.156  17.784  0.00  0.00    +0.000 OA
ENDROOT
BRANCH   1   3
ATOM      3  C   UNL     1       3.961   4.413  18.358  0.00  0.00    +0.000 A 
ATOM      4  C   UNL     1       4.845   4.510  19.434  0.00  0.00    +0.000 A 
ATOM      5  N   UNL     1       6.058   4.091  18.991  0.00  0.00    +0.000 N 
ATOM      6  C   UNL     1       6.127   4.346  17.650  0.00  0.00    +0.000 A 
ATOM      7  C   UNL     1       7.237   4.594  16.837  0.00  0.00    +0.000 A 
ATOM      8  C   UNL     1       7.027   4.555  15.464  0.00  0.00    +0.000 A 
ATOM      9  C   UNL     1       5.786   4.168  14.965  0.00  0.00    +0.000 A 
ATOM     10 CL   UNL     1       5.629   3.915  13.266  0.00  0.00    +0.000 Cl
ATOM     11  C   UNL     1       4.666   3.996  15.805  0.00  0.00    +0.000 A 
ATOM     12  C   UNL     1       4.809   4.213  17.193  0.00  0.00    +0.000 A 
ATOM     13  H   UNL     1       6.708   3.512  19.504  0.00  0.00    +0.000 HD
ENDBRANCH   1   3
BRANCH   1  15
ATOM     14  O   UNL     1       1.235   4.673  20.628  0.00  0.00    +0.000 OA
ATOM     15  C   UNL     1       1.880   5.296  19.811  0.00  0.00    +0.000 C 
ATOM     16  N   UNL     1       2.149   6.659  19.858  0.00  0.00    +0.000 N 
ATOM     17  H   UNL     1       2.597   7.060  19.037  0.00  0.00    +0.000 HD
BRANCH  16  18
ATOM     18  C   UNL     1       1.554   7.524  20.855  0.00  0.00    +0.000 C 
BRANCH  18  19
ATOM     19  C   UNL     1       1.001   8.820  20.307  0.00  0.00    +0.000 A 
ATOM     20  C   UNL     1       1.354   9.226  19.004  0.00  0.00    +0.000 A 
ATOM     21  C   UNL     1       0.799  10.378  18.434  0.00  0.00    +0.000 A 
ATOM     22  C   UNL     1      -0.120  11.134  19.153  0.00  0.00    +0.000 A 
ATOM     23 CL   UNL     1      -0.807  12.547  18.452  0.00  0.00    +0.000 Cl
ATOM     24  C   UNL     1      -0.495  10.737  20.439  0.00  0.00    +0.000 A 
ATOM     25  C   UNL     1       0.049   9.578  21.003  0.00  0.00    +0.000 A 
ENDBRANCH  18  19
ENDBRANCH  16  18
ENDBRANCH   1  15
TORSDOF 4
ENDMDL
MODEL 5
REMARK VINA RESULT:      -7.8      2.051      2.996
REMARK  Name = 
REMARK  4 active torsions:
REMARK  status: ('A' for Active; 'I' for Inactive)
REMARK    1  A    between atoms: C_2  and  C_12
REMARK    2  A    between atoms: N_3  and  C_4
REMARK    3  A    between atoms: C_4  and  C_5
REMARK    4  A    between atoms: C_12  and  C_14
REMARK                            x       y       z     vdW  Elec       q    Type
REMARK                         _______ _______ _______ _____ _____    ______ ____
ROOT
ATOM      1  C   UNL     1       4.489   4.492  16.945  0.00  0.00    +0.000 C 
ATOM      2  O   UNL     1       3.595   3.696  16.623  0.00  0.00    +0.000 OA
ENDROOT
BRANCH   1   3
ATOM      3  C   UNL     1       5.617   4.734  16.028  0.00  0.00    +0.000 A 
ATOM      4  C   UNL     1       6.543   5.729  16.349  0.00  0.00    +0.000 A 
ATOM      5  N   UNL     1       7.582   5.597  15.484  0.00  0.00    +0.000 N 
ATOM      6  C   UNL     1       7.099   5.055  14.326  0.00  0.00    +0.000 A 
ATOM      7  C   UNL     1       7.565   5.175  13.013  0.00  0.00    +0.000 A 
ATOM      8  C   UNL     1       7.033   4.296  12.079  0.00  0.00    +0.000 A 
ATOM      9  C   UNL     1       6.169   3.284  12.493  0.00  0.00    +0.000 A 
ATOM     10 CL   UNL     1       5.707   2.081  11.347  0.00  0.00    +0.000 Cl
ATOM     11  C   UNL     1       5.659   3.233  13.808  0.00  0.00    +0.000 A 
ATOM     12  C   UNL     1       6.042   4.229  14.733  0.00  0.00    +0.000 A 
ATOM     13  H   UNL     1       8.561   5.687  15.718  0.00  0.00    +0.000 HD
ENDBRANCH   1   3
BRANCH   1  15
ATOM     14  O   UNL     1       5.081   5.029  19.206  0.00  0.00    +0.000 OA
ATOM     15  C   UNL     1       4.269   5.155  18.314  0.00  0.00    +0.000 C 
ATOM     16  N   UNL     1       3.099   5.903  18.383  0.00  0.00    +0.000 N 
ATOM     17  H   UNL     1       2.458   5.812  17.599  0.00  0.00    +0.000 HD
BRANCH  16  18
ATOM     18  C   UNL     1       2.655   6.521  19.616  0.00  0.00    +0.000 C 
BRANCH  18  19
ATOM     19  C   UNL     1       2.023   7.883  19.439  0.00  0.00    +0.000 A 
ATOM     20  C   UNL     1       2.042   8.495  18.169  0.00  0.00    +0.000 A 
ATOM     21  C   UNL     1       1.398   9.719  17.950  0.00  0.00    +0.000 A 
ATOM     22  C   UNL     1       0.721  10.342  18.992  0.00  0.00    +0.000 A 
ATOM     23 CL   UNL     1      -0.076  11.842  18.723  0.00  0.00    +0.000 Cl
ATOM     24  C   UNL     1       0.676   9.741  20.253  0.00  0.00    +0.000 A 
ATOM     25  C   UNL     1       1.308   8.512  20.468  0.00  0.00    +0.000 A 
ENDBRANCH  18  19
ENDBRANCH  16  18
ENDBRANCH   1  15
TORSDOF 4
ENDMDL
MODEL 6
REMARK VINA RESULT:      -7.7      2.883      3.667
REMARK  Name = 
REMARK  4 active torsions:
REMARK  status: ('A' for Active; 'I' for Inactive)
REMARK    1  A    between atoms: C_2  and  C_12
REMARK    2  A    between atoms: N_3  and  C_4
REMARK    3  A    between atoms: C_4  and  C_5
REMARK    4  A    between atoms: C_12  and  C_14
REMARK                            x       y       z     vdW  Elec       q    Type
REMARK                         _______ _______ _______ _____ _____    ______ ____
ROOT
ATOM      1  C   UNL     1       2.726   7.967  17.946  0.00  0.00    +0.000 C 
ATOM      2  O   UNL     1       2.872   8.745  16.992  0.00  0.00    +0.000 OA
ENDROOT
BRANCH   1   3
ATOM      3  C   UNL     1       3.411   6.663  17.935  0.00  0.00    +0.000 A 
ATOM      4  C   UNL     1       4.757   6.613  17.569  0.00  0.00    +0.000 A 
ATOM      5  N   UNL     1       5.201   5.362  17.857  0.00  0.00    +0.000 N 
ATOM      6  C   UNL     1       4.137   4.508  17.769  0.00  0.00    +0.000 A 
ATOM      7  C   UNL     1       4.101   3.144  17.466  0.00  0.00    +0.000 A 
ATOM      8  C   UNL     1       2.906   2.481  17.712  0.00  0.00    +0.000 A 
ATOM      9  C   UNL     1       1.860   3.151  18.341  0.00  0.00    +0.000 A 
ATOM     10 CL   UNL     1       0.480   2.239  18.831  0.00  0.00    +0.000 Cl
ATOM     11  C   UNL     1       1.896   4.543  18.568  0.00  0.00    +0.000 A 
ATOM     12  C   UNL     1       3.031   5.276  18.155  0.00  0.00    +0.000 A 
ATOM     13  H   UNL     1       6.098   5.131  18.261  0.00  0.00    +0.000 HD
ENDBRANCH   1   3
BRANCH   1  15
ATOM     14  O   UNL     1       1.732   7.941  20.128  0.00  0.00    +0.000 OA
ATOM     15  C   UNL     1       1.822   8.514  19.063  0.00  0.00    +0.000 C 
ATOM     16  N   UNL     1       1.182   9.700  18.724  0.00  0.00    +0.000 N 
ATOM     17  H   UNL     1       1.256   9.992  17.752  0.00  0.00    +0.000 HD
BRANCH  16  18
ATOM     18  C   UNL     1       0.207  10.322  19.595  0.00  0.00    +0.000 C 
BRANCH  18  19
ATOM     19  C   UNL     1      -1.118  10.625  18.934  0.00  0.00    +0.000 A 
ATOM     20  C   UNL     1      -1.979  11.580  19.513  0.00  0.00    +0.000 A 
ATOM     21  C   UNL     1      -3.177  11.943  18.887  0.00  0.00    +0.000 A 
ATOM     22  C   UNL     1      -3.527  11.365  17.672  0.00  0.00    +0.000 A 
ATOM     23 CL   UNL     1      -4.996  11.816  16.898  0.00  0.00    +0.000 Cl
ATOM     24  C   UNL     1      -2.678  10.430  17.075  0.00  0.00    +0.000 A 
ATOM     25  C   UNL     1      -1.475  10.077  17.694  0.00  0.00    +0.000 A 
ENDBRANCH  18  19
ENDBRANCH  16  18
ENDBRANCH   1  15
TORSDOF 4
ENDMDL
MODEL 7
REMARK VINA RESULT:      -7.7      2.046      2.795
REMARK  Name = 
REMARK  4 active torsions:
REMARK  status: ('A' for Active; 'I' for Inactive)
REMARK    1  A    between atoms: C_2  and  C_12
REMARK    2  A    between atoms: N_3  and  C_4
REMARK    3  A    between atoms: C_4  and  C_5
REMARK    4  A    between atoms: C_12  and  C_14
REMARK                            x       y       z     vdW  Elec       q    Type
REMARK                         _______ _______ _______ _____ _____    ______ ____
ROOT
ATOM      1  C   UNL     1       4.467   4.576  17.006  0.00  0.00    +0.000 C 
ATOM      2  O   UNL     1       3.601   3.728  16.745  0.00  0.00    +0.000 OA
ENDROOT
BRANCH   1   3
ATOM      3  C   UNL     1       5.593   4.779  16.077  0.00  0.00    +0.000 A 
ATOM      4  C   UNL     1       6.553   5.745  16.384  0.00  0.00    +0.000 A 
ATOM      5  N   UNL     1       7.579   5.577  15.510  0.00  0.00    +0.000 N 
ATOM      6  C   UNL     1       7.068   5.046  14.359  0.00  0.00    +0.000 A 
ATOM      7  C   UNL     1       7.525   5.146  13.041  0.00  0.00    +0.000 A 
ATOM      8  C   UNL     1       6.955   4.281  12.116  0.00  0.00    +0.000 A 
ATOM      9  C   UNL     1       6.065   3.299  12.543  0.00  0.00    +0.000 A 
ATOM     10 CL   UNL     1       5.554   2.107  11.405  0.00  0.00    +0.000 Cl
ATOM     11  C   UNL     1       5.566   3.268  13.862  0.00  0.00    +0.000 A 
ATOM     12  C   UNL     1       5.989   4.255  14.779  0.00  0.00    +0.000 A 
ATOM     13  H   UNL     1       8.563   5.637  15.734  0.00  0.00    +0.000 HD
ENDBRANCH   1   3
BRANCH   1  15
ATOM     14  O   UNL     1       5.093   5.460  19.145  0.00  0.00    +0.000 OA
ATOM     15  C   UNL     1       4.217   5.340  18.315  0.00  0.00    +0.000 C 
ATOM     16  N   UNL     1       2.936   5.875  18.406  0.00  0.00    +0.000 N 
ATOM     17  H   UNL     1       2.274   5.585  17.691  0.00  0.00    +0.000 HD
BRANCH  16  18
ATOM     18  C   UNL     1       2.466   6.540  19.603  0.00  0.00    +0.000 C 
BRANCH  18  19
ATOM     19  C   UNL     1       1.912   7.927  19.370  0.00  0.00    +0.000 A 
ATOM     20  C   UNL     1       1.286   8.610  20.433  0.00  0.00    +0.000 A 
ATOM     21  C   UNL     1       0.832   9.925  20.276  0.00  0.00    +0.000 A 
ATOM     22  C   UNL     1       1.005  10.578  19.061  0.00  0.00    +0.000 A 
ATOM     23 CL   UNL     1       0.454  12.195  18.868  0.00  0.00    +0.000 Cl
ATOM     24  C   UNL     1       1.639   9.923  18.002  0.00  0.00    +0.000 A 
ATOM     25  C   UNL     1       2.104   8.614  18.163  0.00  0.00    +0.000 A 
ENDBRANCH  18  19
ENDBRANCH  16  18
ENDBRANCH   1  15
TORSDOF 4
ENDMDL
MODEL 8
REMARK VINA RESULT:      -7.6      5.510      7.036
REMARK  Name = 
REMARK  4 active torsions:
REMARK  status: ('A' for Active; 'I' for Inactive)
REMARK    1  A    between atoms: C_2  and  C_12
REMARK    2  A    between atoms: N_3  and  C_4
REMARK    3  A    between atoms: C_4  and  C_5
REMARK    4  A    between atoms: C_12  and  C_14
REMARK                            x       y       z     vdW  Elec       q    Type
REMARK                         _______ _______ _______ _____ _____    ______ ____
ROOT
ATOM      1  C   UNL     1       6.891   6.066  18.287  0.00  0.00    +0.000 C 
ATOM      2  O   UNL     1       7.585   5.951  19.308  0.00  0.00    +0.000 OA
ENDROOT
BRANCH   1   3
ATOM      3  C   UNL     1       5.890   5.034  17.965  0.00  0.00    +0.000 A 
ATOM      4  C   UNL     1       6.128   4.179  16.887  0.00  0.00    +0.000 A 
ATOM      5  N   UNL     1       5.190   3.198  16.944  0.00  0.00    +0.000 N 
ATOM      6  C   UNL     1       4.078   3.714  17.549  0.00  0.00    +0.000 A 
ATOM      7  C   UNL     1       2.733   3.357  17.414  0.00  0.00    +0.000 A 
ATOM      8  C   UNL     1       1.852   3.876  18.354  0.00  0.00    +0.000 A 
ATOM      9  C   UNL     1       2.343   4.613  19.429  0.00  0.00    +0.000 A 
ATOM     10 CL   UNL     1       1.249   5.049  20.690  0.00  0.00    +0.000 Cl
ATOM     11  C   UNL     1       3.692   5.020  19.500  0.00  0.00    +0.000 A 
ATOM     12  C   UNL     1       4.573   4.661  18.456  0.00  0.00    +0.000 A 
ATOM     13  H   UNL     1       5.350   2.216  16.764  0.00  0.00    +0.000 HD
ENDBRANCH   1   3
BRANCH   1  15
ATOM     14  O   UNL     1       6.656   7.527  16.400  0.00  0.00    +0.000 OA
ATOM     15  C   UNL     1       7.180   7.341  17.478  0.00  0.00    +0.000 C 
ATOM     16  N   UNL     1       8.046   8.218  18.121  0.00  0.00    +0.000 N 
ATOM     17  H   UNL     1       8.502   7.868  18.960  0.00  0.00    +0.000 HD
BRANCH  16  18
ATOM     18  C   UNL     1       8.527   9.425  17.483  0.00  0.00    +0.000 C 
BRANCH  18  19
ATOM     19  C   UNL     1       8.878  10.540  18.442  0.00  0.00    +0.000 A 
ATOM     20  C   UNL     1       9.315  10.222  19.744  0.00  0.00    +0.000 A 
ATOM     21  C   UNL     1       9.723  11.224  20.632  0.00  0.00    +0.000 A 
ATOM     22  C   UNL     1       9.709  12.555  20.229  0.00  0.00    +0.000 A 
ATOM     23 CL   UNL     1      10.216  13.787  21.317  0.00  0.00    +0.000 Cl
ATOM     24  C   UNL     1       9.295  12.888  18.938  0.00  0.00    +0.000 A 
ATOM     25  C   UNL     1       8.900  11.885  18.046  0.00  0.00    +0.000 A 
ENDBRANCH  18  19
ENDBRANCH  16  18
ENDBRANCH   1  15
TORSDOF 4
ENDMDL
MODEL 9
REMARK VINA RESULT:      -7.6      3.851      5.383
REMARK  Name = 
REMARK  4 active torsions:
REMARK  status: ('A' for Active; 'I' for Inactive)
REMARK    1  A    between atoms: C_2  and  C_12
REMARK    2  A    between atoms: N_3  and  C_4
REMARK    3  A    between atoms: C_4  and  C_5
REMARK    4  A    between atoms: C_12  and  C_14
REMARK                            x       y       z     vdW  Elec       q    Type
REMARK                         _______ _______ _______ _____ _____    ______ ____
ROOT
ATOM      1  C   UNL     1       1.299   8.889  20.770  0.00  0.00    +0.000 C 
ATOM      2  O   UNL     1       1.407   8.756  21.998  0.00  0.00    +0.000 OA
ENDROOT
BRANCH   1   3
ATOM      3  C   UNL     1       1.833   7.849  19.874  0.00  0.00    +0.000 A 
ATOM      4  C   UNL     1       2.316   8.226  18.619  0.00  0.00    +0.000 A 
ATOM      5  N   UNL     1       2.948   7.144  18.095  0.00  0.00    +0.000 N 
ATOM      6  C   UNL     1       2.364   6.023  18.616  0.00  0.00    +0.000 A 
ATOM      7  C   UNL     1       2.254   4.735  18.082  0.00  0.00    +0.000 A 
ATOM      8  C   UNL     1       1.843   3.733  18.952  0.00  0.00    +0.000 A 
ATOM      9  C   UNL     1       1.674   4.016  20.305  0.00  0.00    +0.000 A 
ATOM     10 CL   UNL     1       1.383   2.704  21.386  0.00  0.00    +0.000 Cl
ATOM     11  C   UNL     1       1.719   5.336  20.801  0.00  0.00    +0.000 A 
ATOM     12  C   UNL     1       1.952   6.400  19.901  0.00  0.00    +0.000 A 
ATOM     13  H   UNL     1       3.818   7.158  17.581  0.00  0.00    +0.000 HD
ENDBRANCH   1   3
BRANCH   1  15
ATOM     14  O   UNL     1       1.073  11.263  20.523  0.00  0.00    +0.000 OA
ATOM     15  C   UNL     1       0.571  10.174  20.344  0.00  0.00    +0.000 C 
ATOM     16  N   UNL     1      -0.655   9.938  19.733  0.00  0.00    +0.000 N 
ATOM     17  H   UNL     1      -1.000   8.982  19.768  0.00  0.00    +0.000 HD
BRANCH  16  18
ATOM     18  C   UNL     1      -1.544  11.017  19.354  0.00  0.00    +0.000 C 
BRANCH  18  19
ATOM     19  C   UNL     1      -2.197  10.841  18.002  0.00  0.00    +0.000 A 
ATOM     20  C   UNL     1      -1.658   9.913  17.088  0.00  0.00    +0.000 A 
ATOM     21  C   UNL     1      -2.281   9.667  15.859  0.00  0.00    +0.000 A 
ATOM     22  C   UNL     1      -3.455  10.337  15.531  0.00  0.00    +0.000 A 
ATOM     23 CL   UNL     1      -4.225  10.031  14.024  0.00  0.00    +0.000 Cl
ATOM     24  C   UNL     1      -4.013  11.247  16.431  0.00  0.00    +0.000 A 
ATOM     25  C   UNL     1      -3.396  11.484  17.664  0.00  0.00    +0.000 A 
ENDBRANCH  18  19
ENDBRANCH  16  18
ENDBRANCH   1  15
TORSDOF 4
ENDMDL
