MODEL 1
REMARK VINA RESULT:      -9.1      0.000      0.000
REMARK  Name = 
REMARK  7 active torsions:
REMARK  status: ('A' for Active; 'I' for Inactive)
REMARK    1  A    between atoms: C_1  and  C_2
REMARK    2  A    between atoms: C_5  and  O_6
REMARK    3  A    between atoms: O_6  and  C_7
REMARK    4  A    between atoms: C_9  and  N_10
REMARK    5  A    between atoms: N_10  and  C_11
REMARK    6  A    between atoms: C_11  and  C_12
REMARK    7  A    between atoms: C_23  and  C_24
REMARK                            x       y       z     vdW  Elec       q    Type
REMARK                         _______ _______ _______ _____ _____    ______ ____
ROOT
ATOM      1  C   UNL     1       6.420   5.138  18.473  0.00  0.00    +0.000 A 
ATOM      2  C   UNL     1       7.374   6.006  18.932  0.00  0.00    +0.000 A 
ATOM      3  C   UNL     1       7.691   7.068  18.103  0.00  0.00    +0.000 A 
ATOM      4  N   UNL     1       7.097   7.206  16.901  0.00  0.00    +0.000 NA
ATOM      5  C   UNL     1       6.225   6.263  16.521  0.00  0.00    +0.000 A 
ATOM      6  N   UNL     1       5.598   6.379  15.298  0.00  0.00    +0.000 N 
ATOM      7  N   UNL     1       5.858   5.230  17.260  0.00  0.00    +0.000 NA
ATOM      8  H   UNL     1       5.583   7.339  15.010  0.00  0.00    +0.000 HD
ATOM      9  H   UNL     1       4.725   5.875  15.315  0.00  0.00    +0.000 HD
ENDROOT
BRANCH   3  10
ATOM     10  N   UNL     1       8.526   8.079  18.604  0.00  0.00    +0.000 N 
ATOM     11  H   UNL     1       9.508   7.836  18.526  0.00  0.00    +0.000 HD
BRANCH  10  12
ATOM     12  C   UNL     1       8.288   9.422  18.075  0.00  0.00    +0.000 C 
BRANCH  12  13
ATOM     13  C   UNL     1       9.301  10.376  18.681  0.00  0.00    +0.000 A 
ATOM     14  C   UNL     1      10.258  11.019  17.881  0.00  0.00    +0.000 A 
ATOM     15  C   UNL     1      11.198  11.885  18.449  0.00  0.00    +0.000 A 
ATOM     16  C   UNL     1      11.190  12.123  19.823  0.00  0.00    +0.000 A 
ATOM     17  C   UNL     1      10.241  11.501  20.629  0.00  0.00    +0.000 A 
ATOM     18  C   UNL     1       9.300  10.634  20.065  0.00  0.00    +0.000 A 
ENDBRANCH  12  13
ENDBRANCH  10  12
ENDBRANCH   3  10
BRANCH   1  19
ATOM     19  O   UNL     1       6.024   4.098  19.309  0.00  0.00    +0.000 OA
BRANCH  19  24
ATOM     20  C   UNL     1       0.555   2.565  18.794  0.00  0.00    +0.000 C 
ATOM     21  C   UNL     1       1.997   2.955  18.967  0.00  0.00    +0.000 A 
ATOM     22  C   UNL     1       2.989   2.194  18.336  0.00  0.00    +0.000 A 
ATOM     23  C   UNL     1       4.336   2.534  18.453  0.00  0.00    +0.000 A 
ATOM     24  C   UNL     1       4.722   3.647  19.206  0.00  0.00    +0.000 A 
ATOM     25  C   UNL     1       3.740   4.411  19.843  0.00  0.00    +0.000 A 
ATOM     26  C   UNL     1       2.378   4.064  19.751  0.00  0.00    +0.000 A 
ATOM     27  C   UNL     1       1.354   4.867  20.504  0.00  0.00    +0.000 C 
ENDBRANCH  19  24
ENDBRANCH   1  19
TORSDOF 5
ENDMDL
MODEL 2
REMARK VINA RESULT:      -8.8      1.531      2.387
REMARK  Name = 
REMARK  7 active torsions:
REMARK  status: ('A' for Active; 'I' for Inactive)
REMARK    1  A    between atoms: C_1  and  C_2
REMARK    2  A    between atoms: C_5  and  O_6
REMARK    3  A    between atoms: O_6  and  C_7
REMARK    4  A    between atoms: C_9  and  N_10
REMARK    5  A    between atoms: N_10  and  C_11
REMARK    6  A    between atoms: C_11  and  C_12
REMARK    7  A    between atoms: C_23  and  C_24
REMARK                            x       y       z     vdW  Elec       q    Type
REMARK                         _______ _______ _______ _____ _____    ______ ____
ROOT
ATOM      1  C   UNL     1       6.332   6.241  17.476  0.00  0.00    +0.000 A 
ATOM      2  C   UNL     1       6.786   7.494  17.163  0.00  0.00    +0.000 A 
ATOM      3  C   UNL     1       7.865   7.959  17.894  0.00  0.00    +0.000 A 
ATOM      4  N   UNL     1       8.407   7.211  18.876  0.00  0.00    +0.000 NA
ATOM      5  C   UNL     1       7.843   6.027  19.145  0.00  0.00    +0.000 A 
ATOM      6  N   UNL     1       8.378   5.237  20.141  0.00  0.00    +0.000 N 
ATOM      7  N   UNL     1       6.824   5.505  18.484  0.00  0.00    +0.000 NA
ATOM      8  H   UNL     1       9.342   5.471  20.284  0.00  0.00    +0.000 HD
ATOM      9  H   UNL     1       8.144   4.270  19.970  0.00  0.00    +0.000 HD
ENDROOT
BRANCH   3  10
ATOM     10  N   UNL     1       8.478   9.155  17.491  0.00  0.00    +0.000 N 
ATOM     11  H   UNL     1       8.293   9.368  16.515  0.00  0.00    +0.000 HD
BRANCH  10  12
ATOM     12  C   UNL     1       8.209  10.324  18.328  0.00  0.00    +0.000 C 
BRANCH  12  13
ATOM     13  C   UNL     1       9.529  10.959  18.726  0.00  0.00    +0.000 A 
ATOM     14  C   UNL     1      10.486  11.305  17.760  0.00  0.00    +0.000 A 
ATOM     15  C   UNL     1      11.706  11.875  18.137  0.00  0.00    +0.000 A 
ATOM     16  C   UNL     1      11.983  12.111  19.483  0.00  0.00    +0.000 A 
ATOM     17  C   UNL     1      11.040  11.783  20.453  0.00  0.00    +0.000 A 
ATOM     18  C   UNL     1       9.820  11.212  20.081  0.00  0.00    +0.000 A 
ENDBRANCH  12  13
ENDBRANCH  10  12
ENDBRANCH   3  10
BRANCH   1  19
ATOM     19  O   UNL     1       5.294   5.711  16.715  0.00  0.00    +0.000 OA
BRANCH  19  24
ATOM     20  C   UNL     1       0.885   3.584  19.640  0.00  0.00    +0.000 C 
ATOM     21  C   UNL     1       2.029   4.136  18.835  0.00  0.00    +0.000 A 
ATOM     22  C   UNL     1       2.202   5.524  18.762  0.00  0.00    +0.000 A 
ATOM     23  C   UNL     1       3.262   6.076  18.044  0.00  0.00    +0.000 A 
ATOM     24  C   UNL     1       4.175   5.250  17.382  0.00  0.00    +0.000 A 
ATOM     25  C   UNL     1       4.008   3.863  17.446  0.00  0.00    +0.000 A 
ATOM     26  C   UNL     1       2.928   3.295  18.148  0.00  0.00    +0.000 A 
ATOM     27  C   UNL     1       2.740   1.803  18.140  0.00  0.00    +0.000 C 
ENDBRANCH  19  24
ENDBRANCH   1  19
TORSDOF 5
ENDMDL
MODEL 3
REMARK VINA RESULT:      -8.8      0.705      1.422
REMARK  Name = 
REMARK  7 active torsions:
REMARK  status: ('A' for Active; 'I' for Inactive)
REMARK    1  A    between atoms: C_1  and  C_2
REMARK    2  A    between atoms: C_5  and  O_6
REMARK    3  A    between atoms: O_6  and  C_7
REMARK    4  A    between atoms: C_9  and  N_10
REMARK    5  A    between atoms: N_10  and  C_11
REMARK    6  A    between atoms: C_11  and  C_12
REMARK    7  A    between atoms: C_23  and  C_24
REMARK                            x       y       z     vdW  Elec       q    Type
REMARK                         _______ _______ _______ _____ _____    ______ ____
ROOT
ATOM      1  C   UNL     1       6.637   4.953  18.355  0.00  0.00    +0.000 A 
ATOM      2  C   UNL     1       7.400   5.923  18.948  0.00  0.00    +0.000 A 
ATOM      3  C   UNL     1       7.909   6.903  18.114  0.00  0.00    +0.000 A 
ATOM      4  N   UNL     1       7.675   6.869  16.786  0.00  0.00    +0.000 NA
ATOM      5  C   UNL     1       6.972   5.838  16.301  0.00  0.00    +0.000 A 
ATOM      6  N   UNL     1       6.712   5.777  14.948  0.00  0.00    +0.000 N 
ATOM      7  N   UNL     1       6.439   4.873  17.032  0.00  0.00    +0.000 NA
ATOM      8  H   UNL     1       6.754   6.696  14.549  0.00  0.00    +0.000 HD
ATOM      9  H   UNL     1       5.884   5.226  14.785  0.00  0.00    +0.000 HD
ENDROOT
BRANCH   3  10
ATOM     10  N   UNL     1       8.541   8.013  18.696  0.00  0.00    +0.000 N 
ATOM     11  H   UNL     1       9.538   7.864  18.817  0.00  0.00    +0.000 HD
BRANCH  10  12
ATOM     12  C   UNL     1       8.291   9.300  18.049  0.00  0.00    +0.000 C 
BRANCH  12  13
ATOM     13  C   UNL     1       9.218  10.342  18.649  0.00  0.00    +0.000 A 
ATOM     14  C   UNL     1      10.055  11.121  17.835  0.00  0.00    +0.000 A 
ATOM     15  C   UNL     1      10.917  12.067  18.396  0.00  0.00    +0.000 A 
ATOM     16  C   UNL     1      10.952  12.249  19.779  0.00  0.00    +0.000 A 
ATOM     17  C   UNL     1      10.122  11.491  20.599  0.00  0.00    +0.000 A 
ATOM     18  C   UNL     1       9.259  10.544  20.042  0.00  0.00    +0.000 A 
ENDBRANCH  12  13
ENDBRANCH  10  12
ENDBRANCH   3  10
BRANCH   1  19
ATOM     19  O   UNL     1       6.050   3.991  19.171  0.00  0.00    +0.000 OA
BRANCH  19  24
ATOM     20  C   UNL     1       0.427   3.933  20.119  0.00  0.00    +0.000 C 
ATOM     21  C   UNL     1       1.902   3.951  19.829  0.00  0.00    +0.000 A 
ATOM     22  C   UNL     1       2.632   5.119  20.083  0.00  0.00    +0.000 A 
ATOM     23  C   UNL     1       4.006   5.169  19.849  0.00  0.00    +0.000 A 
ATOM     24  C   UNL     1       4.682   4.050  19.356  0.00  0.00    +0.000 A 
ATOM     25  C   UNL     1       3.962   2.880  19.097  0.00  0.00    +0.000 A 
ATOM     26  C   UNL     1       2.570   2.824  19.306  0.00  0.00    +0.000 A 
ATOM     27  C   UNL     1       1.816   1.573  18.953  0.00  0.00    +0.000 C 
ENDBRANCH  19  24
ENDBRANCH   1  19
TORSDOF 5
ENDMDL
MODEL 4
REMARK VINA RESULT:      -8.7      1.516      2.365
REMARK  Name = 
REMARK  7 active torsions:
REMARK  status: ('A' for Active; 'I' for Inactive)
REMARK    1  A    between atoms: C_1  and  C_2
REMARK    2  A    between atoms: C_5  and  O_6
REMARK    3  A    between atoms: O_6  and  C_7
REMARK    4  A    between atoms: C_9  and  N_10
REMARK    5  A    between atoms: N_10  and  C_11
REMARK    6  A    between atoms: C_11  and  C_12
REMARK    7  A    between atoms: C_23  and  C_24
REMARK                            x       y       z     vdW  Elec       q    Type
REMARK                         _______ _______ _______ _____ _____    ______ ____
ROOT
ATOM      1  C   UNL     1       5.107   6.621  17.010  0.00  0.00    +0.000 A 
ATOM      2  C   UNL     1       5.939   7.394  17.774  0.00  0.00    +0.000 A 
ATOM      3  C   UNL     1       7.297   7.241  17.555  0.00  0.00    +0.000 A 
ATOM      4  N   UNL     1       7.754   6.351  16.650  0.00  0.00    +0.000 NA
ATOM      5  C   UNL     1       6.855   5.598  16.004  0.00  0.00    +0.000 A 
ATOM      6  N   UNL     1       7.291   4.682  15.070  0.00  0.00    +0.000 N 
ATOM      7  N   UNL     1       5.544   5.694  16.145  0.00  0.00    +0.000 NA
ATOM      8  H   UNL     1       8.188   4.955  14.716  0.00  0.00    +0.000 HD
ATOM      9  H   UNL     1       6.555   4.496  14.407  0.00  0.00    +0.000 HD
ENDROOT
BRANCH   3  10
ATOM     10  N   UNL     1       8.179   8.136  18.180  0.00  0.00    +0.000 N 
ATOM     11  H   UNL     1       9.136   7.796  18.173  0.00  0.00    +0.000 HD
BRANCH  10  12
ATOM     12  C   UNL     1       8.125   9.518  17.705  0.00  0.00    +0.000 C 
BRANCH  12  13
ATOM     13  C   UNL     1       9.154  10.339  18.462  0.00  0.00    +0.000 A 
ATOM     14  C   UNL     1       9.149  10.391  19.864  0.00  0.00    +0.000 A 
ATOM     15  C   UNL     1      10.090  11.162  20.554  0.00  0.00    +0.000 A 
ATOM     16  C   UNL     1      11.051  11.887  19.850  0.00  0.00    +0.000 A 
ATOM     17  C   UNL     1      11.076  11.838  18.459  0.00  0.00    +0.000 A 
ATOM     18  C   UNL     1      10.136  11.070  17.767  0.00  0.00    +0.000 A 
ENDBRANCH  12  13
ENDBRANCH  10  12
ENDBRANCH   3  10
BRANCH   1  19
ATOM     19  O   UNL     1       3.734   6.798  17.152  0.00  0.00    +0.000 OA
BRANCH  19  24
ATOM     20  C   UNL     1       1.263   3.369  20.980  0.00  0.00    +0.000 C 
ATOM     21  C   UNL     1       1.879   4.276  19.951  0.00  0.00    +0.000 A 
ATOM     22  C   UNL     1       2.162   5.604  20.296  0.00  0.00    +0.000 A 
ATOM     23  C   UNL     1       2.753   6.471  19.379  0.00  0.00    +0.000 A 
ATOM     24  C   UNL     1       3.077   6.029  18.093  0.00  0.00    +0.000 A 
ATOM     25  C   UNL     1       2.796   4.706  17.738  0.00  0.00    +0.000 A 
ATOM     26  C   UNL     1       2.177   3.827  18.647  0.00  0.00    +0.000 A 
ATOM     27  C   UNL     1       1.827   2.432  18.211  0.00  0.00    +0.000 C 
ENDBRANCH  19  24
ENDBRANCH   1  19
TORSDOF 5
ENDMDL
MODEL 5
REMARK VINA RESULT:      -8.7      4.306      7.531
REMARK  Name = 
REMARK  7 active torsions:
REMARK  status: ('A' for Active; 'I' for Inactive)
REMARK    1  A    between atoms: C_1  and  C_2
REMARK    2  A    between atoms: C_5  and  O_6
REMARK    3  A    between atoms: O_6  and  C_7
REMARK    4  A    between atoms: C_9  and  N_10
REMARK    5  A    between atoms: N_10  and  C_11
REMARK    6  A    between atoms: C_11  and  C_12
REMARK    7  A    between atoms: C_23  and  C_24
REMARK                            x       y       z     vdW  Elec       q    Type
REMARK                         _______ _______ _______ _____ _____    ______ ____
ROOT
ATOM      1  C   UNL     1       4.222   5.964  17.795  0.00  0.00    +0.000 A 
ATOM      2  C   UNL     1       3.861   4.727  17.330  0.00  0.00    +0.000 A 
ATOM      3  C   UNL     1       4.679   3.671  17.690  0.00  0.00    +0.000 A 
ATOM      4  N   UNL     1       5.783   3.875  18.437  0.00  0.00    +0.000 NA
ATOM      5  C   UNL     1       6.080   5.135  18.783  0.00  0.00    +0.000 A 
ATOM      6  N   UNL     1       7.200   5.376  19.551  0.00  0.00    +0.000 N 
ATOM      7  N   UNL     1       5.343   6.194  18.493  0.00  0.00    +0.000 NA
ATOM      8  H   UNL     1       7.442   4.554  20.070  0.00  0.00    +0.000 HD
ATOM      9  H   UNL     1       7.086   6.241  20.056  0.00  0.00    +0.000 HD
ENDROOT
BRANCH   3  10
ATOM     10  N   UNL     1       4.254   2.366  17.393  0.00  0.00    +0.000 N 
ATOM     11  H   UNL     1       4.904   1.884  16.778  0.00  0.00    +0.000 HD
BRANCH  10  12
ATOM     12  C   UNL     1       3.920   1.528  18.543  0.00  0.00    +0.000 C 
BRANCH  12  13
ATOM     13  C   UNL     1       2.869   2.235  19.380  0.00  0.00    +0.000 A 
ATOM     14  C   UNL     1       1.569   2.434  18.891  0.00  0.00    +0.000 A 
ATOM     15  C   UNL     1       0.611   3.099  19.662  0.00  0.00    +0.000 A 
ATOM     16  C   UNL     1       0.939   3.572  20.932  0.00  0.00    +0.000 A 
ATOM     17  C   UNL     1       2.222   3.373  21.435  0.00  0.00    +0.000 A 
ATOM     18  C   UNL     1       3.182   2.709  20.668  0.00  0.00    +0.000 A 
ENDBRANCH  12  13
ENDBRANCH  10  12
ENDBRANCH   3  10
BRANCH   1  19
ATOM     19  O   UNL     1       3.385   7.040  17.513  0.00  0.00    +0.000 OA
BRANCH  19  24
ATOM     20  C   UNL     1      -0.025   9.208  21.537  0.00  0.00    +0.000 C 
ATOM     21  C   UNL     1       0.903   8.663  20.486  0.00  0.00    +0.000 A 
ATOM     22  C   UNL     1       1.534   7.432  20.707  0.00  0.00    +0.000 A 
ATOM     23  C   UNL     1       2.383   6.881  19.749  0.00  0.00    +0.000 A 
ATOM     24  C   UNL     1       2.622   7.550  18.545  0.00  0.00    +0.000 A 
ATOM     25  C   UNL     1       1.999   8.781  18.316  0.00  0.00    +0.000 A 
ATOM     26  C   UNL     1       1.157   9.359  19.286  0.00  0.00    +0.000 A 
ATOM     27  C   UNL     1       0.558  10.715  19.037  0.00  0.00    +0.000 C 
ENDBRANCH  19  24
ENDBRANCH   1  19
TORSDOF 5
ENDMDL
MODEL 6
REMARK VINA RESULT:      -8.7      1.721      2.722
REMARK  Name = 
REMARK  7 active torsions:
REMARK  status: ('A' for Active; 'I' for Inactive)
REMARK    1  A    between atoms: C_1  and  C_2
REMARK    2  A    between atoms: C_5  and  O_6
REMARK    3  A    between atoms: O_6  and  C_7
REMARK    4  A    between atoms: C_9  and  N_10
REMARK    5  A    between atoms: N_10  and  C_11
REMARK    6  A    between atoms: C_11  and  C_12
REMARK    7  A    between atoms: C_23  and  C_24
REMARK                            x       y       z     vdW  Elec       q    Type
REMARK                         _______ _______ _______ _____ _____    ______ ____
ROOT
ATOM      1  C   UNL     1       6.428   6.256  17.442  0.00  0.00    +0.000 A 
ATOM      2  C   UNL     1       6.814   7.552  17.224  0.00  0.00    +0.000 A 
ATOM      3  C   UNL     1       7.853   8.025  18.005  0.00  0.00    +0.000 A 
ATOM      4  N   UNL     1       8.424   7.243  18.943  0.00  0.00    +0.000 NA
ATOM      5  C   UNL     1       7.926   6.013  19.120  0.00  0.00    +0.000 A 
ATOM      6  N   UNL     1       8.491   5.187  20.069  0.00  0.00    +0.000 N 
ATOM      7  N   UNL     1       6.947   5.481  18.406  0.00  0.00    +0.000 NA
ATOM      8  H   UNL     1       9.437   5.465  20.245  0.00  0.00    +0.000 HD
ATOM      9  H   UNL     1       8.316   4.223  19.828  0.00  0.00    +0.000 HD
ENDROOT
BRANCH   3  10
ATOM     10  N   UNL     1       8.403   9.279  17.695  0.00  0.00    +0.000 N 
ATOM     11  H   UNL     1       7.747   9.868  17.190  0.00  0.00    +0.000 HD
BRANCH  10  12
ATOM     12  C   UNL     1       8.989  10.013  18.817  0.00  0.00    +0.000 C 
BRANCH  12  13
ATOM     13  C   UNL     1       9.627  11.287  18.292  0.00  0.00    +0.000 A 
ATOM     14  C   UNL     1       8.854  12.431  18.038  0.00  0.00    +0.000 A 
ATOM     15  C   UNL     1       9.447  13.595  17.540  0.00  0.00    +0.000 A 
ATOM     16  C   UNL     1      10.819  13.633  17.294  0.00  0.00    +0.000 A 
ATOM     17  C   UNL     1      11.601  12.510  17.551  0.00  0.00    +0.000 A 
ATOM     18  C   UNL     1      11.012  11.344  18.048  0.00  0.00    +0.000 A 
ENDBRANCH  12  13
ENDBRANCH  10  12
ENDBRANCH   3  10
BRANCH   1  19
ATOM     19  O   UNL     1       5.434   5.722  16.628  0.00  0.00    +0.000 OA
BRANCH  19  24
ATOM     20  C   UNL     1       0.960   3.448  19.337  0.00  0.00    +0.000 C 
ATOM     21  C   UNL     1       2.123   4.038  18.587  0.00  0.00    +0.000 A 
ATOM     22  C   UNL     1       2.237   5.430  18.493  0.00  0.00    +0.000 A 
ATOM     23  C   UNL     1       3.311   6.017  17.826  0.00  0.00    +0.000 A 
ATOM     24  C   UNL     1       4.300   5.222  17.238  0.00  0.00    +0.000 A 
ATOM     25  C   UNL     1       4.193   3.831  17.324  0.00  0.00    +0.000 A 
ATOM     26  C   UNL     1       3.101   3.226  17.974  0.00  0.00    +0.000 A 
ATOM     27  C   UNL     1       2.982   1.727  17.989  0.00  0.00    +0.000 C 
ENDBRANCH  19  24
ENDBRANCH   1  19
TORSDOF 5
ENDMDL
MODEL 7
REMARK VINA RESULT:      -8.7      1.738      2.681
REMARK  Name = 
REMARK  7 active torsions:
REMARK  status: ('A' for Active; 'I' for Inactive)
REMARK    1  A    between atoms: C_1  and  C_2
REMARK    2  A    between atoms: C_5  and  O_6
REMARK    3  A    between atoms: O_6  and  C_7
REMARK    4  A    between atoms: C_9  and  N_10
REMARK    5  A    between atoms: N_10  and  C_11
REMARK    6  A    between atoms: C_11  and  C_12
REMARK    7  A    between atoms: C_23  and  C_24
REMARK                            x       y       z     vdW  Elec       q    Type
REMARK                         _______ _______ _______ _____ _____    ______ ____
ROOT
ATOM      1  C   UNL     1       6.338   6.337  17.470  0.00  0.00    +0.000 A 
ATOM      2  C   UNL     1       6.741   7.628  17.258  0.00  0.00    +0.000 A 
ATOM      3  C   UNL     1       7.822   8.067  18.002  0.00  0.00    +0.000 A 
ATOM      4  N   UNL     1       8.415   7.256  18.902  0.00  0.00    +0.000 NA
ATOM      5  C   UNL     1       7.898   6.033  19.079  0.00  0.00    +0.000 A 
ATOM      6  N   UNL     1       8.485   5.179  19.989  0.00  0.00    +0.000 N 
ATOM      7  N   UNL     1       6.880   5.535  18.398  0.00  0.00    +0.000 NA
ATOM      8  H   UNL     1       9.444   5.435  20.131  0.00  0.00    +0.000 HD
ATOM      9  H   UNL     1       8.280   4.224  19.740  0.00  0.00    +0.000 HD
ENDROOT
BRANCH   3  10
ATOM     10  N   UNL     1       8.384   9.314  17.691  0.00  0.00    +0.000 N 
ATOM     11  H   UNL     1       7.717   9.930  17.237  0.00  0.00    +0.000 HD
BRANCH  10  12
ATOM     12  C   UNL     1       9.050  10.006  18.794  0.00  0.00    +0.000 C 
BRANCH  12  13
ATOM     13  C   UNL     1       9.675  11.286  18.267  0.00  0.00    +0.000 A 
ATOM     14  C   UNL     1      11.058  11.380  18.051  0.00  0.00    +0.000 A 
ATOM     15  C   UNL     1      11.628  12.567  17.580  0.00  0.00    +0.000 A 
ATOM     16  C   UNL     1      10.822  13.673  17.315  0.00  0.00    +0.000 A 
ATOM     17  C   UNL     1       9.446  13.593  17.514  0.00  0.00    +0.000 A 
ATOM     18  C   UNL     1       8.873  12.409  17.985  0.00  0.00    +0.000 A 
ENDBRANCH  12  13
ENDBRANCH  10  12
ENDBRANCH   3  10
BRANCH   1  19
ATOM     19  O   UNL     1       5.299   5.837  16.689  0.00  0.00    +0.000 OA
BRANCH  19  24
ATOM     20  C   UNL     1       0.858   3.635  19.507  0.00  0.00    +0.000 C 
ATOM     21  C   UNL     1       2.009   4.212  18.730  0.00  0.00    +0.000 A 
ATOM     22  C   UNL     1       2.253   5.589  18.797  0.00  0.00    +0.000 A 
ATOM     23  C   UNL     1       3.323   6.160  18.109  0.00  0.00    +0.000 A 
ATOM     24  C   UNL     1       4.175   5.365  17.337  0.00  0.00    +0.000 A 
ATOM     25  C   UNL     1       3.937   3.989  17.261  0.00  0.00    +0.000 A 
ATOM     26  C   UNL     1       2.846   3.404  17.932  0.00  0.00    +0.000 A 
ATOM     27  C   UNL     1       2.579   1.933  17.774  0.00  0.00    +0.000 C 
ENDBRANCH  19  24
ENDBRANCH   1  19
TORSDOF 5
ENDMDL
MODEL 8
REMARK VINA RESULT:      -8.5      4.607      7.226
REMARK  Name = 
REMARK  7 active torsions:
REMARK  status: ('A' for Active; 'I' for Inactive)
REMARK    1  A    between atoms: C_1  and  C_2
REMARK    2  A    between atoms: C_5  and  O_6
REMARK    3  A    between atoms: O_6  and  C_7
REMARK    4  A    between atoms: C_9  and  N_10
REMARK    5  A    between atoms: N_10  and  C_11
REMARK    6  A    between atoms: C_11  and  C_12
REMARK    7  A    between atoms: C_23  and  C_24
REMARK                            x       y       z     vdW  Elec       q    Type
REMARK                         _______ _______ _______ _____ _____    ______ ____
ROOT
ATOM      1  C   UNL     1       4.621   6.205  16.456  0.00  0.00    +0.000 A 
ATOM      2  C   UNL     1       4.138   5.038  16.986  0.00  0.00    +0.000 A 
ATOM      3  C   UNL     1       4.942   3.920  16.851  0.00  0.00    +0.000 A 
ATOM      4  N   UNL     1       6.123   3.993  16.205  0.00  0.00    +0.000 NA
ATOM      5  C   UNL     1       6.470   5.169  15.666  0.00  0.00    +0.000 A 
ATOM      6  N   UNL     1       7.675   5.277  15.003  0.00  0.00    +0.000 N 
ATOM      7  N   UNL     1       5.767   6.285  15.765  0.00  0.00    +0.000 NA
ATOM      8  H   UNL     1       8.309   4.573  15.329  0.00  0.00    +0.000 HD
ATOM      9  H   UNL     1       7.984   6.236  15.014  0.00  0.00    +0.000 HD
ENDROOT
BRANCH   3  10
ATOM     10  N   UNL     1       4.575   2.749  17.532  0.00  0.00    +0.000 N 
ATOM     11  H   UNL     1       4.939   2.730  18.481  0.00  0.00    +0.000 HD
BRANCH  10  12
ATOM     12  C   UNL     1       3.149   2.427  17.525  0.00  0.00    +0.000 C 
BRANCH  12  13
ATOM     13  C   UNL     1       2.571   2.724  18.898  0.00  0.00    +0.000 A 
ATOM     14  C   UNL     1       3.331   2.530  20.061  0.00  0.00    +0.000 A 
ATOM     15  C   UNL     1       2.786   2.791  21.322  0.00  0.00    +0.000 A 
ATOM     16  C   UNL     1       1.476   3.253  21.436  0.00  0.00    +0.000 A 
ATOM     17  C   UNL     1       0.711   3.460  20.291  0.00  0.00    +0.000 A 
ATOM     18  C   UNL     1       1.252   3.200  19.029  0.00  0.00    +0.000 A 
ENDBRANCH  12  13
ENDBRANCH  10  12
ENDBRANCH   3  10
BRANCH   1  19
ATOM     19  O   UNL     1       3.873   7.365  16.634  0.00  0.00    +0.000 OA
BRANCH  19  24
ATOM     20  C   UNL     1       0.766   8.071  21.363  0.00  0.00    +0.000 C 
ATOM     21  C   UNL     1       1.612   7.912  20.130  0.00  0.00    +0.000 A 
ATOM     22  C   UNL     1       2.382   6.752  19.978  0.00  0.00    +0.000 A 
ATOM     23  C   UNL     1       3.162   6.555  18.840  0.00  0.00    +0.000 A 
ATOM     24  C   UNL     1       3.190   7.516  17.825  0.00  0.00    +0.000 A 
ATOM     25  C   UNL     1       2.428   8.680  17.969  0.00  0.00    +0.000 A 
ATOM     26  C   UNL     1       1.654   8.900  19.124  0.00  0.00    +0.000 A 
ATOM     27  C   UNL     1       0.900  10.192  19.278  0.00  0.00    +0.000 C 
ENDBRANCH  19  24
ENDBRANCH   1  19
TORSDOF 5
ENDMDL
MODEL 9
REMARK VINA RESULT:      -8.5      1.694      2.290
REMARK  Name = 
REMARK  7 active torsions:
REMARK  status: ('A' for Active; 'I' for Inactive)
REMARK    1  A    between atoms: C_1  and  C_2
REMARK    2  A    between atoms: C_5  and  O_6
REMARK    3  A    between atoms: O_6  and  C_7
REMARK    4  A    between atoms: C_9  and  N_10
REMARK    5  A    between atoms: N_10  and  C_11
REMARK    6  A    between atoms: C_11  and  C_12
REMARK    7  A    between atoms: C_23  and  C_24
REMARK                            x       y       z     vdW  Elec       q    Type
REMARK                         _______ _______ _______ _____ _____    ______ ____
ROOT
ATOM      1  C   UNL     1       6.305   6.318  17.450  0.00  0.00    +0.000 A 
ATOM      2  C   UNL     1       6.699   7.612  17.241  0.00  0.00    +0.000 A 
ATOM      3  C   UNL     1       7.781   8.055  17.981  0.00  0.00    +0.000 A 
ATOM      4  N   UNL     1       8.384   7.245  18.874  0.00  0.00    +0.000 NA
ATOM      5  C   UNL     1       7.876   6.018  19.049  0.00  0.00    +0.000 A 
ATOM      6  N   UNL     1       8.474   5.164  19.952  0.00  0.00    +0.000 N 
ATOM      7  N   UNL     1       6.858   5.515  18.371  0.00  0.00    +0.000 NA
ATOM      8  H   UNL     1       9.432   5.426  20.089  0.00  0.00    +0.000 HD
ATOM      9  H   UNL     1       8.274   4.209  19.701  0.00  0.00    +0.000 HD
ENDROOT
BRANCH   3  10
ATOM     10  N   UNL     1       8.333   9.308  17.672  0.00  0.00    +0.000 N 
ATOM     11  H   UNL     1       7.660   9.919  17.219  0.00  0.00    +0.000 HD
BRANCH  10  12
ATOM     12  C   UNL     1       8.994  10.003  18.776  0.00  0.00    +0.000 C 
BRANCH  12  13
ATOM     13  C   UNL     1       9.611  11.286  18.250  0.00  0.00    +0.000 A 
ATOM     14  C   UNL     1      10.980  11.361  17.951  0.00  0.00    +0.000 A 
ATOM     15  C   UNL     1      11.544  12.552  17.482  0.00  0.00    +0.000 A 
ATOM     16  C   UNL     1      10.746  13.681  17.302  0.00  0.00    +0.000 A 
ATOM     17  C   UNL     1       9.384  13.620  17.585  0.00  0.00    +0.000 A 
ATOM     18  C   UNL     1       8.817  12.433  18.055  0.00  0.00    +0.000 A 
ENDBRANCH  12  13
ENDBRANCH  10  12
ENDBRANCH   3  10
BRANCH   1  19
ATOM     19  O   UNL     1       5.266   5.814  16.673  0.00  0.00    +0.000 OA
BRANCH  19  24
ATOM     20  C   UNL     1       1.001   3.054  19.263  0.00  0.00    +0.000 C 
ATOM     21  C   UNL     1       2.149   3.774  18.612  0.00  0.00    +0.000 A 
ATOM     22  C   UNL     1       2.827   3.157  17.553  0.00  0.00    +0.000 A 
ATOM     23  C   UNL     1       3.883   3.800  16.908  0.00  0.00    +0.000 A 
ATOM     24  C   UNL     1       4.284   5.078  17.307  0.00  0.00    +0.000 A 
ATOM     25  C   UNL     1       3.616   5.701  18.365  0.00  0.00    +0.000 A 
ATOM     26  C   UNL     1       2.564   5.052  19.040  0.00  0.00    +0.000 A 
ATOM     27  C   UNL     1       1.911   5.722  20.218  0.00  0.00    +0.000 C 
ENDBRANCH  19  24
ENDBRANCH   1  19
TORSDOF 5
ENDMDL
