MODEL 1
REMARK VINA RESULT:      -7.5      0.000      0.000
REMARK  Name = 
REMARK  6 active torsions:
REMARK  status: ('A' for Active; 'I' for Inactive)
REMARK    1  A    between atoms: C_1  and  C_2
REMARK    2  A    between atoms: C_6  and  C_7
REMARK    3  A    between atoms: C_8  and  O_9
REMARK    4  A    between atoms: C_13  and  C_14
REMARK    5  A    between atoms: C_21  and  C_22
REMARK    6  A    between atoms: C_26  and  N_27
REMARK                            x       y       z     vdW  Elec       q    Type
REMARK                         _______ _______ _______ _____ _____    ______ ____
ROOT
ATOM      1  C   UNL     1       1.041  14.118  18.554  0.00  0.00    +0.000 C 
ATOM      2  C   UNL     1       1.158  12.622  18.405  0.00  0.00    +0.000 C 
ATOM      3  O   UNL     1       2.250  12.076  18.249  0.00  0.00    +0.000 OA
ATOM      4  N   UNL     1      -0.036  11.927  18.473  0.00  0.00    +0.000 N 
ATOM      5  N   UNL     1      -1.259  12.549  18.474  0.00  0.00    +0.000 NA
ATOM      6  C   UNL     1      -2.161  11.619  18.340  0.00  0.00    +0.000 C 
ATOM      7  C   UNL     1      -1.609  10.220  18.216  0.00  0.00    +0.000 C 
ATOM      8  C   UNL     1      -0.116  10.477  18.341  0.00  0.00    +0.000 C 
ENDROOT
BRANCH   6   9
ATOM      9  C   UNL     1      -3.621  11.923  18.292  0.00  0.00    +0.000 A 
ATOM     10  C   UNL     1      -4.309  11.848  17.072  0.00  0.00    +0.000 A 
ATOM     11  C   UNL     1      -5.669  12.143  17.003  0.00  0.00    +0.000 A 
ATOM     12  C   UNL     1      -6.379  12.496  18.156  0.00  0.00    +0.000 A 
ATOM     13  C   UNL     1      -5.741  12.561  19.401  0.00  0.00    +0.000 A 
ATOM     14  C   UNL     1      -6.432  12.895  20.662  0.00  0.00    +0.000 A 
ATOM     15  C   UNL     1      -7.910  13.140  20.744  0.00  0.00    +0.000 C 
ATOM     16  C   UNL     1      -5.717  12.964  21.795  0.00  0.00    +0.000 A 
ATOM     17  C   UNL     1      -4.277  12.720  21.859  0.00  0.00    +0.000 A 
ATOM     18  O   UNL     1      -3.650  12.808  22.905  0.00  0.00    +0.000 OA
ATOM     19  O   UNL     1      -3.680  12.365  20.668  0.00  0.00    +0.000 OA
ATOM     20  C   UNL     1      -4.363  12.281  19.435  0.00  0.00    +0.000 A 
BRANCH  10  21
ATOM     21  O   UNL     1      -3.726  11.484  15.888  0.00  0.00    +0.000 OA
ATOM     22  H   UNL     1      -2.831  11.129  16.082  0.00  0.00    +0.000 HD
ENDBRANCH  10  21
ENDBRANCH   6   9
BRANCH   8  23
ATOM     23  C   UNL     1       0.475   9.729  19.524  0.00  0.00    +0.000 A 
ATOM     24  C   UNL     1       1.370   8.668  19.305  0.00  0.00    +0.000 A 
ATOM     25  C   UNL     1       1.889   7.935  20.374  0.00  0.00    +0.000 A 
ATOM     26  C   UNL     1       1.517   8.243  21.682  0.00  0.00    +0.000 A 
ATOM     27  C   UNL     1       0.627   9.298  21.912  0.00  0.00    +0.000 A 
ATOM     28  C   UNL     1       0.113  10.046  20.845  0.00  0.00    +0.000 A 
BRANCH  27  29
ATOM     29  N   UNL     1       0.205   9.612  23.283  0.00  0.00    +0.000 N 
ATOM     30  O   UNL     1      -0.950  10.026  23.451  0.00  0.00    +0.000 OA
ATOM     31  O   UNL     1       1.034   9.460  24.192  0.00  0.00    +0.000 OA
ENDBRANCH  27  29
ENDBRANCH   8  23
TORSDOF 4
ENDMDL
MODEL 2
REMARK VINA RESULT:      -7.2      2.321      3.914
REMARK  Name = 
REMARK  6 active torsions:
REMARK  status: ('A' for Active; 'I' for Inactive)
REMARK    1  A    between atoms: C_1  and  C_2
REMARK    2  A    between atoms: C_6  and  C_7
REMARK    3  A    between atoms: C_8  and  O_9
REMARK    4  A    between atoms: C_13  and  C_14
REMARK    5  A    between atoms: C_21  and  C_22
REMARK    6  A    between atoms: C_26  and  N_27
REMARK                            x       y       z     vdW  Elec       q    Type
REMARK                         _______ _______ _______ _____ _____    ______ ____
ROOT
ATOM      1  C   UNL     1       2.395  13.550  19.275  0.00  0.00    +0.000 C 
ATOM      2  C   UNL     1       2.009  12.242  18.633  0.00  0.00    +0.000 C 
ATOM      3  O   UNL     1       2.755  11.672  17.836  0.00  0.00    +0.000 OA
ATOM      4  N   UNL     1       0.779  11.737  19.017  0.00  0.00    +0.000 N 
ATOM      5  N   UNL     1      -0.117  12.454  19.767  0.00  0.00    +0.000 NA
ATOM      6  C   UNL     1      -1.232  11.780  19.776  0.00  0.00    +0.000 C 
ATOM      7  C   UNL     1      -1.199  10.495  18.987  0.00  0.00    +0.000 C 
ATOM      8  C   UNL     1       0.239  10.488  18.492  0.00  0.00    +0.000 C 
ENDROOT
BRANCH   6   9
ATOM      9  C   UNL     1      -2.450  12.261  20.495  0.00  0.00    +0.000 A 
ATOM     10  C   UNL     1      -2.359  12.650  21.838  0.00  0.00    +0.000 A 
ATOM     11  C   UNL     1      -3.485  13.087  22.530  0.00  0.00    +0.000 A 
ATOM     12  C   UNL     1      -4.727  13.168  21.889  0.00  0.00    +0.000 A 
ATOM     13  C   UNL     1      -4.863  12.812  20.542  0.00  0.00    +0.000 A 
ATOM     14  C   UNL     1      -6.132  12.901  19.792  0.00  0.00    +0.000 A 
ATOM     15  C   UNL     1      -7.397  13.444  20.390  0.00  0.00    +0.000 C 
ATOM     16  C   UNL     1      -6.160  12.501  18.512  0.00  0.00    +0.000 A 
ATOM     17  C   UNL     1      -4.993  11.979  17.802  0.00  0.00    +0.000 A 
ATOM     18  O   UNL     1      -5.054  11.605  16.640  0.00  0.00    +0.000 OA
ATOM     19  O   UNL     1      -3.818  11.958  18.524  0.00  0.00    +0.000 OA
ATOM     20  C   UNL     1      -3.713  12.352  19.876  0.00  0.00    +0.000 A 
BRANCH  10  21
ATOM     21  O   UNL     1      -1.193  12.643  22.557  0.00  0.00    +0.000 OA
ATOM     22  H   UNL     1      -0.443  12.584  21.927  0.00  0.00    +0.000 HD
ENDBRANCH  10  21
ENDBRANCH   6   9
BRANCH   8  23
ATOM     23  C   UNL     1       0.983   9.255  18.979  0.00  0.00    +0.000 A 
ATOM     24  C   UNL     1       0.905   8.879  20.330  0.00  0.00    +0.000 A 
ATOM     25  C   UNL     1       1.618   7.779  20.810  0.00  0.00    +0.000 A 
ATOM     26  C   UNL     1       2.429   7.038  19.950  0.00  0.00    +0.000 A 
ATOM     27  C   UNL     1       2.514   7.404  18.602  0.00  0.00    +0.000 A 
ATOM     28  C   UNL     1       1.791   8.499  18.112  0.00  0.00    +0.000 A 
BRANCH  27  29
ATOM     29  N   UNL     1       3.387   6.650  17.695  0.00  0.00    +0.000 N 
ATOM     30  O   UNL     1       4.224   7.285  17.039  0.00  0.00    +0.000 OA
ATOM     31  O   UNL     1       3.228   5.422  17.626  0.00  0.00    +0.000 OA
ENDBRANCH  27  29
ENDBRANCH   8  23
TORSDOF 4
ENDMDL
MODEL 3
REMARK VINA RESULT:      -7.2      1.964      2.429
REMARK  Name = 
REMARK  6 active torsions:
REMARK  status: ('A' for Active; 'I' for Inactive)
REMARK    1  A    between atoms: C_1  and  C_2
REMARK    2  A    between atoms: C_6  and  C_7
REMARK    3  A    between atoms: C_8  and  O_9
REMARK    4  A    between atoms: C_13  and  C_14
REMARK    5  A    between atoms: C_21  and  C_22
REMARK    6  A    between atoms: C_26  and  N_27
REMARK                            x       y       z     vdW  Elec       q    Type
REMARK                         _______ _______ _______ _____ _____    ______ ____
ROOT
ATOM      1  C   UNL     1       1.268  13.900  19.100  0.00  0.00    +0.000 C 
ATOM      2  C   UNL     1       1.373  12.489  18.582  0.00  0.00    +0.000 C 
ATOM      3  O   UNL     1       2.458  11.998  18.271  0.00  0.00    +0.000 OA
ATOM      4  N   UNL     1       0.176  11.800  18.500  0.00  0.00    +0.000 N 
ATOM      5  N   UNL     1      -1.043  12.404  18.682  0.00  0.00    +0.000 NA
ATOM      6  C   UNL     1      -1.953  11.536  18.340  0.00  0.00    +0.000 C 
ATOM      7  C   UNL     1      -1.412  10.212  17.860  0.00  0.00    +0.000 C 
ATOM      8  C   UNL     1       0.085  10.429  18.013  0.00  0.00    +0.000 C 
ENDROOT
BRANCH   6   9
ATOM      9  C   UNL     1      -3.412  11.844  18.400  0.00  0.00    +0.000 A 
ATOM     10  C   UNL     1      -4.192  11.754  17.238  0.00  0.00    +0.000 A 
ATOM     11  C   UNL     1      -5.552  12.051  17.270  0.00  0.00    +0.000 A 
ATOM     12  C   UNL     1      -6.171  12.424  18.469  0.00  0.00    +0.000 A 
ATOM     13  C   UNL     1      -5.439  12.505  19.660  0.00  0.00    +0.000 A 
ATOM     14  C   UNL     1      -6.029  12.860  20.965  0.00  0.00    +0.000 A 
ATOM     15  C   UNL     1      -7.496  13.111  21.157  0.00  0.00    +0.000 C 
ATOM     16  C   UNL     1      -5.229  12.944  22.039  0.00  0.00    +0.000 A 
ATOM     17  C   UNL     1      -3.788  12.696  21.995  0.00  0.00    +0.000 A 
ATOM     18  O   UNL     1      -3.082  12.798  22.988  0.00  0.00    +0.000 OA
ATOM     19  O   UNL     1      -3.286  12.321  20.767  0.00  0.00    +0.000 OA
ATOM     20  C   UNL     1      -4.063  12.222  19.592  0.00  0.00    +0.000 A 
BRANCH  10  21
ATOM     21  O   UNL     1      -3.703  11.371  16.018  0.00  0.00    +0.000 OA
ATOM     22  H   UNL     1      -2.947  11.955  15.792  0.00  0.00    +0.000 HD
ENDBRANCH  10  21
ENDBRANCH   6   9
BRANCH   8  23
ATOM     23  C   UNL     1       0.695   9.409  18.960  0.00  0.00    +0.000 A 
ATOM     24  C   UNL     1       0.375   9.445  20.327  0.00  0.00    +0.000 A 
ATOM     25  C   UNL     1       0.959   8.549  21.224  0.00  0.00    +0.000 A 
ATOM     26  C   UNL     1       1.882   7.605  20.774  0.00  0.00    +0.000 A 
ATOM     27  C   UNL     1       2.208   7.560  19.413  0.00  0.00    +0.000 A 
ATOM     28  C   UNL     1       1.615   8.448  18.506  0.00  0.00    +0.000 A 
BRANCH  27  29
ATOM     29  N   UNL     1       3.200   6.591  18.932  0.00  0.00    +0.000 N 
ATOM     30  O   UNL     1       3.490   5.644  19.676  0.00  0.00    +0.000 OA
ATOM     31  O   UNL     1       3.701   6.783  17.815  0.00  0.00    +0.000 OA
ENDBRANCH  27  29
ENDBRANCH   8  23
TORSDOF 4
ENDMDL
MODEL 4
REMARK VINA RESULT:      -7.1      2.271      3.061
REMARK  Name = 
REMARK  6 active torsions:
REMARK  status: ('A' for Active; 'I' for Inactive)
REMARK    1  A    between atoms: C_1  and  C_2
REMARK    2  A    between atoms: C_6  and  C_7
REMARK    3  A    between atoms: C_8  and  O_9
REMARK    4  A    between atoms: C_13  and  C_14
REMARK    5  A    between atoms: C_21  and  C_22
REMARK    6  A    between atoms: C_26  and  N_27
REMARK                            x       y       z     vdW  Elec       q    Type
REMARK                         _______ _______ _______ _____ _____    ______ ____
ROOT
ATOM      1  C   UNL     1       1.916  13.758  19.198  0.00  0.00    +0.000 C 
ATOM      2  C   UNL     1       1.786  12.422  18.512  0.00  0.00    +0.000 C 
ATOM      3  O   UNL     1       2.730  11.916  17.906  0.00  0.00    +0.000 OA
ATOM      4  N   UNL     1       0.547  11.817  18.631  0.00  0.00    +0.000 N 
ATOM      5  N   UNL     1      -0.546  12.458  19.156  0.00  0.00    +0.000 NA
ATOM      6  C   UNL     1      -1.578  11.694  18.937  0.00  0.00    +0.000 C 
ATOM      7  C   UNL     1      -1.270  10.415  18.198  0.00  0.00    +0.000 C 
ATOM      8  C   UNL     1       0.236  10.527  18.025  0.00  0.00    +0.000 C 
ENDROOT
BRANCH   6   9
ATOM      9  C   UNL     1      -2.957  12.072  19.366  0.00  0.00    +0.000 A 
ATOM     10  C   UNL     1      -3.989  12.140  18.419  0.00  0.00    +0.000 A 
ATOM     11  C   UNL     1      -5.279  12.504  18.797  0.00  0.00    +0.000 A 
ATOM     12  C   UNL     1      -5.574  12.788  20.134  0.00  0.00    +0.000 A 
ATOM     13  C   UNL     1      -4.584  12.710  21.121  0.00  0.00    +0.000 A 
ATOM     14  C   UNL     1      -4.829  12.963  22.554  0.00  0.00    +0.000 A 
ATOM     15  C   UNL     1      -6.189  13.272  23.109  0.00  0.00    +0.000 C 
ATOM     16  C   UNL     1      -3.799  12.897  23.411  0.00  0.00    +0.000 A 
ATOM     17  C   UNL     1      -2.429  12.578  23.007  0.00  0.00    +0.000 A 
ATOM     18  O   UNL     1      -1.508  12.542  23.810  0.00  0.00    +0.000 OA
ATOM     19  O   UNL     1      -2.253  12.302  21.668  0.00  0.00    +0.000 OA
ATOM     20  C   UNL     1      -3.285  12.362  20.706  0.00  0.00    +0.000 A 
BRANCH  10  21
ATOM     21  O   UNL     1      -3.824  11.855  17.089  0.00  0.00    +0.000 OA
ATOM     22  H   UNL     1      -4.708  11.850  16.663  0.00  0.00    +0.000 HD
ENDBRANCH  10  21
ENDBRANCH   6   9
BRANCH   8  23
ATOM     23  C   UNL     1       0.955   9.361  18.684  0.00  0.00    +0.000 A 
ATOM     24  C   UNL     1       0.823   9.150  20.066  0.00  0.00    +0.000 A 
ATOM     25  C   UNL     1       1.511   8.114  20.702  0.00  0.00    +0.000 A 
ATOM     26  C   UNL     1       2.351   7.275  19.969  0.00  0.00    +0.000 A 
ATOM     27  C   UNL     1       2.488   7.477  18.591  0.00  0.00    +0.000 A 
ATOM     28  C   UNL     1       1.791   8.506  17.946  0.00  0.00    +0.000 A 
BRANCH  27  29
ATOM     29  N   UNL     1       3.392   6.619  17.815  0.00  0.00    +0.000 N 
ATOM     30  O   UNL     1       3.079   5.428  17.675  0.00  0.00    +0.000 OA
ATOM     31  O   UNL     1       4.423   7.131  17.356  0.00  0.00    +0.000 OA
ENDBRANCH  27  29
ENDBRANCH   8  23
TORSDOF 4
ENDMDL
MODEL 5
REMARK VINA RESULT:      -7.1      1.295      1.781
REMARK  Name = 
REMARK  6 active torsions:
REMARK  status: ('A' for Active; 'I' for Inactive)
REMARK    1  A    between atoms: C_1  and  C_2
REMARK    2  A    between atoms: C_6  and  C_7
REMARK    3  A    between atoms: C_8  and  O_9
REMARK    4  A    between atoms: C_13  and  C_14
REMARK    5  A    between atoms: C_21  and  C_22
REMARK    6  A    between atoms: C_26  and  N_27
REMARK                            x       y       z     vdW  Elec       q    Type
REMARK                         _______ _______ _______ _____ _____    ______ ____
ROOT
ATOM      1  C   UNL     1       0.084  15.093  19.574  0.00  0.00    +0.000 C 
ATOM      2  C   UNL     1       0.189  13.753  18.892  0.00  0.00    +0.000 C 
ATOM      3  O   UNL     1       1.203  13.424  18.276  0.00  0.00    +0.000 OA
ATOM      4  N   UNL     1      -0.919  12.935  19.025  0.00  0.00    +0.000 N 
ATOM      5  N   UNL     1      -2.104  13.370  19.562  0.00  0.00    +0.000 NA
ATOM      6  C   UNL     1      -2.983  12.431  19.356  0.00  0.00    +0.000 C 
ATOM      7  C   UNL     1      -2.457  11.226  18.615  0.00  0.00    +0.000 C 
ATOM      8  C   UNL     1      -0.998  11.608  18.425  0.00  0.00    +0.000 C 
ENDROOT
BRANCH   6   9
ATOM      9  C   UNL     1      -4.403  12.555  19.800  0.00  0.00    +0.000 A 
ATOM     10  C   UNL     1      -5.433  12.558  18.849  0.00  0.00    +0.000 A 
ATOM     11  C   UNL     1      -6.763  12.688  19.242  0.00  0.00    +0.000 A 
ATOM     12  C   UNL     1      -7.097  12.795  20.597  0.00  0.00    +0.000 A 
ATOM     13  C   UNL     1      -6.105  12.772  21.585  0.00  0.00    +0.000 A 
ATOM     14  C   UNL     1      -6.385  12.847  23.033  0.00  0.00    +0.000 A 
ATOM     15  C   UNL     1      -7.775  12.894  23.595  0.00  0.00    +0.000 C 
ATOM     16  C   UNL     1      -5.356  12.854  23.893  0.00  0.00    +0.000 A 
ATOM     17  C   UNL     1      -3.955  12.785  23.480  0.00  0.00    +0.000 A 
ATOM     18  O   UNL     1      -3.038  12.811  24.288  0.00  0.00    +0.000 OA
ATOM     19  O   UNL     1      -3.740  12.667  22.123  0.00  0.00    +0.000 OA
ATOM     20  C   UNL     1      -4.770  12.664  21.156  0.00  0.00    +0.000 A 
BRANCH  10  21
ATOM     21  O   UNL     1      -5.229  12.430  17.501  0.00  0.00    +0.000 OA
ATOM     22  H   UNL     1      -4.275  12.576  17.320  0.00  0.00    +0.000 HD
ENDBRANCH  10  21
ENDBRANCH   6   9
BRANCH   8  23
ATOM     23  C   UNL     1      -0.074  10.593  19.078  0.00  0.00    +0.000 A 
ATOM     24  C   UNL     1       0.697   9.734  18.278  0.00  0.00    +0.000 A 
ATOM     25  C   UNL     1       1.517   8.762  18.854  0.00  0.00    +0.000 A 
ATOM     26  C   UNL     1       1.576   8.624  20.241  0.00  0.00    +0.000 A 
ATOM     27  C   UNL     1       0.813   9.476  21.047  0.00  0.00    +0.000 A 
ATOM     28  C   UNL     1      -0.002  10.462  20.475  0.00  0.00    +0.000 A 
BRANCH  27  29
ATOM     29  N   UNL     1       0.844   9.321  22.507  0.00  0.00    +0.000 N 
ATOM     30  O   UNL     1      -0.234   9.150  23.092  0.00  0.00    +0.000 OA
ATOM     31  O   UNL     1       1.946   9.386  23.071  0.00  0.00    +0.000 OA
ENDBRANCH  27  29
ENDBRANCH   8  23
TORSDOF 4
ENDMDL
MODEL 6
REMARK VINA RESULT:      -6.9      3.053      7.281
REMARK  Name = 
REMARK  6 active torsions:
REMARK  status: ('A' for Active; 'I' for Inactive)
REMARK    1  A    between atoms: C_1  and  C_2
REMARK    2  A    between atoms: C_6  and  C_7
REMARK    3  A    between atoms: C_8  and  O_9
REMARK    4  A    between atoms: C_13  and  C_14
REMARK    5  A    between atoms: C_21  and  C_22
REMARK    6  A    between atoms: C_26  and  N_27
REMARK                            x       y       z     vdW  Elec       q    Type
REMARK                         _______ _______ _______ _____ _____    ______ ____
ROOT
ATOM      1  C   UNL     1      -4.066  17.098  20.176  0.00  0.00    +0.000 C 
ATOM      2  C   UNL     1      -4.484  16.313  21.393  0.00  0.00    +0.000 C 
ATOM      3  O   UNL     1      -5.377  16.713  22.141  0.00  0.00    +0.000 OA
ATOM      4  N   UNL     1      -3.807  15.123  21.588  0.00  0.00    +0.000 N 
ATOM      5  N   UNL     1      -2.703  14.767  20.855  0.00  0.00    +0.000 NA
ATOM      6  C   UNL     1      -2.196  13.707  21.419  0.00  0.00    +0.000 C 
ATOM      7  C   UNL     1      -2.933  13.234  22.648  0.00  0.00    +0.000 C 
ATOM      8  C   UNL     1      -4.072  14.238  22.717  0.00  0.00    +0.000 C 
ENDROOT
BRANCH   6   9
ATOM      9  C   UNL     1      -0.970  13.034  20.897  0.00  0.00    +0.000 A 
ATOM     10  C   UNL     1       0.288  13.383  21.407  0.00  0.00    +0.000 A 
ATOM     11  C   UNL     1       1.445  12.778  20.923  0.00  0.00    +0.000 A 
ATOM     12  C   UNL     1       1.370  11.791  19.934  0.00  0.00    +0.000 A 
ATOM     13  C   UNL     1       0.135  11.390  19.411  0.00  0.00    +0.000 A 
ATOM     14  C   UNL     1      -0.023  10.335  18.391  0.00  0.00    +0.000 A 
ATOM     15  C   UNL     1       1.129   9.539  17.854  0.00  0.00    +0.000 C 
ATOM     16  C   UNL     1      -1.252  10.054  17.931  0.00  0.00    +0.000 A 
ATOM     17  C   UNL     1      -2.463  10.735  18.390  0.00  0.00    +0.000 A 
ATOM     18  O   UNL     1      -3.567  10.469  17.939  0.00  0.00    +0.000 OA
ATOM     19  O   UNL     1      -2.276  11.680  19.378  0.00  0.00    +0.000 OA
ATOM     20  C   UNL     1      -1.014  12.037  19.902  0.00  0.00    +0.000 A 
BRANCH  10  21
ATOM     21  O   UNL     1       0.480  14.312  22.396  0.00  0.00    +0.000 OA
ATOM     22  H   UNL     1       1.227  14.013  22.958  0.00  0.00    +0.000 HD
ENDBRANCH  10  21
ENDBRANCH   6   9
BRANCH   8  23
ATOM     23  C   UNL     1      -5.423  13.546  22.638  0.00  0.00    +0.000 A 
ATOM     24  C   UNL     1      -6.386  13.777  23.634  0.00  0.00    +0.000 A 
ATOM     25  C   UNL     1      -7.616  13.116  23.608  0.00  0.00    +0.000 A 
ATOM     26  C   UNL     1      -7.903  12.205  22.592  0.00  0.00    +0.000 A 
ATOM     27  C   UNL     1      -6.950  11.968  21.595  0.00  0.00    +0.000 A 
ATOM     28  C   UNL     1      -5.720  12.637  21.608  0.00  0.00    +0.000 A 
BRANCH  27  29
ATOM     29  N   UNL     1      -7.229  10.989  20.537  0.00  0.00    +0.000 N 
ATOM     30  O   UNL     1      -7.450  11.419  19.396  0.00  0.00    +0.000 OA
ATOM     31  O   UNL     1      -7.243   9.789  20.848  0.00  0.00    +0.000 OA
ENDBRANCH  27  29
ENDBRANCH   8  23
TORSDOF 4
ENDMDL
MODEL 7
REMARK VINA RESULT:      -6.8      2.017      2.851
REMARK  Name = 
REMARK  6 active torsions:
REMARK  status: ('A' for Active; 'I' for Inactive)
REMARK    1  A    between atoms: C_1  and  C_2
REMARK    2  A    between atoms: C_6  and  C_7
REMARK    3  A    between atoms: C_8  and  O_9
REMARK    4  A    between atoms: C_13  and  C_14
REMARK    5  A    between atoms: C_21  and  C_22
REMARK    6  A    between atoms: C_26  and  N_27
REMARK                            x       y       z     vdW  Elec       q    Type
REMARK                         _______ _______ _______ _____ _____    ______ ____
ROOT
ATOM      1  C   UNL     1       0.456  14.615  20.760  0.00  0.00    +0.000 C 
ATOM      2  C   UNL     1       0.564  13.421  19.847  0.00  0.00    +0.000 C 
ATOM      3  O   UNL     1       1.626  13.124  19.301  0.00  0.00    +0.000 OA
ATOM      4  N   UNL     1      -0.602  12.693  19.688  0.00  0.00    +0.000 N 
ATOM      5  N   UNL     1      -1.817  13.123  20.157  0.00  0.00    +0.000 NA
ATOM      6  C   UNL     1      -2.720  12.320  19.670  0.00  0.00    +0.000 C 
ATOM      7  C   UNL     1      -2.179  11.232  18.775  0.00  0.00    +0.000 C 
ATOM      8  C   UNL     1      -0.686  11.512  18.835  0.00  0.00    +0.000 C 
ENDROOT
BRANCH   6   9
ATOM      9  C   UNL     1      -4.175  12.484  19.962  0.00  0.00    +0.000 A 
ATOM     10  C   UNL     1      -5.100  12.492  18.909  0.00  0.00    +0.000 A 
ATOM     11  C   UNL     1      -6.460  12.659  19.158  0.00  0.00    +0.000 A 
ATOM     12  C   UNL     1      -6.931  12.797  20.469  0.00  0.00    +0.000 A 
ATOM     13  C   UNL     1      -6.048  12.771  21.555  0.00  0.00    +0.000 A 
ATOM     14  C   UNL     1      -6.475  12.878  22.964  0.00  0.00    +0.000 A 
ATOM     15  C   UNL     1      -7.915  12.967  23.377  0.00  0.00    +0.000 C 
ATOM     16  C   UNL     1      -5.541  12.878  23.928  0.00  0.00    +0.000 A 
ATOM     17  C   UNL     1      -4.107  12.770  23.664  0.00  0.00    +0.000 A 
ATOM     18  O   UNL     1      -3.278  12.790  24.563  0.00  0.00    +0.000 OA
ATOM     19  O   UNL     1      -3.755  12.623  22.339  0.00  0.00    +0.000 OA
ATOM     20  C   UNL     1      -4.679  12.625  21.270  0.00  0.00    +0.000 A 
BRANCH  10  21
ATOM     21  O   UNL     1      -4.759  12.335  17.592  0.00  0.00    +0.000 OA
ATOM     22  H   UNL     1      -4.185  13.087  17.330  0.00  0.00    +0.000 HD
ENDBRANCH  10  21
ENDBRANCH   6   9
BRANCH   8  23
ATOM     23  C   UNL     1       0.077  10.317  19.380  0.00  0.00    +0.000 A 
ATOM     24  C   UNL     1      -0.005   9.997  20.745  0.00  0.00    +0.000 A 
ATOM     25  C   UNL     1       0.725   8.933  21.278  0.00  0.00    +0.000 A 
ATOM     26  C   UNL     1       1.558   8.172  20.458  0.00  0.00    +0.000 A 
ATOM     27  C   UNL     1       1.647   8.482  19.096  0.00  0.00    +0.000 A 
ATOM     28  C   UNL     1       0.907   9.540  18.553  0.00  0.00    +0.000 A 
BRANCH  27  29
ATOM     29  N   UNL     1       2.543   7.707  18.229  0.00  0.00    +0.000 N 
ATOM     30  O   UNL     1       3.121   8.308  17.312  0.00  0.00    +0.000 OA
ATOM     31  O   UNL     1       2.659   6.493  18.454  0.00  0.00    +0.000 OA
ENDBRANCH  27  29
ENDBRANCH   8  23
TORSDOF 4
ENDMDL
MODEL 8
REMARK VINA RESULT:      -6.8      3.111      5.713
REMARK  Name = 
REMARK  6 active torsions:
REMARK  status: ('A' for Active; 'I' for Inactive)
REMARK    1  A    between atoms: C_1  and  C_2
REMARK    2  A    between atoms: C_6  and  C_7
REMARK    3  A    between atoms: C_8  and  O_9
REMARK    4  A    between atoms: C_13  and  C_14
REMARK    5  A    between atoms: C_21  and  C_22
REMARK    6  A    between atoms: C_26  and  N_27
REMARK                            x       y       z     vdW  Elec       q    Type
REMARK                         _______ _______ _______ _____ _____    ______ ____
ROOT
ATOM      1  C   UNL     1       0.039   9.433  22.845  0.00  0.00    +0.000 C 
ATOM      2  C   UNL     1       0.094   9.965  21.435  0.00  0.00    +0.000 C 
ATOM      3  O   UNL     1       0.533   9.284  20.509  0.00  0.00    +0.000 OA
ATOM      4  N   UNL     1      -0.393  11.249  21.270  0.00  0.00    +0.000 N 
ATOM      5  N   UNL     1      -0.719  12.062  22.326  0.00  0.00    +0.000 NA
ATOM      6  C   UNL     1      -0.944  13.249  21.838  0.00  0.00    +0.000 C 
ATOM      7  C   UNL     1      -0.771  13.359  20.343  0.00  0.00    +0.000 C 
ATOM      8  C   UNL     1      -0.411  11.928  19.979  0.00  0.00    +0.000 C 
ENDROOT
BRANCH   6   9
ATOM      9  C   UNL     1      -1.322  14.408  22.700  0.00  0.00    +0.000 A 
ATOM     10  C   UNL     1      -0.335  15.306  23.132  0.00  0.00    +0.000 A 
ATOM     11  C   UNL     1      -0.664  16.385  23.948  0.00  0.00    +0.000 A 
ATOM     12  C   UNL     1      -1.991  16.607  24.333  0.00  0.00    +0.000 A 
ATOM     13  C   UNL     1      -3.015  15.752  23.907  0.00  0.00    +0.000 A 
ATOM     14  C   UNL     1      -4.439  15.942  24.246  0.00  0.00    +0.000 A 
ATOM     15  C   UNL     1      -4.941  17.113  25.038  0.00  0.00    +0.000 C 
ATOM     16  C   UNL     1      -5.335  15.041  23.815  0.00  0.00    +0.000 A 
ATOM     17  C   UNL     1      -4.983  13.870  23.012  0.00  0.00    +0.000 A 
ATOM     18  O   UNL     1      -5.821  13.057  22.648  0.00  0.00    +0.000 OA
ATOM     19  O   UNL     1      -3.650  13.757  22.677  0.00  0.00    +0.000 OA
ATOM     20  C   UNL     1      -2.649  14.658  23.103  0.00  0.00    +0.000 A 
BRANCH  10  21
ATOM     21  O   UNL     1       0.988  15.207  22.794  0.00  0.00    +0.000 OA
ATOM     22  H   UNL     1       1.104  14.408  22.235  0.00  0.00    +0.000 HD
ENDBRANCH  10  21
ENDBRANCH   6   9
BRANCH   8  23
ATOM     23  C   UNL     1      -1.413  11.339  19.000  0.00  0.00    +0.000 A 
ATOM     24  C   UNL     1      -0.993  10.384  18.060  0.00  0.00    +0.000 A 
ATOM     25  C   UNL     1      -1.884   9.864  17.119  0.00  0.00    +0.000 A 
ATOM     26  C   UNL     1      -3.210  10.295  17.095  0.00  0.00    +0.000 A 
ATOM     27  C   UNL     1      -3.639  11.246  18.028  0.00  0.00    +0.000 A 
ATOM     28  C   UNL     1      -2.753  11.761  18.983  0.00  0.00    +0.000 A 
BRANCH  27  29
ATOM     29  N   UNL     1      -5.025  11.729  17.994  0.00  0.00    +0.000 N 
ATOM     30  O   UNL     1      -5.492  12.066  16.897  0.00  0.00    +0.000 OA
ATOM     31  O   UNL     1      -5.645  11.785  19.066  0.00  0.00    +0.000 OA
ENDBRANCH  27  29
ENDBRANCH   8  23
TORSDOF 4
ENDMDL
MODEL 9
REMARK VINA RESULT:      -6.7      2.976      6.686
REMARK  Name = 
REMARK  6 active torsions:
REMARK  status: ('A' for Active; 'I' for Inactive)
REMARK    1  A    between atoms: C_1  and  C_2
REMARK    2  A    between atoms: C_6  and  C_7
REMARK    3  A    between atoms: C_8  and  O_9
REMARK    4  A    between atoms: C_13  and  C_14
REMARK    5  A    between atoms: C_21  and  C_22
REMARK    6  A    between atoms: C_26  and  N_27
REMARK                            x       y       z     vdW  Elec       q    Type
REMARK                         _______ _______ _______ _____ _____    ______ ____
ROOT
ATOM      1  C   UNL     1      -7.639  12.399  20.327  0.00  0.00    +0.000 C 
ATOM      2  C   UNL     1      -6.686  13.464  20.809  0.00  0.00    +0.000 C 
ATOM      3  O   UNL     1      -7.086  14.455  21.420  0.00  0.00    +0.000 OA
ATOM      4  N   UNL     1      -5.352  13.232  20.526  0.00  0.00    +0.000 N 
ATOM      5  N   UNL     1      -4.931  12.221  19.700  0.00  0.00    +0.000 NA
ATOM      6  C   UNL     1      -3.659  12.406  19.487  0.00  0.00    +0.000 C 
ATOM      7  C   UNL     1      -3.077  13.620  20.167  0.00  0.00    +0.000 C 
ATOM      8  C   UNL     1      -4.291  14.158  20.907  0.00  0.00    +0.000 C 
ENDROOT
BRANCH   6   9
ATOM      9  C   UNL     1      -2.854  11.495  18.620  0.00  0.00    +0.000 A 
ATOM     10  C   UNL     1      -3.367  11.075  17.385  0.00  0.00    +0.000 A 
ATOM     11  C   UNL     1      -2.638  10.215  16.568  0.00  0.00    +0.000 A 
ATOM     12  C   UNL     1      -1.369   9.772  16.955  0.00  0.00    +0.000 A 
ATOM     13  C   UNL     1      -0.804  10.183  18.169  0.00  0.00    +0.000 A 
ATOM     14  C   UNL     1       0.541   9.783  18.627  0.00  0.00    +0.000 A 
ATOM     15  C   UNL     1       1.467   8.938  17.803  0.00  0.00    +0.000 C 
ATOM     16  C   UNL     1       0.971  10.206  19.826  0.00  0.00    +0.000 A 
ATOM     17  C   UNL     1       0.181  11.056  20.715  0.00  0.00    +0.000 A 
ATOM     18  O   UNL     1       0.594  11.411  21.810  0.00  0.00    +0.000 OA
ATOM     19  O   UNL     1      -1.049  11.446  20.228  0.00  0.00    +0.000 OA
ATOM     20  C   UNL     1      -1.574  11.033  18.983  0.00  0.00    +0.000 A 
BRANCH  10  21
ATOM     21  O   UNL     1      -4.582  11.468  16.889  0.00  0.00    +0.000 OA
ATOM     22  H   UNL     1      -4.815  10.877  16.142  0.00  0.00    +0.000 HD
ENDBRANCH  10  21
ENDBRANCH   6   9
BRANCH   8  23
ATOM     23  C   UNL     1      -4.044  14.210  22.406  0.00  0.00    +0.000 A 
ATOM     24  C   UNL     1      -3.938  13.017  23.139  0.00  0.00    +0.000 A 
ATOM     25  C   UNL     1      -3.759  13.040  24.524  0.00  0.00    +0.000 A 
ATOM     26  C   UNL     1      -3.691  14.256  25.203  0.00  0.00    +0.000 A 
ATOM     27  C   UNL     1      -3.794  15.451  24.482  0.00  0.00    +0.000 A 
ATOM     28  C   UNL     1      -3.961  15.434  23.091  0.00  0.00    +0.000 A 
BRANCH  27  29
ATOM     29  N   UNL     1      -3.754  16.736  25.190  0.00  0.00    +0.000 N 
ATOM     30  O   UNL     1      -2.650  17.151  25.571  0.00  0.00    +0.000 OA
ATOM     31  O   UNL     1      -4.827  17.327  25.378  0.00  0.00    +0.000 OA
ENDBRANCH  27  29
ENDBRANCH   8  23
TORSDOF 4
ENDMDL
