MODEL 1
REMARK VINA RESULT:      -7.9      0.000      0.000
REMARK  Name = 
REMARK  4 active torsions:
REMARK  status: ('A' for Active; 'I' for Inactive)
REMARK    1  A    between atoms: C_1  and  N_2
REMARK    2  A    between atoms: C_4  and  C_5
REMARK    3  A    between atoms: N_13  and  C_14
REMARK    4  A    between atoms: C_17  and  N_18
REMARK                            x       y       z     vdW  Elec       q    Type
REMARK                         _______ _______ _______ _____ _____    ______ ____
ROOT
ATOM      1  C   UNL     1      -1.445   9.892  16.924  0.00  0.00    +0.000 C 
ATOM      2  N   UNL     1      -2.475  10.611  17.641  0.00  0.00    +0.000 N 
ATOM      3  N   UNL     1      -3.691  10.778  17.068  0.00  0.00    +0.000 NA
ATOM      4  C   UNL     1      -4.394  11.508  17.966  0.00  0.00    +0.000 A 
ATOM      5  C   UNL     1      -3.592  11.822  19.090  0.00  0.00    +0.000 A 
ATOM      6  C   UNL     1      -2.376  11.216  18.858  0.00  0.00    +0.000 A 
ATOM      7  C   UNL     1      -1.274  11.282  19.791  0.00  0.00    +0.000 A 
ATOM      8  N   UNL     1      -0.263  10.428  19.612  0.00  0.00    +0.000 NA
ATOM      9  C   UNL     1       0.726  10.481  20.513  0.00  0.00    +0.000 A 
ATOM     10  N   UNL     1       1.811   9.618  20.377  0.00  0.00    +0.000 N 
ATOM     11  N   UNL     1       0.760  11.344  21.545  0.00  0.00    +0.000 NA
ATOM     12  C   UNL     1      -0.293  12.174  21.691  0.00  0.00    +0.000 A 
ATOM     13  C   UNL     1      -1.368  12.181  20.840  0.00  0.00    +0.000 A 
ATOM     14  C   UNL     1      -2.532  13.138  20.942  0.00  0.00    +0.000 C 
ATOM     15  C   UNL     1      -3.854  12.579  20.348  0.00  0.00    +0.000 C 
ATOM     16  H   UNL     1       2.461   9.792  21.132  0.00  0.00    +0.000 HD
ENDROOT
BRANCH  10  17
ATOM     17  C   UNL     1       1.783   8.280  19.953  0.00  0.00    +0.000 A 
ATOM     18  C   UNL     1       2.145   7.987  18.642  0.00  0.00    +0.000 A 
ATOM     19  C   UNL     1       2.159   6.664  18.182  0.00  0.00    +0.000 A 
ATOM     20  C   UNL     1       1.849   5.578  19.016  0.00  0.00    +0.000 A 
ATOM     21  C   UNL     1       1.461   5.889  20.323  0.00  0.00    +0.000 A 
ATOM     22  C   UNL     1       1.428   7.215  20.785  0.00  0.00    +0.000 A 
BRANCH  20  23
ATOM     23  N   UNL     1       1.962   4.281  18.567  0.00  0.00    +0.000 N 
ATOM     24  C   UNL     1       2.991   3.906  17.585  0.00  0.00    +0.000 C 
ATOM     25  C   UNL     1       3.833   2.732  18.131  0.00  0.00    +0.000 C 
ATOM     26  N   UNL     1       3.022   1.559  18.509  0.00  0.00    +0.000 NA
ATOM     27  C   UNL     1       2.002   1.975  19.493  0.00  0.00    +0.000 C 
ATOM     28  C   UNL     1       1.125   3.165  19.032  0.00  0.00    +0.000 C 
ATOM     29  H   UNL     1       3.631   0.862  18.936  0.00  0.00    +0.000 HD
ENDBRANCH  20  23
ENDBRANCH  10  17
BRANCH   4  30
ATOM     30  C   UNL     1      -5.797  11.879  17.732  0.00  0.00    +0.000 C 
ATOM     31  N   UNL     1      -5.963  13.097  17.135  0.00  0.00    +0.000 N 
ATOM     32  O   UNL     1      -6.755  11.175  18.037  0.00  0.00    +0.000 OA
ATOM     33  H   UNL     1      -5.135  13.635  16.904  0.00  0.00    +0.000 HD
ATOM     34  H   UNL     1      -6.888  13.435  16.929  0.00  0.00    +0.000 HD
ENDBRANCH   4  30
TORSDOF 3
ENDMDL
MODEL 2
REMARK VINA RESULT:      -7.9      1.083      1.437
REMARK  Name = 
REMARK  4 active torsions:
REMARK  status: ('A' for Active; 'I' for Inactive)
REMARK    1  A    between atoms: C_1  and  N_2
REMARK    2  A    between atoms: C_4  and  C_5
REMARK    3  A    between atoms: N_13  and  C_14
REMARK    4  A    between atoms: C_17  and  N_18
REMARK                            x       y       z     vdW  Elec       q    Type
REMARK                         _______ _______ _______ _____ _____    ______ ____
ROOT
ATOM      1  C   UNL     1      -2.070   9.712  16.942  0.00  0.00    +0.000 C 
ATOM      2  N   UNL     1      -3.080  10.448  17.671  0.00  0.00    +0.000 N 
ATOM      3  N   UNL     1      -4.375  10.366  17.280  0.00  0.00    +0.000 NA
ATOM      4  C   UNL     1      -5.040  11.183  18.129  0.00  0.00    +0.000 A 
ATOM      5  C   UNL     1      -4.142  11.800  19.033  0.00  0.00    +0.000 A 
ATOM      6  C   UNL     1      -2.898  11.292  18.724  0.00  0.00    +0.000 A 
ATOM      7  C   UNL     1      -1.699  11.661  19.441  0.00  0.00    +0.000 A 
ATOM      8  N   UNL     1      -0.615  10.901  19.261  0.00  0.00    +0.000 NA
ATOM      9  C   UNL     1       0.472  11.239  19.967  0.00  0.00    +0.000 A 
ATOM     10  N   UNL     1       1.635  10.486  19.819  0.00  0.00    +0.000 N 
ATOM     11  N   UNL     1       0.529  12.291  20.803  0.00  0.00    +0.000 NA
ATOM     12  C   UNL     1      -0.596  13.017  20.962  0.00  0.00    +0.000 A 
ATOM     13  C   UNL     1      -1.768  12.738  20.307  0.00  0.00    +0.000 A 
ATOM     14  C   UNL     1      -3.026  13.567  20.419  0.00  0.00    +0.000 C 
ATOM     15  C   UNL     1      -4.329  12.763  20.157  0.00  0.00    +0.000 C 
ATOM     16  H   UNL     1       2.352  10.877  20.415  0.00  0.00    +0.000 HD
ENDROOT
BRANCH  10  17
ATOM     17  C   UNL     1       1.730   9.095  19.657  0.00  0.00    +0.000 A 
ATOM     18  C   UNL     1       2.132   8.591  18.424  0.00  0.00    +0.000 A 
ATOM     19  C   UNL     1       2.268   7.213  18.225  0.00  0.00    +0.000 A 
ATOM     20  C   UNL     1       2.045   6.281  19.251  0.00  0.00    +0.000 A 
ATOM     21  C   UNL     1       1.616   6.800  20.477  0.00  0.00    +0.000 A 
ATOM     22  C   UNL     1       1.460   8.181  20.678  0.00  0.00    +0.000 A 
BRANCH  20  23
ATOM     23  N   UNL     1       2.278   4.938  19.057  0.00  0.00    +0.000 N 
ATOM     24  C   UNL     1       1.530   3.922  19.814  0.00  0.00    +0.000 C 
ATOM     25  C   UNL     1       0.865   2.926  18.839  0.00  0.00    +0.000 C 
ATOM     26  N   UNL     1       1.821   2.287  17.916  0.00  0.00    +0.000 NA
ATOM     27  C   UNL     1       2.551   3.337  17.175  0.00  0.00    +0.000 C 
ATOM     28  C   UNL     1       3.232   4.393  18.080  0.00  0.00    +0.000 C 
ATOM     29  H   UNL     1       1.304   1.712  17.252  0.00  0.00    +0.000 HD
ENDBRANCH  20  23
ENDBRANCH  10  17
BRANCH   4  30
ATOM     30  C   UNL     1      -6.499  11.348  18.060  0.00  0.00    +0.000 C 
ATOM     31  N   UNL     1      -7.204  10.377  18.713  0.00  0.00    +0.000 N 
ATOM     32  O   UNL     1      -7.062  12.267  17.473  0.00  0.00    +0.000 OA
ATOM     33  H   UNL     1      -6.687   9.641  19.182  0.00  0.00    +0.000 HD
ATOM     34  H   UNL     1      -8.210  10.407  18.727  0.00  0.00    +0.000 HD
ENDBRANCH   4  30
TORSDOF 3
ENDMDL
MODEL 3
REMARK VINA RESULT:      -7.8      0.918      1.006
REMARK  Name = 
REMARK  4 active torsions:
REMARK  status: ('A' for Active; 'I' for Inactive)
REMARK    1  A    between atoms: C_1  and  N_2
REMARK    2  A    between atoms: C_4  and  C_5
REMARK    3  A    between atoms: N_13  and  C_14
REMARK    4  A    between atoms: C_17  and  N_18
REMARK                            x       y       z     vdW  Elec       q    Type
REMARK                         _______ _______ _______ _____ _____    ______ ____
ROOT
ATOM      1  C   UNL     1      -1.930   9.859  16.825  0.00  0.00    +0.000 C 
ATOM      2  N   UNL     1      -2.964  10.548  17.566  0.00  0.00    +0.000 N 
ATOM      3  N   UNL     1      -4.247  10.485  17.134  0.00  0.00    +0.000 NA
ATOM      4  C   UNL     1      -4.939  11.249  18.010  0.00  0.00    +0.000 A 
ATOM      5  C   UNL     1      -4.071  11.815  18.973  0.00  0.00    +0.000 A 
ATOM      6  C   UNL     1      -2.816  11.331  18.671  0.00  0.00    +0.000 A 
ATOM      7  C   UNL     1      -1.639  11.661  19.441  0.00  0.00    +0.000 A 
ATOM      8  N   UNL     1      -0.547  10.916  19.249  0.00  0.00    +0.000 NA
ATOM      9  C   UNL     1       0.518  11.216  20.003  0.00  0.00    +0.000 A 
ATOM     10  N   UNL     1       1.688  10.477  19.845  0.00  0.00    +0.000 N 
ATOM     11  N   UNL     1       0.547  12.218  20.901  0.00  0.00    +0.000 NA
ATOM     12  C   UNL     1      -0.586  12.930  21.070  0.00  0.00    +0.000 A 
ATOM     13  C   UNL     1      -1.738  12.686  20.367  0.00  0.00    +0.000 A 
ATOM     14  C   UNL     1      -3.003  13.502  20.490  0.00  0.00    +0.000 C 
ATOM     15  C   UNL     1      -4.294  12.711  20.145  0.00  0.00    +0.000 C 
ATOM     16  H   UNL     1       2.387  10.835  20.483  0.00  0.00    +0.000 HD
ENDROOT
BRANCH  10  17
ATOM     17  C   UNL     1       1.795   9.098  19.606  0.00  0.00    +0.000 A 
ATOM     18  C   UNL     1       2.198   8.668  18.345  0.00  0.00    +0.000 A 
ATOM     19  C   UNL     1       2.345   7.303  18.069  0.00  0.00    +0.000 A 
ATOM     20  C   UNL     1       2.133   6.314  19.042  0.00  0.00    +0.000 A 
ATOM     21  C   UNL     1       1.703   6.760  20.296  0.00  0.00    +0.000 A 
ATOM     22  C   UNL     1       1.536   8.126  20.575  0.00  0.00    +0.000 A 
BRANCH  20  23
ATOM     23  N   UNL     1       2.377   4.986  18.773  0.00  0.00    +0.000 N 
ATOM     24  C   UNL     1       3.490   4.273  19.418  0.00  0.00    +0.000 C 
ATOM     25  C   UNL     1       2.962   3.001  20.117  0.00  0.00    +0.000 C 
ATOM     26  N   UNL     1       2.225   2.102  19.211  0.00  0.00    +0.000 NA
ATOM     27  C   UNL     1       1.117   2.851  18.583  0.00  0.00    +0.000 C 
ATOM     28  C   UNL     1       1.558   4.156  17.876  0.00  0.00    +0.000 C 
ATOM     29  H   UNL     1       1.837   1.332  19.756  0.00  0.00    +0.000 HD
ENDBRANCH  20  23
ENDBRANCH  10  17
BRANCH   4  30
ATOM     30  C   UNL     1      -6.397  11.412  17.909  0.00  0.00    +0.000 C 
ATOM     31  N   UNL     1      -6.793  12.363  17.011  0.00  0.00    +0.000 N 
ATOM     32  O   UNL     1      -7.210  10.766  18.563  0.00  0.00    +0.000 OA
ATOM     33  H   UNL     1      -6.078  12.866  16.497  0.00  0.00    +0.000 HD
ATOM     34  H   UNL     1      -7.772  12.543  16.867  0.00  0.00    +0.000 HD
ENDBRANCH   4  30
TORSDOF 3
ENDMDL
MODEL 4
REMARK VINA RESULT:      -7.8      1.374      1.485
REMARK  Name = 
REMARK  4 active torsions:
REMARK  status: ('A' for Active; 'I' for Inactive)
REMARK    1  A    between atoms: C_1  and  N_2
REMARK    2  A    between atoms: C_4  and  C_5
REMARK    3  A    between atoms: N_13  and  C_14
REMARK    4  A    between atoms: C_17  and  N_18
REMARK                            x       y       z     vdW  Elec       q    Type
REMARK                         _______ _______ _______ _____ _____    ______ ____
ROOT
ATOM      1  C   UNL     1      -2.204  10.208  16.795  0.00  0.00    +0.000 C 
ATOM      2  N   UNL     1      -3.245  10.799  17.607  0.00  0.00    +0.000 N 
ATOM      3  N   UNL     1      -4.542  10.637  17.248  0.00  0.00    +0.000 NA
ATOM      4  C   UNL     1      -5.242  11.329  18.176  0.00  0.00    +0.000 A 
ATOM      5  C   UNL     1      -4.367  11.952  19.099  0.00  0.00    +0.000 A 
ATOM      6  C   UNL     1      -3.097  11.575  18.716  0.00  0.00    +0.000 A 
ATOM      7  C   UNL     1      -1.908  11.991  19.425  0.00  0.00    +0.000 A 
ATOM      8  N   UNL     1      -0.772  11.341  19.156  0.00  0.00    +0.000 NA
ATOM      9  C   UNL     1       0.307  11.716  19.855  0.00  0.00    +0.000 A 
ATOM     10  N   UNL     1       1.522  11.078  19.616  0.00  0.00    +0.000 N 
ATOM     11  N   UNL     1       0.307  12.705  20.768  0.00  0.00    +0.000 NA
ATOM     12  C   UNL     1      -0.869  13.319  21.014  0.00  0.00    +0.000 A 
ATOM     13  C   UNL     1      -2.036  12.991  20.373  0.00  0.00    +0.000 A 
ATOM     14  C   UNL     1      -3.353  13.699  20.584  0.00  0.00    +0.000 C 
ATOM     15  C   UNL     1      -4.594  12.809  20.298  0.00  0.00    +0.000 C 
ATOM     16  H   UNL     1       2.225  11.483  20.220  0.00  0.00    +0.000 HD
ENDROOT
BRANCH  10  17
ATOM     17  C   UNL     1       1.726   9.716  19.345  0.00  0.00    +0.000 A 
ATOM     18  C   UNL     1       2.097   9.339  18.058  0.00  0.00    +0.000 A 
ATOM     19  C   UNL     1       2.338   7.995  17.749  0.00  0.00    +0.000 A 
ATOM     20  C   UNL     1       2.256   6.977  18.712  0.00  0.00    +0.000 A 
ATOM     21  C   UNL     1       1.856   7.367  19.994  0.00  0.00    +0.000 A 
ATOM     22  C   UNL     1       1.595   8.711  20.307  0.00  0.00    +0.000 A 
BRANCH  20  23
ATOM     23  N   UNL     1       2.591   5.677  18.405  0.00  0.00    +0.000 N 
ATOM     24  C   UNL     1       3.718   5.376  17.510  0.00  0.00    +0.000 C 
ATOM     25  C   UNL     1       4.698   4.407  18.208  0.00  0.00    +0.000 C 
ATOM     26  N   UNL     1       4.056   3.164  18.672  0.00  0.00    +0.000 NA
ATOM     27  C   UNL     1       2.931   3.506  19.568  0.00  0.00    +0.000 C 
ATOM     28  C   UNL     1       1.910   4.493  18.951  0.00  0.00    +0.000 C 
ATOM     29  H   UNL     1       4.739   2.616  19.194  0.00  0.00    +0.000 HD
ENDBRANCH  20  23
ENDBRANCH  10  17
BRANCH   4  30
ATOM     30  C   UNL     1      -6.711  11.374  18.161  0.00  0.00    +0.000 C 
ATOM     31  N   UNL     1      -7.310  10.327  18.802  0.00  0.00    +0.000 N 
ATOM     32  O   UNL     1      -7.368  12.263  17.627  0.00  0.00    +0.000 OA
ATOM     33  H   UNL     1      -6.718   9.621  19.227  0.00  0.00    +0.000 HD
ATOM     34  H   UNL     1      -8.314  10.273  18.851  0.00  0.00    +0.000 HD
ENDBRANCH   4  30
TORSDOF 3
ENDMDL
MODEL 5
REMARK VINA RESULT:      -7.7      0.706      1.119
REMARK  Name = 
REMARK  4 active torsions:
REMARK  status: ('A' for Active; 'I' for Inactive)
REMARK    1  A    between atoms: C_1  and  N_2
REMARK    2  A    between atoms: C_4  and  C_5
REMARK    3  A    between atoms: N_13  and  C_14
REMARK    4  A    between atoms: C_17  and  N_18
REMARK                            x       y       z     vdW  Elec       q    Type
REMARK                         _______ _______ _______ _____ _____    ______ ____
ROOT
ATOM      1  C   UNL     1      -1.565   9.877  16.870  0.00  0.00    +0.000 C 
ATOM      2  N   UNL     1      -2.610  10.581  17.580  0.00  0.00    +0.000 N 
ATOM      3  N   UNL     1      -3.846  10.669  17.030  0.00  0.00    +0.000 NA
ATOM      4  C   UNL     1      -4.560  11.407  17.911  0.00  0.00    +0.000 A 
ATOM      5  C   UNL     1      -3.749  11.806  19.000  0.00  0.00    +0.000 A 
ATOM      6  C   UNL     1      -2.512  11.244  18.766  0.00  0.00    +0.000 A 
ATOM      7  C   UNL     1      -1.394  11.400  19.668  0.00  0.00    +0.000 A 
ATOM      8  N   UNL     1      -0.349  10.584  19.502  0.00  0.00    +0.000 NA
ATOM      9  C   UNL     1       0.656  10.720  20.376  0.00  0.00    +0.000 A 
ATOM     10  N   UNL     1       1.776   9.901  20.252  0.00  0.00    +0.000 N 
ATOM     11  N   UNL     1       0.675  11.630  21.368  0.00  0.00    +0.000 NA
ATOM     12  C   UNL     1      -0.411  12.419  21.503  0.00  0.00    +0.000 A 
ATOM     13  C   UNL     1      -1.504  12.340  20.678  0.00  0.00    +0.000 A 
ATOM     14  C   UNL     1      -2.708  13.248  20.767  0.00  0.00    +0.000 C 
ATOM     15  C   UNL     1      -4.016  12.606  20.230  0.00  0.00    +0.000 C 
ATOM     16  H   UNL     1       2.434  10.137  20.982  0.00  0.00    +0.000 HD
ENDROOT
BRANCH  10  17
ATOM     17  C   UNL     1       1.798   8.545  19.887  0.00  0.00    +0.000 A 
ATOM     18  C   UNL     1       1.454   7.591  20.840  0.00  0.00    +0.000 A 
ATOM     19  C   UNL     1       1.436   6.230  20.514  0.00  0.00    +0.000 A 
ATOM     20  C   UNL     1       1.723   5.765  19.221  0.00  0.00    +0.000 A 
ATOM     21  C   UNL     1       2.093   6.732  18.281  0.00  0.00    +0.000 A 
ATOM     22  C   UNL     1       2.131   8.098  18.606  0.00  0.00    +0.000 A 
BRANCH  20  23
ATOM     23  N   UNL     1       1.605   4.430  18.901  0.00  0.00    +0.000 N 
ATOM     24  C   UNL     1       2.078   3.916  17.607  0.00  0.00    +0.000 C 
ATOM     25  C   UNL     1       3.060   2.745  17.836  0.00  0.00    +0.000 C 
ATOM     26  N   UNL     1       2.489   1.657  18.651  0.00  0.00    +0.000 NA
ATOM     27  C   UNL     1       2.025   2.211  19.940  0.00  0.00    +0.000 C 
ATOM     28  C   UNL     1       1.051   3.407  19.800  0.00  0.00    +0.000 C 
ATOM     29  H   UNL     1       3.215   0.965  18.830  0.00  0.00    +0.000 HD
ENDBRANCH  20  23
ENDBRANCH  10  17
BRANCH   4  30
ATOM     30  C   UNL     1      -5.984  11.704  17.696  0.00  0.00    +0.000 C 
ATOM     31  N   UNL     1      -6.837  10.863  18.352  0.00  0.00    +0.000 N 
ATOM     32  O   UNL     1      -6.397  12.622  16.993  0.00  0.00    +0.000 OA
ATOM     33  H   UNL     1      -6.440  10.123  18.920  0.00  0.00    +0.000 HD
ATOM     34  H   UNL     1      -7.832  10.991  18.271  0.00  0.00    +0.000 HD
ENDBRANCH   4  30
TORSDOF 3
ENDMDL
MODEL 6
REMARK VINA RESULT:      -7.6      1.607      2.179
REMARK  Name = 
REMARK  4 active torsions:
REMARK  status: ('A' for Active; 'I' for Inactive)
REMARK    1  A    between atoms: C_1  and  N_2
REMARK    2  A    between atoms: C_4  and  C_5
REMARK    3  A    between atoms: N_13  and  C_14
REMARK    4  A    between atoms: C_17  and  N_18
REMARK                            x       y       z     vdW  Elec       q    Type
REMARK                         _______ _______ _______ _____ _____    ______ ____
ROOT
ATOM      1  C   UNL     1      -2.822  10.323  17.484  0.00  0.00    +0.000 C 
ATOM      2  N   UNL     1      -3.770  11.046  18.303  0.00  0.00    +0.000 N 
ATOM      3  N   UNL     1      -5.097  10.831  18.132  0.00  0.00    +0.000 NA
ATOM      4  C   UNL     1      -5.694  11.672  19.008  0.00  0.00    +0.000 A 
ATOM      5  C   UNL     1      -4.728  12.437  19.704  0.00  0.00    +0.000 A 
ATOM      6  C   UNL     1      -3.505  11.997  19.242  0.00  0.00    +0.000 A 
ATOM      7  C   UNL     1      -2.248  12.520  19.725  0.00  0.00    +0.000 A 
ATOM      8  N   UNL     1      -1.141  11.830  19.437  0.00  0.00    +0.000 NA
ATOM      9  C   UNL     1       0.006  12.313  19.930  0.00  0.00    +0.000 A 
ATOM     10  N   UNL     1       1.195  11.639  19.660  0.00  0.00    +0.000 N 
ATOM     11  N   UNL     1       0.098  13.441  20.659  0.00  0.00    +0.000 NA
ATOM     12  C   UNL     1      -1.051  14.092  20.936  0.00  0.00    +0.000 A 
ATOM     13  C   UNL     1      -2.280  13.666  20.502  0.00  0.00    +0.000 A 
ATOM     14  C   UNL     1      -3.574  14.404  20.746  0.00  0.00    +0.000 C 
ATOM     15  C   UNL     1      -4.826  13.484  20.761  0.00  0.00    +0.000 C 
ATOM     16  H   UNL     1       1.957  12.137  20.100  0.00  0.00    +0.000 HD
ENDROOT
BRANCH  10  17
ATOM     17  C   UNL     1       1.388  10.250  19.598  0.00  0.00    +0.000 A 
ATOM     18  C   UNL     1       1.820   9.688  18.400  0.00  0.00    +0.000 A 
ATOM     19  C   UNL     1       2.052   8.311  18.300  0.00  0.00    +0.000 A 
ATOM     20  C   UNL     1       1.899   7.443  19.393  0.00  0.00    +0.000 A 
ATOM     21  C   UNL     1       1.439   8.018  20.581  0.00  0.00    +0.000 A 
ATOM     22  C   UNL     1       1.187   9.395  20.684  0.00  0.00    +0.000 A 
BRANCH  20  23
ATOM     23  N   UNL     1       2.225   6.109  19.294  0.00  0.00    +0.000 N 
ATOM     24  C   UNL     1       2.110   5.212  20.454  0.00  0.00    +0.000 C 
ATOM     25  C   UNL     1       1.231   3.995  20.091  0.00  0.00    +0.000 C 
ATOM     26  N   UNL     1       1.716   3.258  18.910  0.00  0.00    +0.000 NA
ATOM     27  C   UNL     1       1.818   4.189  17.768  0.00  0.00    +0.000 C 
ATOM     28  C   UNL     1       2.668   5.451  18.055  0.00  0.00    +0.000 C 
ATOM     29  H   UNL     1       1.045   2.526  18.681  0.00  0.00    +0.000 HD
ENDBRANCH  20  23
ENDBRANCH  10  17
BRANCH   4  30
ATOM     30  C   UNL     1      -7.156  11.720  19.160  0.00  0.00    +0.000 C 
ATOM     31  N   UNL     1      -7.694  10.612  19.751  0.00  0.00    +0.000 N 
ATOM     32  O   UNL     1      -7.856  12.660  18.796  0.00  0.00    +0.000 OA
ATOM     33  H   UNL     1      -7.068   9.866  20.033  0.00  0.00    +0.000 HD
ATOM     34  H   UNL     1      -8.687  10.554  19.904  0.00  0.00    +0.000 HD
ENDBRANCH   4  30
TORSDOF 3
ENDMDL
MODEL 7
REMARK VINA RESULT:      -7.6      1.476      2.085
REMARK  Name = 
REMARK  4 active torsions:
REMARK  status: ('A' for Active; 'I' for Inactive)
REMARK    1  A    between atoms: C_1  and  N_2
REMARK    2  A    between atoms: C_4  and  C_5
REMARK    3  A    between atoms: N_13  and  C_14
REMARK    4  A    between atoms: C_17  and  N_18
REMARK                            x       y       z     vdW  Elec       q    Type
REMARK                         _______ _______ _______ _____ _____    ______ ____
ROOT
ATOM      1  C   UNL     1      -2.304  10.056  16.990  0.00  0.00    +0.000 C 
ATOM      2  N   UNL     1      -3.343  10.698  17.766  0.00  0.00    +0.000 N 
ATOM      3  N   UNL     1      -4.642  10.451  17.471  0.00  0.00    +0.000 NA
ATOM      4  C   UNL     1      -5.341  11.219  18.339  0.00  0.00    +0.000 A 
ATOM      5  C   UNL     1      -4.463  11.972  19.156  0.00  0.00    +0.000 A 
ATOM      6  C   UNL     1      -3.192  11.600  18.775  0.00  0.00    +0.000 A 
ATOM      7  C   UNL     1      -1.999  12.134  19.392  0.00  0.00    +0.000 A 
ATOM      8  N   UNL     1      -0.847  11.498  19.159  0.00  0.00    +0.000 NA
ATOM      9  C   UNL     1       0.237  11.987  19.774  0.00  0.00    +0.000 A 
ATOM     10  N   UNL     1       1.468  11.369  19.568  0.00  0.00    +0.000 N 
ATOM     11  N   UNL     1       0.226  13.072  20.571  0.00  0.00    +0.000 NA
ATOM     12  C   UNL     1      -0.965  13.668  20.786  0.00  0.00    +0.000 A 
ATOM     13  C   UNL     1      -2.137  13.230  20.227  0.00  0.00    +0.000 A 
ATOM     14  C   UNL     1      -3.474  13.911  20.401  0.00  0.00    +0.000 C 
ATOM     15  C   UNL     1      -4.687  12.951  20.259  0.00  0.00    +0.000 C 
ATOM     16  H   UNL     1       2.173  11.864  20.098  0.00  0.00    +0.000 HD
ENDROOT
BRANCH  10  17
ATOM     17  C   UNL     1       1.716   9.993  19.444  0.00  0.00    +0.000 A 
ATOM     18  C   UNL     1       1.547   9.180  20.561  0.00  0.00    +0.000 A 
ATOM     19  C   UNL     1       1.756   7.799  20.478  0.00  0.00    +0.000 A 
ATOM     20  C   UNL     1       2.106   7.164  19.275  0.00  0.00    +0.000 A 
ATOM     21  C   UNL     1       2.298   7.996  18.168  0.00  0.00    +0.000 A 
ATOM     22  C   UNL     1       2.107   9.385  18.248  0.00  0.00    +0.000 A 
BRANCH  20  23
ATOM     23  N   UNL     1       2.212   5.793  19.198  0.00  0.00    +0.000 N 
ATOM     24  C   UNL     1       1.984   4.948  20.380  0.00  0.00    +0.000 C 
ATOM     25  C   UNL     1       0.913   3.881  20.062  0.00  0.00    +0.000 C 
ATOM     26  N   UNL     1       1.245   3.054  18.887  0.00  0.00    +0.000 NA
ATOM     27  C   UNL     1       1.467   3.937  17.722  0.00  0.00    +0.000 C 
ATOM     28  C   UNL     1       2.514   5.052  17.964  0.00  0.00    +0.000 C 
ATOM     29  H   UNL     1       0.460   2.435  18.688  0.00  0.00    +0.000 HD
ENDBRANCH  20  23
ENDBRANCH  10  17
BRANCH   4  30
ATOM     30  C   UNL     1      -6.810  11.211  18.369  0.00  0.00    +0.000 C 
ATOM     31  N   UNL     1      -7.353  10.083  18.916  0.00  0.00    +0.000 N 
ATOM     32  O   UNL     1      -7.513  12.124  17.947  0.00  0.00    +0.000 OA
ATOM     33  H   UNL     1      -6.724   9.360  19.250  0.00  0.00    +0.000 HD
ATOM     34  H   UNL     1      -8.352   9.987  18.987  0.00  0.00    +0.000 HD
ENDBRANCH   4  30
TORSDOF 3
ENDMDL
MODEL 8
REMARK VINA RESULT:      -7.3      1.309      1.485
REMARK  Name = 
REMARK  4 active torsions:
REMARK  status: ('A' for Active; 'I' for Inactive)
REMARK    1  A    between atoms: C_1  and  N_2
REMARK    2  A    between atoms: C_4  and  C_5
REMARK    3  A    between atoms: N_13  and  C_14
REMARK    4  A    between atoms: C_17  and  N_18
REMARK                            x       y       z     vdW  Elec       q    Type
REMARK                         _______ _______ _______ _____ _____    ______ ____
ROOT
ATOM      1  C   UNL     1      -1.988  10.579  17.338  0.00  0.00    +0.000 C 
ATOM      2  N   UNL     1      -3.120  11.171  18.016  0.00  0.00    +0.000 N 
ATOM      3  N   UNL     1      -4.345  11.118  17.438  0.00  0.00    +0.000 NA
ATOM      4  C   UNL     1      -5.156  11.781  18.294  0.00  0.00    +0.000 A 
ATOM      5  C   UNL     1      -4.419  12.276  19.397  0.00  0.00    +0.000 A 
ATOM      6  C   UNL     1      -3.122  11.851  19.197  0.00  0.00    +0.000 A 
ATOM      7  C   UNL     1      -2.050  12.136  20.122  0.00  0.00    +0.000 A 
ATOM      8  N   UNL     1      -0.918  11.438  19.988  0.00  0.00    +0.000 NA
ATOM      9  C   UNL     1       0.046  11.692  20.882  0.00  0.00    +0.000 A 
ATOM     10  N   UNL     1       1.251  10.999  20.792  0.00  0.00    +0.000 N 
ATOM     11  N   UNL     1      -0.059  12.607  21.864  0.00  0.00    +0.000 NA
ATOM     12  C   UNL     1      -1.228  13.273  21.966  0.00  0.00    +0.000 A 
ATOM     13  C   UNL     1      -2.286  13.068  21.118  0.00  0.00    +0.000 A 
ATOM     14  C   UNL     1      -3.583  13.839  21.170  0.00  0.00    +0.000 C 
ATOM     15  C   UNL     1      -4.801  13.053  20.612  0.00  0.00    +0.000 C 
ATOM     16  H   UNL     1       1.861  11.313  21.535  0.00  0.00    +0.000 HD
ENDROOT
BRANCH  10  17
ATOM     17  C   UNL     1       1.430   9.651  20.444  0.00  0.00    +0.000 A 
ATOM     18  C   UNL     1       1.829   9.343  19.147  0.00  0.00    +0.000 A 
ATOM     19  C   UNL     1       2.047   8.015  18.762  0.00  0.00    +0.000 A 
ATOM     20  C   UNL     1       1.912   6.943  19.658  0.00  0.00    +0.000 A 
ATOM     21  C   UNL     1       1.485   7.265  20.950  0.00  0.00    +0.000 A 
ATOM     22  C   UNL     1       1.247   8.593  21.338  0.00  0.00    +0.000 A 
BRANCH  20  23
ATOM     23  N   UNL     1       2.225   5.656  19.281  0.00  0.00    +0.000 N 
ATOM     24  C   UNL     1       2.174   5.246  17.870  0.00  0.00    +0.000 C 
ATOM     25  C   UNL     1       3.527   4.630  17.453  0.00  0.00    +0.000 C 
ATOM     26  N   UNL     1       3.941   3.502  18.307  0.00  0.00    +0.000 NA
ATOM     27  C   UNL     1       3.982   3.951  19.714  0.00  0.00    +0.000 C 
ATOM     28  C   UNL     1       2.666   4.603  20.208  0.00  0.00    +0.000 C 
ATOM     29  H   UNL     1       4.875   3.204  18.028  0.00  0.00    +0.000 HD
ENDBRANCH  20  23
ENDBRANCH  10  17
BRANCH   4  30
ATOM     30  C   UNL     1      -6.598  11.918  18.044  0.00  0.00    +0.000 C 
ATOM     31  N   UNL     1      -6.905  12.494  16.843  0.00  0.00    +0.000 N 
ATOM     32  O   UNL     1      -7.471  11.557  18.828  0.00  0.00    +0.000 OA
ATOM     33  H   UNL     1      -6.143  12.772  16.235  0.00  0.00    +0.000 HD
ATOM     34  H   UNL     1      -7.867  12.625  16.579  0.00  0.00    +0.000 HD
ENDBRANCH   4  30
TORSDOF 3
ENDMDL
MODEL 9
REMARK VINA RESULT:      -7.2      1.530      2.010
REMARK  Name = 
REMARK  4 active torsions:
REMARK  status: ('A' for Active; 'I' for Inactive)
REMARK    1  A    between atoms: C_1  and  N_2
REMARK    2  A    between atoms: C_4  and  C_5
REMARK    3  A    between atoms: N_13  and  C_14
REMARK    4  A    between atoms: C_17  and  N_18
REMARK                            x       y       z     vdW  Elec       q    Type
REMARK                         _______ _______ _______ _____ _____    ______ ____
ROOT
ATOM      1  C   UNL     1      -2.500  10.321  17.115  0.00  0.00    +0.000 C 
ATOM      2  N   UNL     1      -3.524  10.933  17.933  0.00  0.00    +0.000 N 
ATOM      3  N   UNL     1      -4.829  10.692  17.657  0.00  0.00    +0.000 NA
ATOM      4  C   UNL     1      -5.511  11.429  18.564  0.00  0.00    +0.000 A 
ATOM      5  C   UNL     1      -4.619  12.157  19.388  0.00  0.00    +0.000 A 
ATOM      6  C   UNL     1      -3.355  11.801  18.969  0.00  0.00    +0.000 A 
ATOM      7  C   UNL     1      -2.151  12.318  19.578  0.00  0.00    +0.000 A 
ATOM      8  N   UNL     1      -1.003  11.694  19.301  0.00  0.00    +0.000 NA
ATOM      9  C   UNL     1       0.093  12.166  19.910  0.00  0.00    +0.000 A 
ATOM     10  N   UNL     1       1.321  11.559  19.657  0.00  0.00    +0.000 N 
ATOM     11  N   UNL     1       0.095  13.224  20.742  0.00  0.00    +0.000 NA
ATOM     12  C   UNL     1      -1.092  13.809  21.001  0.00  0.00    +0.000 A 
ATOM     13  C   UNL     1      -2.274  13.385  20.452  0.00  0.00    +0.000 A 
ATOM     14  C   UNL     1      -3.609  14.056  20.676  0.00  0.00    +0.000 C 
ATOM     15  C   UNL     1      -4.823  13.098  20.527  0.00  0.00    +0.000 C 
ATOM     16  H   UNL     1       2.035  12.039  20.190  0.00  0.00    +0.000 HD
ENDROOT
BRANCH  10  17
ATOM     17  C   UNL     1       1.570  10.189  19.483  0.00  0.00    +0.000 A 
ATOM     18  C   UNL     1       1.461   9.344  20.584  0.00  0.00    +0.000 A 
ATOM     19  C   UNL     1       1.673   7.967  20.452  0.00  0.00    +0.000 A 
ATOM     20  C   UNL     1       1.966   7.369  19.216  0.00  0.00    +0.000 A 
ATOM     21  C   UNL     1       2.098   8.232  18.124  0.00  0.00    +0.000 A 
ATOM     22  C   UNL     1       1.904   9.617  18.253  0.00  0.00    +0.000 A 
BRANCH  20  23
ATOM     23  N   UNL     1       2.075   6.001  19.095  0.00  0.00    +0.000 N 
ATOM     24  C   UNL     1       2.615   5.390  17.871  0.00  0.00    +0.000 C 
ATOM     25  C   UNL     1       3.786   4.448  18.228  0.00  0.00    +0.000 C 
ATOM     26  N   UNL     1       3.421   3.411  19.210  0.00  0.00    +0.000 NA
ATOM     27  C   UNL     1       2.885   4.062  20.423  0.00  0.00    +0.000 C 
ATOM     28  C   UNL     1       1.717   5.042  20.151  0.00  0.00    +0.000 C 
ATOM     29  H   UNL     1       4.258   2.885  19.459  0.00  0.00    +0.000 HD
ENDBRANCH  20  23
ENDBRANCH  10  17
BRANCH   4  30
ATOM     30  C   UNL     1      -6.980  11.415  18.624  0.00  0.00    +0.000 C 
ATOM     31  N   UNL     1      -7.514  10.213  18.995  0.00  0.00    +0.000 N 
ATOM     32  O   UNL     1      -7.689  12.383  18.369  0.00  0.00    +0.000 OA
ATOM     33  H   UNL     1      -6.880   9.447  19.195  0.00  0.00    +0.000 HD
ATOM     34  H   UNL     1      -8.512  10.106  19.070  0.00  0.00    +0.000 HD
ENDBRANCH   4  30
TORSDOF 3
ENDMDL
