MODEL 1
REMARK VINA RESULT:      -7.6      0.000      0.000
REMARK  Name = 
REMARK  5 active torsions:
REMARK  status: ('A' for Active; 'I' for Inactive)
REMARK    1  A    between atoms: C_2  and  C_14
REMARK    2  A    between atoms: N_3  and  N_4
REMARK    3  A    between atoms: C_5  and  C_6
REMARK    4  A    between atoms: C_7  and  C_8
REMARK    5  A    between atoms: C_17  and  N_18
REMARK                            x       y       z     vdW  Elec       q    Type
REMARK                         _______ _______ _______ _____ _____    ______ ____
ROOT
ATOM      1  O   UNL     1       8.354   7.149  18.818  0.00  0.00    +0.000 OA
ATOM      2  C   UNL     1       8.042   8.027  18.016  0.00  0.00    +0.000 C 
ATOM      3  N   UNL     1       7.246   7.844  16.898  0.00  0.00    +0.000 N 
ATOM      4  H   UNL     1       6.966   8.633  16.334  0.00  0.00    +0.000 HD
ENDROOT
BRANCH   2   5
ATOM      5  C   UNL     1       8.474   9.430  18.271  0.00  0.00    +0.000 A 
ATOM      6  C   UNL     1       8.082  10.496  17.462  0.00  0.00    +0.000 A 
ATOM      7  C   UNL     1       8.534  11.793  17.745  0.00  0.00    +0.000 A 
ATOM      8  C   UNL     1       9.382  12.080  18.829  0.00  0.00    +0.000 A 
ATOM      9  C   UNL     1       9.764  10.988  19.620  0.00  0.00    +0.000 A 
ATOM     10  C   UNL     1       9.325   9.683  19.348  0.00  0.00    +0.000 A 
BRANCH   8  11
ATOM     11  N   UNL     1       9.864  13.361  19.035  0.00  0.00    +0.000 N 
ATOM     12  C   UNL     1       9.234  14.531  18.394  0.00  0.00    +0.000 C 
ATOM     13  C   UNL     1      10.327  15.551  18.039  0.00  0.00    +0.000 C 
ATOM     14  O   UNL     1      11.068  15.949  19.205  0.00  0.00    +0.000 OA
ATOM     15  C   UNL     1      11.690  14.804  19.814  0.00  0.00    +0.000 C 
ATOM     16  C   UNL     1      10.658  13.733  20.220  0.00  0.00    +0.000 C 
ENDBRANCH   8  11
ENDBRANCH   2   5
BRANCH   3  17
ATOM     17  N   UNL     1       6.760   6.606  16.597  0.00  0.00    +0.000 NA
ATOM     18  C   UNL     1       5.493   6.385  16.758  0.00  0.00    +0.000 C 
BRANCH  18  19
ATOM     19  C   UNL     1       4.469   7.285  17.339  0.00  0.00    +0.000 C 
ATOM     20  C   UNL     1       3.432   6.782  18.022  0.00  0.00    +0.000 C 
BRANCH  20  21
ATOM     21  C   UNL     1       2.437   7.702  18.573  0.00  0.00    +0.000 A 
ATOM     22  C   UNL     1       1.919   8.724  17.768  0.00  0.00    +0.000 A 
ATOM     23  C   UNL     1       1.032   9.655  18.305  0.00  0.00    +0.000 A 
ATOM     24  C   UNL     1       0.655   9.571  19.644  0.00  0.00    +0.000 A 
ATOM     25  C   UNL     1       1.163   8.551  20.449  0.00  0.00    +0.000 A 
ATOM     26  C   UNL     1       2.055   7.619  19.917  0.00  0.00    +0.000 A 
ENDBRANCH  20  21
ENDBRANCH  18  19
ENDBRANCH   3  17
TORSDOF 5
ENDMDL
MODEL 2
REMARK VINA RESULT:      -7.5      0.416      1.038
REMARK  Name = 
REMARK  5 active torsions:
REMARK  status: ('A' for Active; 'I' for Inactive)
REMARK    1  A    between atoms: C_2  and  C_14
REMARK    2  A    between atoms: N_3  and  N_4
REMARK    3  A    between atoms: C_5  and  C_6
REMARK    4  A    between atoms: C_7  and  C_8
REMARK    5  A    between atoms: C_17  and  N_18
REMARK                            x       y       z     vdW  Elec       q    Type
REMARK                         _______ _______ _______ _____ _____    ______ ____
ROOT
ATOM      1  O   UNL     1       8.338   7.108  18.785  0.00  0.00    +0.000 OA
ATOM      2  C   UNL     1       8.021   8.002  18.005  0.00  0.00    +0.000 C 
ATOM      3  N   UNL     1       7.209   7.846  16.894  0.00  0.00    +0.000 N 
ATOM      4  H   UNL     1       6.926   8.648  16.349  0.00  0.00    +0.000 HD
ENDROOT
BRANCH   2   5
ATOM      5  C   UNL     1       8.465   9.398  18.281  0.00  0.00    +0.000 A 
ATOM      6  C   UNL     1       8.102  10.476  17.475  0.00  0.00    +0.000 A 
ATOM      7  C   UNL     1       8.564  11.765  17.779  0.00  0.00    +0.000 A 
ATOM      8  C   UNL     1       9.394  12.031  18.882  0.00  0.00    +0.000 A 
ATOM      9  C   UNL     1       9.747  10.927  19.670  0.00  0.00    +0.000 A 
ATOM     10  C   UNL     1       9.297   9.630  19.378  0.00  0.00    +0.000 A 
BRANCH   8  11
ATOM     11  N   UNL     1       9.887  13.304  19.109  0.00  0.00    +0.000 N 
ATOM     12  C   UNL     1      10.875  13.566  20.173  0.00  0.00    +0.000 C 
ATOM     13  C   UNL     1      10.594  14.949  20.781  0.00  0.00    +0.000 C 
ATOM     14  O   UNL     1      10.643  15.980  19.778  0.00  0.00    +0.000 OA
ATOM     15  C   UNL     1       9.667  15.722  18.753  0.00  0.00    +0.000 C 
ATOM     16  C   UNL     1       9.887  14.356  18.076  0.00  0.00    +0.000 C 
ENDBRANCH   8  11
ENDBRANCH   2   5
BRANCH   3  17
ATOM     17  N   UNL     1       6.711   6.618  16.575  0.00  0.00    +0.000 NA
ATOM     18  C   UNL     1       5.441   6.407  16.732  0.00  0.00    +0.000 C 
BRANCH  18  19
ATOM     19  C   UNL     1       4.426   7.309  17.323  0.00  0.00    +0.000 C 
ATOM     20  C   UNL     1       3.396   6.809  18.020  0.00  0.00    +0.000 C 
BRANCH  20  21
ATOM     21  C   UNL     1       2.409   7.730  18.582  0.00  0.00    +0.000 A 
ATOM     22  C   UNL     1       1.891   8.759  17.784  0.00  0.00    +0.000 A 
ATOM     23  C   UNL     1       1.011   9.692  18.330  0.00  0.00    +0.000 A 
ATOM     24  C   UNL     1       0.642   9.603  19.672  0.00  0.00    +0.000 A 
ATOM     25  C   UNL     1       1.150   8.577  20.469  0.00  0.00    +0.000 A 
ATOM     26  C   UNL     1       2.034   7.643  19.927  0.00  0.00    +0.000 A 
ENDBRANCH  20  21
ENDBRANCH  18  19
ENDBRANCH   3  17
TORSDOF 5
ENDMDL
MODEL 3
REMARK VINA RESULT:      -7.4      6.604      9.024
REMARK  Name = 
REMARK  5 active torsions:
REMARK  status: ('A' for Active; 'I' for Inactive)
REMARK    1  A    between atoms: C_2  and  C_14
REMARK    2  A    between atoms: N_3  and  N_4
REMARK    3  A    between atoms: C_5  and  C_6
REMARK    4  A    between atoms: C_7  and  C_8
REMARK    5  A    between atoms: C_17  and  N_18
REMARK                            x       y       z     vdW  Elec       q    Type
REMARK                         _______ _______ _______ _____ _____    ______ ____
ROOT
ATOM      1  O   UNL     1      -0.031   9.354  22.007  0.00  0.00    +0.000 OA
ATOM      2  C   UNL     1       0.691   9.652  21.059  0.00  0.00    +0.000 C 
ATOM      3  N   UNL     1       1.021  10.942  20.678  0.00  0.00    +0.000 N 
ATOM      4  H   UNL     1       1.688  11.103  19.938  0.00  0.00    +0.000 HD
ENDROOT
BRANCH   2   5
ATOM      5  C   UNL     1       1.344   8.567  20.273  0.00  0.00    +0.000 A 
ATOM      6  C   UNL     1       1.608   7.307  20.807  0.00  0.00    +0.000 A 
ATOM      7  C   UNL     1       2.238   6.331  20.021  0.00  0.00    +0.000 A 
ATOM      8  C   UNL     1       2.626   6.565  18.690  0.00  0.00    +0.000 A 
ATOM      9  C   UNL     1       2.352   7.843  18.183  0.00  0.00    +0.000 A 
ATOM     10  C   UNL     1       1.726   8.833  18.957  0.00  0.00    +0.000 A 
BRANCH   8  11
ATOM     11  N   UNL     1       3.309   5.602  17.969  0.00  0.00    +0.000 N 
ATOM     12  C   UNL     1       2.678   4.317  17.613  0.00  0.00    +0.000 C 
ATOM     13  C   UNL     1       3.743   3.211  17.660  0.00  0.00    +0.000 C 
ATOM     14  O   UNL     1       4.837   3.501  16.772  0.00  0.00    +0.000 OA
ATOM     15  C   UNL     1       5.454   4.748  17.135  0.00  0.00    +0.000 C 
ATOM     16  C   UNL     1       4.455   5.921  17.098  0.00  0.00    +0.000 C 
ENDBRANCH   8  11
ENDBRANCH   2   5
BRANCH   3  17
ATOM     17  N   UNL     1       0.514  12.010  21.358  0.00  0.00    +0.000 NA
ATOM     18  C   UNL     1      -0.511  12.627  20.860  0.00  0.00    +0.000 C 
BRANCH  18  19
ATOM     19  C   UNL     1      -1.182  12.397  19.560  0.00  0.00    +0.000 C 
ATOM     20  C   UNL     1      -1.984  11.338  19.387  0.00  0.00    +0.000 C 
BRANCH  20  21
ATOM     21  C   UNL     1      -2.622  11.140  18.086  0.00  0.00    +0.000 A 
ATOM     22  C   UNL     1      -3.916  11.631  17.868  0.00  0.00    +0.000 A 
ATOM     23  C   UNL     1      -4.565  11.379  16.661  0.00  0.00    +0.000 A 
ATOM     24  C   UNL     1      -3.929  10.640  15.665  0.00  0.00    +0.000 A 
ATOM     25  C   UNL     1      -2.638  10.153  15.874  0.00  0.00    +0.000 A 
ATOM     26  C   UNL     1      -1.985  10.400  17.083  0.00  0.00    +0.000 A 
ENDBRANCH  20  21
ENDBRANCH  18  19
ENDBRANCH   3  17
TORSDOF 5
ENDMDL
MODEL 4
REMARK VINA RESULT:      -7.4      6.281     10.661
REMARK  Name = 
REMARK  5 active torsions:
REMARK  status: ('A' for Active; 'I' for Inactive)
REMARK    1  A    between atoms: C_2  and  C_14
REMARK    2  A    between atoms: N_3  and  N_4
REMARK    3  A    between atoms: C_5  and  C_6
REMARK    4  A    between atoms: C_7  and  C_8
REMARK    5  A    between atoms: C_17  and  N_18
REMARK                            x       y       z     vdW  Elec       q    Type
REMARK                         _______ _______ _______ _____ _____    ______ ____
ROOT
ATOM      1  O   UNL     1       1.686  11.564  19.267  0.00  0.00    +0.000 OA
ATOM      2  C   UNL     1       0.953  10.899  18.539  0.00  0.00    +0.000 C 
ATOM      3  N   UNL     1       1.377   9.925  17.650  0.00  0.00    +0.000 N 
ATOM      4  H   UNL     1       0.706   9.363  17.147  0.00  0.00    +0.000 HD
ENDROOT
BRANCH   2   5
ATOM      5  C   UNL     1      -0.524  11.071  18.642  0.00  0.00    +0.000 A 
ATOM      6  C   UNL     1      -1.423  10.312  17.894  0.00  0.00    +0.000 A 
ATOM      7  C   UNL     1      -2.802  10.532  18.025  0.00  0.00    +0.000 A 
ATOM      8  C   UNL     1      -3.336  11.500  18.892  0.00  0.00    +0.000 A 
ATOM      9  C   UNL     1      -2.407  12.251  19.627  0.00  0.00    +0.000 A 
ATOM     10  C   UNL     1      -1.024  12.048  19.504  0.00  0.00    +0.000 A 
BRANCH   8  11
ATOM     11  N   UNL     1      -4.699  11.736  18.942  0.00  0.00    +0.000 N 
ATOM     12  C   UNL     1      -5.295  12.581  19.995  0.00  0.00    +0.000 C 
ATOM     13  C   UNL     1      -6.671  12.009  20.369  0.00  0.00    +0.000 C 
ATOM     14  O   UNL     1      -7.537  11.942  19.223  0.00  0.00    +0.000 OA
ATOM     15  C   UNL     1      -6.955  11.106  18.208  0.00  0.00    +0.000 C 
ATOM     16  C   UNL     1      -5.572  11.619  17.760  0.00  0.00    +0.000 C 
ENDBRANCH   8  11
ENDBRANCH   2   5
BRANCH   3  17
ATOM     17  N   UNL     1       2.706   9.655  17.510  0.00  0.00    +0.000 NA
ATOM     18  C   UNL     1       3.110   8.436  17.688  0.00  0.00    +0.000 C 
BRANCH  18  19
ATOM     19  C   UNL     1       2.324   7.263  18.135  0.00  0.00    +0.000 C 
ATOM     20  C   UNL     1       2.937   6.200  18.674  0.00  0.00    +0.000 C 
BRANCH  20  21
ATOM     21  C   UNL     1       2.128   5.058  19.097  0.00  0.00    +0.000 A 
ATOM     22  C   UNL     1       1.934   4.814  20.463  0.00  0.00    +0.000 A 
ATOM     23  C   UNL     1       1.233   3.684  20.879  0.00  0.00    +0.000 A 
ATOM     24  C   UNL     1       0.720   2.793  19.938  0.00  0.00    +0.000 A 
ATOM     25  C   UNL     1       0.904   3.034  18.576  0.00  0.00    +0.000 A 
ATOM     26  C   UNL     1       1.608   4.163  18.155  0.00  0.00    +0.000 A 
ENDBRANCH  20  21
ENDBRANCH  18  19
ENDBRANCH   3  17
TORSDOF 5
ENDMDL
MODEL 5
REMARK VINA RESULT:      -7.3      3.627      8.182
REMARK  Name = 
REMARK  5 active torsions:
REMARK  status: ('A' for Active; 'I' for Inactive)
REMARK    1  A    between atoms: C_2  and  C_14
REMARK    2  A    between atoms: N_3  and  N_4
REMARK    3  A    between atoms: C_5  and  C_6
REMARK    4  A    between atoms: C_7  and  C_8
REMARK    5  A    between atoms: C_17  and  N_18
REMARK                            x       y       z     vdW  Elec       q    Type
REMARK                         _______ _______ _______ _____ _____    ______ ____
ROOT
ATOM      1  O   UNL     1       3.334   5.253  17.543  0.00  0.00    +0.000 OA
ATOM      2  C   UNL     1       3.775   6.340  17.909  0.00  0.00    +0.000 C 
ATOM      3  N   UNL     1       5.096   6.744  17.804  0.00  0.00    +0.000 N 
ATOM      4  H   UNL     1       5.365   7.685  18.051  0.00  0.00    +0.000 HD
ENDROOT
BRANCH   2   5
ATOM      5  C   UNL     1       2.835   7.362  18.448  0.00  0.00    +0.000 A 
ATOM      6  C   UNL     1       2.289   7.281  19.728  0.00  0.00    +0.000 A 
ATOM      7  C   UNL     1       1.397   8.268  20.174  0.00  0.00    +0.000 A 
ATOM      8  C   UNL     1       1.017   9.361  19.376  0.00  0.00    +0.000 A 
ATOM      9  C   UNL     1       1.578   9.412  18.091  0.00  0.00    +0.000 A 
ATOM     10  C   UNL     1       2.468   8.431  17.628  0.00  0.00    +0.000 A 
BRANCH   8  11
ATOM     11  N   UNL     1       0.081  10.276  19.823  0.00  0.00    +0.000 N 
ATOM     12  C   UNL     1      -1.210  10.455  19.131  0.00  0.00    +0.000 C 
ATOM     13  C   UNL     1      -1.607  11.938  19.198  0.00  0.00    +0.000 C 
ATOM     14  O   UNL     1      -1.694  12.394  20.560  0.00  0.00    +0.000 OA
ATOM     15  C   UNL     1      -0.428  12.228  21.221  0.00  0.00    +0.000 C 
ATOM     16  C   UNL     1       0.041  10.760  21.215  0.00  0.00    +0.000 C 
ENDBRANCH   8  11
ENDBRANCH   2   5
BRANCH   3  17
ATOM     17  N   UNL     1       6.033   5.902  17.283  0.00  0.00    +0.000 NA
ATOM     18  C   UNL     1       7.285   6.185  17.462  0.00  0.00    +0.000 C 
BRANCH  18  19
ATOM     19  C   UNL     1       7.874   7.389  18.091  0.00  0.00    +0.000 C 
ATOM     20  C   UNL     1       7.807   8.578  17.477  0.00  0.00    +0.000 C 
BRANCH  20  21
ATOM     21  C   UNL     1       8.408   9.743  18.126  0.00  0.00    +0.000 A 
ATOM     22  C   UNL     1       8.333  10.997  17.505  0.00  0.00    +0.000 A 
ATOM     23  C   UNL     1       8.970  12.098  18.073  0.00  0.00    +0.000 A 
ATOM     24  C   UNL     1       9.684  11.957  19.262  0.00  0.00    +0.000 A 
ATOM     25  C   UNL     1       9.757  10.712  19.889  0.00  0.00    +0.000 A 
ATOM     26  C   UNL     1       9.122   9.606  19.321  0.00  0.00    +0.000 A 
ENDBRANCH  20  21
ENDBRANCH  18  19
ENDBRANCH   3  17
TORSDOF 5
ENDMDL
MODEL 6
REMARK VINA RESULT:      -7.3      3.571      8.348
REMARK  Name = 
REMARK  5 active torsions:
REMARK  status: ('A' for Active; 'I' for Inactive)
REMARK    1  A    between atoms: C_2  and  C_14
REMARK    2  A    between atoms: N_3  and  N_4
REMARK    3  A    between atoms: C_5  and  C_6
REMARK    4  A    between atoms: C_7  and  C_8
REMARK    5  A    between atoms: C_17  and  N_18
REMARK                            x       y       z     vdW  Elec       q    Type
REMARK                         _______ _______ _______ _____ _____    ______ ____
ROOT
ATOM      1  O   UNL     1       3.411   5.223  17.802  0.00  0.00    +0.000 OA
ATOM      2  C   UNL     1       3.781   6.372  18.028  0.00  0.00    +0.000 C 
ATOM      3  N   UNL     1       5.054   6.865  17.795  0.00  0.00    +0.000 N 
ATOM      4  H   UNL     1       5.257   7.844  17.929  0.00  0.00    +0.000 HD
ENDROOT
BRANCH   2   5
ATOM      5  C   UNL     1       2.791   7.370  18.525  0.00  0.00    +0.000 A 
ATOM      6  C   UNL     1       2.250   7.317  19.808  0.00  0.00    +0.000 A 
ATOM      7  C   UNL     1       1.311   8.277  20.212  0.00  0.00    +0.000 A 
ATOM      8  C   UNL     1       0.878   9.315  19.369  0.00  0.00    +0.000 A 
ATOM      9  C   UNL     1       1.435   9.339  18.082  0.00  0.00    +0.000 A 
ATOM     10  C   UNL     1       2.373   8.383  17.660  0.00  0.00    +0.000 A 
BRANCH   8  11
ATOM     11  N   UNL     1      -0.102  10.202  19.778  0.00  0.00    +0.000 N 
ATOM     12  C   UNL     1      -1.155  10.664  18.853  0.00  0.00    +0.000 C 
ATOM     13  C   UNL     1      -1.490  12.129  19.176  0.00  0.00    +0.000 C 
ATOM     14  O   UNL     1      -1.915  12.278  20.542  0.00  0.00    +0.000 OA
ATOM     15  C   UNL     1      -0.877  11.838  21.435  0.00  0.00    +0.000 C 
ATOM     16  C   UNL     1      -0.489  10.367  21.192  0.00  0.00    +0.000 C 
ENDBRANCH   8  11
ENDBRANCH   2   5
BRANCH   3  17
ATOM     17  N   UNL     1       6.026   6.047  17.299  0.00  0.00    +0.000 NA
ATOM     18  C   UNL     1       7.210   6.540  17.112  0.00  0.00    +0.000 C 
BRANCH  18  19
ATOM     19  C   UNL     1       7.658   7.943  17.271  0.00  0.00    +0.000 C 
ATOM     20  C   UNL     1       8.316   8.324  18.374  0.00  0.00    +0.000 C 
BRANCH  20  21
ATOM     21  C   UNL     1       8.735   9.720  18.499  0.00  0.00    +0.000 A 
ATOM     22  C   UNL     1       9.519  10.112  19.592  0.00  0.00    +0.000 A 
ATOM     23  C   UNL     1       9.857  11.453  19.765  0.00  0.00    +0.000 A 
ATOM     24  C   UNL     1       9.420  12.408  18.850  0.00  0.00    +0.000 A 
ATOM     25  C   UNL     1       8.645  12.023  17.755  0.00  0.00    +0.000 A 
ATOM     26  C   UNL     1       8.301  10.681  17.580  0.00  0.00    +0.000 A 
ENDBRANCH  20  21
ENDBRANCH  18  19
ENDBRANCH   3  17
TORSDOF 5
ENDMDL
MODEL 7
REMARK VINA RESULT:      -7.3      3.476      8.361
REMARK  Name = 
REMARK  5 active torsions:
REMARK  status: ('A' for Active; 'I' for Inactive)
REMARK    1  A    between atoms: C_2  and  C_14
REMARK    2  A    between atoms: N_3  and  N_4
REMARK    3  A    between atoms: C_5  and  C_6
REMARK    4  A    between atoms: C_7  and  C_8
REMARK    5  A    between atoms: C_17  and  N_18
REMARK                            x       y       z     vdW  Elec       q    Type
REMARK                         _______ _______ _______ _____ _____    ______ ____
ROOT
ATOM      1  O   UNL     1       3.412   5.603  17.588  0.00  0.00    +0.000 OA
ATOM      2  C   UNL     1       3.739   6.745  17.900  0.00  0.00    +0.000 C 
ATOM      3  N   UNL     1       5.003   7.289  17.739  0.00  0.00    +0.000 N 
ATOM      4  H   UNL     1       5.172   8.263  17.943  0.00  0.00    +0.000 HD
ENDROOT
BRANCH   2   5
ATOM      5  C   UNL     1       2.706   7.678  18.432  0.00  0.00    +0.000 A 
ATOM      6  C   UNL     1       2.182   8.728  17.679  0.00  0.00    +0.000 A 
ATOM      7  C   UNL     1       1.221   9.581  18.241  0.00  0.00    +0.000 A 
ATOM      8  C   UNL     1       0.747   9.427  19.555  0.00  0.00    +0.000 A 
ATOM      9  C   UNL     1       1.296   8.365  20.289  0.00  0.00    +0.000 A 
ATOM     10  C   UNL     1       2.262   7.505  19.744  0.00  0.00    +0.000 A 
BRANCH   8  11
ATOM     11  N   UNL     1      -0.149  10.330  20.098  0.00  0.00    +0.000 N 
ATOM     12  C   UNL     1      -1.244  10.905  19.294  0.00  0.00    +0.000 C 
ATOM     13  C   UNL     1      -1.474  12.359  19.735  0.00  0.00    +0.000 C 
ATOM     14  O   UNL     1      -1.782  12.436  21.138  0.00  0.00    +0.000 OA
ATOM     15  C   UNL     1      -0.703  11.886  21.914  0.00  0.00    +0.000 C 
ATOM     16  C   UNL     1      -0.415  10.418  21.546  0.00  0.00    +0.000 C 
ENDBRANCH   8  11
ENDBRANCH   2   5
BRANCH   3  17
ATOM     17  N   UNL     1       6.013   6.535  17.219  0.00  0.00    +0.000 NA
ATOM     18  C   UNL     1       7.205   7.044  17.179  0.00  0.00    +0.000 C 
BRANCH  18  19
ATOM     19  C   UNL     1       7.631   8.416  17.540  0.00  0.00    +0.000 C 
ATOM     20  C   UNL     1       8.580   8.611  18.466  0.00  0.00    +0.000 C 
BRANCH  20  21
ATOM     21  C   UNL     1       8.969   9.980  18.801  0.00  0.00    +0.000 A 
ATOM     22  C   UNL     1       9.308  10.300  20.122  0.00  0.00    +0.000 A 
ATOM     23  C   UNL     1       9.602  11.617  20.470  0.00  0.00    +0.000 A 
ATOM     24  C   UNL     1       9.562  12.621  19.504  0.00  0.00    +0.000 A 
ATOM     25  C   UNL     1       9.232  12.308  18.185  0.00  0.00    +0.000 A 
ATOM     26  C   UNL     1       8.934  10.990  17.833  0.00  0.00    +0.000 A 
ENDBRANCH  20  21
ENDBRANCH  18  19
ENDBRANCH   3  17
TORSDOF 5
ENDMDL
MODEL 8
REMARK VINA RESULT:      -7.2      3.583      8.013
REMARK  Name = 
REMARK  5 active torsions:
REMARK  status: ('A' for Active; 'I' for Inactive)
REMARK    1  A    between atoms: C_2  and  C_14
REMARK    2  A    between atoms: N_3  and  N_4
REMARK    3  A    between atoms: C_5  and  C_6
REMARK    4  A    between atoms: C_7  and  C_8
REMARK    5  A    between atoms: C_17  and  N_18
REMARK                            x       y       z     vdW  Elec       q    Type
REMARK                         _______ _______ _______ _____ _____    ______ ____
ROOT
ATOM      1  O   UNL     1       3.490   5.107  18.177  0.00  0.00    +0.000 OA
ATOM      2  C   UNL     1       3.851   6.279  18.114  0.00  0.00    +0.000 C 
ATOM      3  N   UNL     1       5.089   6.714  17.671  0.00  0.00    +0.000 N 
ATOM      4  H   UNL     1       5.280   7.700  17.570  0.00  0.00    +0.000 HD
ENDROOT
BRANCH   2   5
ATOM      5  C   UNL     1       2.883   7.357  18.463  0.00  0.00    +0.000 A 
ATOM      6  C   UNL     1       2.545   8.380  17.578  0.00  0.00    +0.000 A 
ATOM      7  C   UNL     1       1.638   9.375  17.971  0.00  0.00    +0.000 A 
ATOM      8  C   UNL     1       1.038   9.393  19.242  0.00  0.00    +0.000 A 
ATOM      9  C   UNL     1       1.401   8.355  20.112  0.00  0.00    +0.000 A 
ATOM     10  C   UNL     1       2.311   7.354  19.737  0.00  0.00    +0.000 A 
BRANCH   8  11
ATOM     11  N   UNL     1       0.202  10.430  19.619  0.00  0.00    +0.000 N 
ATOM     12  C   UNL     1      -1.198  10.495  19.157  0.00  0.00    +0.000 C 
ATOM     13  C   UNL     1      -1.578  11.967  18.934  0.00  0.00    +0.000 C 
ATOM     14  O   UNL     1      -1.404  12.739  20.135  0.00  0.00    +0.000 OA
ATOM     15  C   UNL     1      -0.034  12.680  20.569  0.00  0.00    +0.000 C 
ATOM     16  C   UNL     1       0.427  11.234  20.834  0.00  0.00    +0.000 C 
ENDBRANCH   8  11
ENDBRANCH   2   5
BRANCH   3  17
ATOM     17  N   UNL     1       6.035   5.811  17.284  0.00  0.00    +0.000 NA
ATOM     18  C   UNL     1       7.277   6.063  17.558  0.00  0.00    +0.000 C 
BRANCH  18  19
ATOM     19  C   UNL     1       7.855   7.282  18.168  0.00  0.00    +0.000 C 
ATOM     20  C   UNL     1       7.830   8.449  17.510  0.00  0.00    +0.000 C 
BRANCH  20  21
ATOM     21  C   UNL     1       8.418   9.629  18.142  0.00  0.00    +0.000 A 
ATOM     22  C   UNL     1       8.377  10.862  17.478  0.00  0.00    +0.000 A 
ATOM     23  C   UNL     1       9.004  11.977  18.033  0.00  0.00    +0.000 A 
ATOM     24  C   UNL     1       9.672  11.869  19.252  0.00  0.00    +0.000 A 
ATOM     25  C   UNL     1       9.710  10.645  19.921  0.00  0.00    +0.000 A 
ATOM     26  C   UNL     1       9.086   9.526  19.367  0.00  0.00    +0.000 A 
ENDBRANCH  20  21
ENDBRANCH  18  19
ENDBRANCH   3  17
TORSDOF 5
ENDMDL
MODEL 9
REMARK VINA RESULT:      -7.2      0.642      1.449
REMARK  Name = 
REMARK  5 active torsions:
REMARK  status: ('A' for Active; 'I' for Inactive)
REMARK    1  A    between atoms: C_2  and  C_14
REMARK    2  A    between atoms: N_3  and  N_4
REMARK    3  A    between atoms: C_5  and  C_6
REMARK    4  A    between atoms: C_7  and  C_8
REMARK    5  A    between atoms: C_17  and  N_18
REMARK                            x       y       z     vdW  Elec       q    Type
REMARK                         _______ _______ _______ _____ _____    ______ ____
ROOT
ATOM      1  O   UNL     1       8.000   6.840  18.858  0.00  0.00    +0.000 OA
ATOM      2  C   UNL     1       7.848   7.713  18.007  0.00  0.00    +0.000 C 
ATOM      3  N   UNL     1       7.186   7.549  16.801  0.00  0.00    +0.000 N 
ATOM      4  H   UNL     1       7.030   8.337  16.191  0.00  0.00    +0.000 HD
ENDROOT
BRANCH   2   5
ATOM      5  C   UNL     1       8.336   9.093  18.285  0.00  0.00    +0.000 A 
ATOM      6  C   UNL     1       9.191   9.388  19.345  0.00  0.00    +0.000 A 
ATOM      7  C   UNL     1       9.604  10.711  19.564  0.00  0.00    +0.000 A 
ATOM      8  C   UNL     1       9.189  11.779  18.750  0.00  0.00    +0.000 A 
ATOM      9  C   UNL     1       8.325  11.452  17.695  0.00  0.00    +0.000 A 
ATOM     10  C   UNL     1       7.898  10.134  17.465  0.00  0.00    +0.000 A 
BRANCH   8  11
ATOM     11  N   UNL     1       9.561  13.080  19.039  0.00  0.00    +0.000 N 
ATOM     12  C   UNL     1      10.033  13.463  20.384  0.00  0.00    +0.000 C 
ATOM     13  C   UNL     1       9.543  14.886  20.694  0.00  0.00    +0.000 C 
ATOM     14  O   UNL     1      10.006  15.825  19.708  0.00  0.00    +0.000 OA
ATOM     15  C   UNL     1       9.530  15.450  18.404  0.00  0.00    +0.000 C 
ATOM     16  C   UNL     1       9.991  14.036  18.003  0.00  0.00    +0.000 C 
ENDBRANCH   8  11
ENDBRANCH   2   5
BRANCH   3  17
ATOM     17  N   UNL     1       6.661   6.336  16.465  0.00  0.00    +0.000 NA
ATOM     18  C   UNL     1       5.383   6.162  16.589  0.00  0.00    +0.000 C 
BRANCH  18  19
ATOM     19  C   UNL     1       4.379   7.091  17.157  0.00  0.00    +0.000 C 
ATOM     20  C   UNL     1       3.493   6.662  18.066  0.00  0.00    +0.000 C 
BRANCH  20  21
ATOM     21  C   UNL     1       2.512   7.607  18.597  0.00  0.00    +0.000 A 
ATOM     22  C   UNL     1       2.069   8.668  17.796  0.00  0.00    +0.000 A 
ATOM     23  C   UNL     1       1.196   9.621  18.318  0.00  0.00    +0.000 A 
ATOM     24  C   UNL     1       0.759   9.521  19.638  0.00  0.00    +0.000 A 
ATOM     25  C   UNL     1       1.190   8.463  20.438  0.00  0.00    +0.000 A 
ATOM     26  C   UNL     1       2.067   7.508  19.920  0.00  0.00    +0.000 A 
ENDBRANCH  20  21
ENDBRANCH  18  19
ENDBRANCH   3  17
TORSDOF 5
ENDMDL
