MODEL 1
REMARK VINA RESULT:      -7.2      0.000      0.000
REMARK  Name = 
REMARK  6 active torsions:
REMARK  status: ('A' for Active; 'I' for Inactive)
REMARK    1  A    between atoms: C_1  and  C_2
REMARK    2  A    between atoms: C_6  and  N_7
REMARK    3  A    between atoms: C_8  and  C_10
REMARK    4  A    between atoms: N_13  and  C_14
REMARK    5  A    between atoms: C_21  and  C_22
REMARK    6  A    between atoms: C_28  and  C_29
REMARK                            x       y       z     vdW  Elec       q    Type
REMARK                         _______ _______ _______ _____ _____    ______ ____
ROOT
ATOM      1  C   UNL     1      -0.794  11.594  21.770  0.00  0.00    +0.000 A 
ATOM      2  C   UNL     1      -1.160  11.000  22.999  0.00  0.00    +0.000 A 
ATOM      3  N   UNL     1      -2.254  11.520  23.519  0.00  0.00    +0.000 NA
ATOM      4  N   UNL     1      -2.612  12.521  22.679  0.00  0.00    +0.000 N 
ATOM      5  C   UNL     1      -1.799  12.541  21.507  0.00  0.00    +0.000 A 
ENDROOT
BRANCH   4   6
ATOM      6  C   UNL     1      -3.740  13.315  23.085  0.00  0.00    +0.000 A 
ATOM      7  C   UNL     1      -3.627  14.442  23.907  0.00  0.00    +0.000 A 
ATOM      8  C   UNL     1      -4.749  15.230  24.184  0.00  0.00    +0.000 A 
ATOM      9  C   UNL     1      -5.993  14.868  23.687  0.00  0.00    +0.000 A 
ATOM     10  F   UNL     1      -7.057  15.634  23.957  0.00  0.00    +0.000 F 
ATOM     11  C   UNL     1      -6.144  13.730  22.917  0.00  0.00    +0.000 A 
ATOM     12  C   UNL     1      -5.022  12.947  22.621  0.00  0.00    +0.000 A 
ENDBRANCH   4   6
BRANCH   5  13
ATOM     13  C   UNL     1      -2.173  13.394  20.284  0.00  0.00    +0.000 C 
ATOM     14  C   UNL     1      -3.011  12.636  19.230  0.00  0.00    +0.000 C 
ATOM     15  C   UNL     1      -2.163  11.760  18.309  0.00  0.00    +0.000 C 
ATOM     16  N   UNL     1      -1.100  12.505  17.640  0.00  0.00    +0.000 NA
ATOM     17  C   UNL     1      -0.254  13.206  18.602  0.00  0.00    +0.000 C 
ATOM     18  C   UNL     1      -1.084  14.123  19.492  0.00  0.00    +0.000 C 
ATOM     19  H   UNL     1      -1.506  13.177  16.990  0.00  0.00    +0.000 HD
ENDBRANCH   5  13
BRANCH   1  21
ATOM     20  N   UNL     1       0.108  10.077  20.132  0.00  0.00    +0.000 N 
ATOM     21  C   UNL     1       0.370  11.077  21.043  0.00  0.00    +0.000 C 
ATOM     22  O   UNL     1       1.462  11.610  21.216  0.00  0.00    +0.000 OA
ATOM     23  H   UNL     1      -0.865   9.965  19.902  0.00  0.00    +0.000 HD
BRANCH  20  29
ATOM     24  C   UNL     1       2.951   5.939  19.820  0.00  0.00    +0.000 C 
ATOM     25  C   UNL     1       2.429   7.245  19.277  0.00  0.00    +0.000 A 
ATOM     26  C   UNL     1       2.876   7.656  18.015  0.00  0.00    +0.000 A 
ATOM     27  C   UNL     1       2.455   8.865  17.483  0.00  0.00    +0.000 A 
ATOM     28  C   UNL     1       1.561   9.662  18.195  0.00  0.00    +0.000 A 
ATOM     29  C   UNL     1       1.050   9.268  19.442  0.00  0.00    +0.000 A 
ATOM     30  C   UNL     1       1.518   8.056  20.012  0.00  0.00    +0.000 A 
ATOM     31  C   UNL     1       1.139   7.583  21.397  0.00  0.00    +0.000 C 
ENDBRANCH  20  29
ENDBRANCH   1  21
TORSDOF 4
ENDMDL
MODEL 2
REMARK VINA RESULT:      -7.1      4.848     10.335
REMARK  Name = 
REMARK  6 active torsions:
REMARK  status: ('A' for Active; 'I' for Inactive)
REMARK    1  A    between atoms: C_1  and  C_2
REMARK    2  A    between atoms: C_6  and  N_7
REMARK    3  A    between atoms: C_8  and  C_10
REMARK    4  A    between atoms: N_13  and  C_14
REMARK    5  A    between atoms: C_21  and  C_22
REMARK    6  A    between atoms: C_28  and  C_29
REMARK                            x       y       z     vdW  Elec       q    Type
REMARK                         _______ _______ _______ _____ _____    ______ ____
ROOT
ATOM      1  C   UNL     1       2.218   7.792  19.256  0.00  0.00    +0.000 A 
ATOM      2  C   UNL     1       2.327   8.534  18.059  0.00  0.00    +0.000 A 
ATOM      3  N   UNL     1       3.170   8.003  17.195  0.00  0.00    +0.000 NA
ATOM      4  N   UNL     1       3.695   6.923  17.821  0.00  0.00    +0.000 N 
ATOM      5  C   UNL     1       3.054   6.676  19.071  0.00  0.00    +0.000 A 
ENDROOT
BRANCH   4   6
ATOM      6  C   UNL     1       4.727   6.219  17.111  0.00  0.00    +0.000 A 
ATOM      7  C   UNL     1       4.464   5.330  16.062  0.00  0.00    +0.000 A 
ATOM      8  C   UNL     1       5.516   4.751  15.344  0.00  0.00    +0.000 A 
ATOM      9  C   UNL     1       6.831   5.016  15.703  0.00  0.00    +0.000 A 
ATOM     10  F   UNL     1       7.828   4.460  15.005  0.00  0.00    +0.000 F 
ATOM     11  C   UNL     1       7.120   5.848  16.768  0.00  0.00    +0.000 A 
ATOM     12  C   UNL     1       6.071   6.444  17.480  0.00  0.00    +0.000 A 
ENDBRANCH   4   6
BRANCH   5  13
ATOM     13  C   UNL     1       3.271   5.363  19.841  0.00  0.00    +0.000 C 
ATOM     14  C   UNL     1       3.507   4.139  18.928  0.00  0.00    +0.000 C 
ATOM     15  C   UNL     1       2.211   3.550  18.370  0.00  0.00    +0.000 C 
ATOM     16  N   UNL     1       1.253   3.200  19.415  0.00  0.00    +0.000 NA
ATOM     17  C   UNL     1       0.967   4.341  20.280  0.00  0.00    +0.000 C 
ATOM     18  C   UNL     1       2.248   4.903  20.883  0.00  0.00    +0.000 C 
ATOM     19  H   UNL     1       1.620   2.431  19.975  0.00  0.00    +0.000 HD
ENDBRANCH   5  13
BRANCH   1  21
ATOM     20  N   UNL     1       0.660   9.442  20.058  0.00  0.00    +0.000 N 
ATOM     21  C   UNL     1       1.271   8.229  20.287  0.00  0.00    +0.000 C 
ATOM     22  O   UNL     1       1.018   7.471  21.218  0.00  0.00    +0.000 OA
ATOM     23  H   UNL     1       0.754   9.788  19.119  0.00  0.00    +0.000 HD
BRANCH  20  29
ATOM     24  C   UNL     1      -2.567  13.180  21.016  0.00  0.00    +0.000 C 
ATOM     25  C   UNL     1      -1.721  12.005  21.437  0.00  0.00    +0.000 A 
ATOM     26  C   UNL     1      -1.754  11.622  22.783  0.00  0.00    +0.000 A 
ATOM     27  C   UNL     1      -0.970  10.570  23.230  0.00  0.00    +0.000 A 
ATOM     28  C   UNL     1      -0.166   9.874  22.331  0.00  0.00    +0.000 A 
ATOM     29  C   UNL     1      -0.137  10.193  20.964  0.00  0.00    +0.000 A 
ATOM     30  C   UNL     1      -0.899  11.300  20.511  0.00  0.00    +0.000 A 
ATOM     31  C   UNL     1      -0.859  11.818  19.092  0.00  0.00    +0.000 C 
ENDBRANCH  20  29
ENDBRANCH   1  21
TORSDOF 4
ENDMDL
MODEL 3
REMARK VINA RESULT:      -7.1      6.244     11.778
REMARK  Name = 
REMARK  6 active torsions:
REMARK  status: ('A' for Active; 'I' for Inactive)
REMARK    1  A    between atoms: C_1  and  C_2
REMARK    2  A    between atoms: C_6  and  N_7
REMARK    3  A    between atoms: C_8  and  C_10
REMARK    4  A    between atoms: N_13  and  C_14
REMARK    5  A    between atoms: C_21  and  C_22
REMARK    6  A    between atoms: C_28  and  C_29
REMARK                            x       y       z     vdW  Elec       q    Type
REMARK                         _______ _______ _______ _____ _____    ______ ____
ROOT
ATOM      1  C   UNL     1       4.094   6.291  17.506  0.00  0.00    +0.000 A 
ATOM      2  C   UNL     1       4.659   7.324  16.725  0.00  0.00    +0.000 A 
ATOM      3  N   UNL     1       5.204   6.888  15.607  0.00  0.00    +0.000 NA
ATOM      4  N   UNL     1       5.073   5.540  15.643  0.00  0.00    +0.000 N 
ATOM      5  C   UNL     1       4.286   5.118  16.755  0.00  0.00    +0.000 A 
ENDROOT
BRANCH   4   6
ATOM      6  C   UNL     1       5.683   4.815  14.562  0.00  0.00    +0.000 A 
ATOM      7  C   UNL     1       4.989   3.891  13.772  0.00  0.00    +0.000 A 
ATOM      8  C   UNL     1       5.612   3.292  12.672  0.00  0.00    +0.000 A 
ATOM      9  C   UNL     1       6.941   3.573  12.388  0.00  0.00    +0.000 A 
ATOM     10  F   UNL     1       7.523   2.997  11.330  0.00  0.00    +0.000 F 
ATOM     11  C   UNL     1       7.667   4.440  13.182  0.00  0.00    +0.000 A 
ATOM     12  C   UNL     1       7.044   5.057  14.275  0.00  0.00    +0.000 A 
ENDBRANCH   4   6
BRANCH   5  13
ATOM     13  C   UNL     1       3.760   3.678  16.867  0.00  0.00    +0.000 C 
ATOM     14  C   UNL     1       2.226   3.585  17.030  0.00  0.00    +0.000 C 
ATOM     15  C   UNL     1       1.763   3.823  18.468  0.00  0.00    +0.000 C 
ATOM     16  N   UNL     1       2.409   2.929  19.425  0.00  0.00    +0.000 NA
ATOM     17  C   UNL     1       3.863   3.013  19.336  0.00  0.00    +0.000 C 
ATOM     18  C   UNL     1       4.340   2.726  17.917  0.00  0.00    +0.000 C 
ATOM     19  H   UNL     1       2.111   1.969  19.255  0.00  0.00    +0.000 HD
ENDBRANCH   5  13
BRANCH   1  21
ATOM     20  N   UNL     1       2.363   7.533  18.628  0.00  0.00    +0.000 N 
ATOM     21  C   UNL     1       3.398   6.632  18.751  0.00  0.00    +0.000 C 
ATOM     22  O   UNL     1       3.708   6.045  19.783  0.00  0.00    +0.000 OA
ATOM     23  H   UNL     1       2.054   7.688  17.683  0.00  0.00    +0.000 HD
BRANCH  20  29
ATOM     24  C   UNL     1      -0.151  11.503  20.423  0.00  0.00    +0.000 C 
ATOM     25  C   UNL     1       0.416  10.112  20.551  0.00  0.00    +0.000 A 
ATOM     26  C   UNL     1       0.201   9.424  21.751  0.00  0.00    +0.000 A 
ATOM     27  C   UNL     1       0.730   8.156  21.935  0.00  0.00    +0.000 A 
ATOM     28  C   UNL     1       1.455   7.552  20.910  0.00  0.00    +0.000 A 
ATOM     29  C   UNL     1       1.655   8.185  19.673  0.00  0.00    +0.000 A 
ATOM     30  C   UNL     1       1.160   9.503  19.499  0.00  0.00    +0.000 A 
ATOM     31  C   UNL     1       1.413  10.335  18.264  0.00  0.00    +0.000 C 
ENDBRANCH  20  29
ENDBRANCH   1  21
TORSDOF 4
ENDMDL
MODEL 4
REMARK VINA RESULT:      -7.0      1.760      2.392
REMARK  Name = 
REMARK  6 active torsions:
REMARK  status: ('A' for Active; 'I' for Inactive)
REMARK    1  A    between atoms: C_1  and  C_2
REMARK    2  A    between atoms: C_6  and  N_7
REMARK    3  A    between atoms: C_8  and  C_10
REMARK    4  A    between atoms: N_13  and  C_14
REMARK    5  A    between atoms: C_21  and  C_22
REMARK    6  A    between atoms: C_28  and  C_29
REMARK                            x       y       z     vdW  Elec       q    Type
REMARK                         _______ _______ _______ _____ _____    ______ ____
ROOT
ATOM      1  C   UNL     1       0.182  10.148  20.814  0.00  0.00    +0.000 A 
ATOM      2  C   UNL     1       0.480   9.784  22.146  0.00  0.00    +0.000 A 
ATOM      3  N   UNL     1      -0.164  10.511  23.037  0.00  0.00    +0.000 NA
ATOM      4  N   UNL     1      -0.863  11.425  22.321  0.00  0.00    +0.000 N 
ATOM      5  C   UNL     1      -0.774  11.174  20.920  0.00  0.00    +0.000 A 
ENDROOT
BRANCH   4   6
ATOM      6  C   UNL     1      -1.584  12.409  23.082  0.00  0.00    +0.000 A 
ATOM      7  C   UNL     1      -1.041  13.649  23.438  0.00  0.00    +0.000 A 
ATOM      8  C   UNL     1      -1.827  14.603  24.093  0.00  0.00    +0.000 A 
ATOM      9  C   UNL     1      -3.138  14.305  24.439  0.00  0.00    +0.000 A 
ATOM     10  F   UNL     1      -3.880  15.228  25.060  0.00  0.00    +0.000 F 
ATOM     11  C   UNL     1      -3.684  13.069  24.147  0.00  0.00    +0.000 A 
ATOM     12  C   UNL     1      -2.907  12.115  23.476  0.00  0.00    +0.000 A 
ENDBRANCH   4   6
BRANCH   5  13
ATOM     13  C   UNL     1      -1.690  11.891  19.915  0.00  0.00    +0.000 C 
ATOM     14  C   UNL     1      -1.099  11.986  18.491  0.00  0.00    +0.000 C 
ATOM     15  C   UNL     1      -0.100  13.132  18.334  0.00  0.00    +0.000 C 
ATOM     16  N   UNL     1      -0.658  14.426  18.716  0.00  0.00    +0.000 NA
ATOM     17  C   UNL     1      -1.194  14.396  20.074  0.00  0.00    +0.000 C 
ATOM     18  C   UNL     1      -2.230  13.289  20.227  0.00  0.00    +0.000 C 
ATOM     19  H   UNL     1      -1.397  14.688  18.064  0.00  0.00    +0.000 HD
ENDBRANCH   5  13
BRANCH   1  21
ATOM     20  N   UNL     1       1.460   8.246  20.077  0.00  0.00    +0.000 N 
ATOM     21  C   UNL     1       0.779   9.386  19.712  0.00  0.00    +0.000 C 
ATOM     22  O   UNL     1       0.567   9.747  18.559  0.00  0.00    +0.000 OA
ATOM     23  H   UNL     1       1.289   7.939  21.019  0.00  0.00    +0.000 HD
BRANCH  20  29
ATOM     24  C   UNL     1       3.424   3.775  18.868  0.00  0.00    +0.000 C 
ATOM     25  C   UNL     1       3.242   5.257  18.653  0.00  0.00    +0.000 A 
ATOM     26  C   UNL     1       3.902   5.848  17.569  0.00  0.00    +0.000 A 
ATOM     27  C   UNL     1       3.797   7.212  17.345  0.00  0.00    +0.000 A 
ATOM     28  C   UNL     1       3.009   7.993  18.186  0.00  0.00    +0.000 A 
ATOM     29  C   UNL     1       2.291   7.436  19.256  0.00  0.00    +0.000 A 
ATOM     30  C   UNL     1       2.436   6.049  19.519  0.00  0.00    +0.000 A 
ATOM     31  C   UNL     1       1.816   5.355  20.709  0.00  0.00    +0.000 C 
ENDBRANCH  20  29
ENDBRANCH   1  21
TORSDOF 4
ENDMDL
MODEL 5
REMARK VINA RESULT:      -6.9      1.687      2.252
REMARK  Name = 
REMARK  6 active torsions:
REMARK  status: ('A' for Active; 'I' for Inactive)
REMARK    1  A    between atoms: C_1  and  C_2
REMARK    2  A    between atoms: C_6  and  N_7
REMARK    3  A    between atoms: C_8  and  C_10
REMARK    4  A    between atoms: N_13  and  C_14
REMARK    5  A    between atoms: C_21  and  C_22
REMARK    6  A    between atoms: C_28  and  C_29
REMARK                            x       y       z     vdW  Elec       q    Type
REMARK                         _______ _______ _______ _____ _____    ______ ____
ROOT
ATOM      1  C   UNL     1       0.263  10.361  20.811  0.00  0.00    +0.000 A 
ATOM      2  C   UNL     1       0.093   9.691  22.043  0.00  0.00    +0.000 A 
ATOM      3  N   UNL     1      -0.645  10.365  22.902  0.00  0.00    +0.000 NA
ATOM      4  N   UNL     1      -0.935  11.537  22.286  0.00  0.00    +0.000 N 
ATOM      5  C   UNL     1      -0.487  11.544  20.932  0.00  0.00    +0.000 A 
ENDROOT
BRANCH   4   6
ATOM      6  C   UNL     1      -1.663  12.500  23.067  0.00  0.00    +0.000 A 
ATOM      7  C   UNL     1      -1.135  13.742  23.436  0.00  0.00    +0.000 A 
ATOM      8  C   UNL     1      -1.929  14.676  24.111  0.00  0.00    +0.000 A 
ATOM      9  C   UNL     1      -3.232  14.354  24.465  0.00  0.00    +0.000 A 
ATOM     10  F   UNL     1      -3.982  15.258  25.105  0.00  0.00    +0.000 F 
ATOM     11  C   UNL     1      -3.762  13.114  24.160  0.00  0.00    +0.000 A 
ATOM     12  C   UNL     1      -2.978  12.182  23.470  0.00  0.00    +0.000 A 
ENDBRANCH   4   6
BRANCH   5  13
ATOM     13  C   UNL     1      -0.933  12.634  19.943  0.00  0.00    +0.000 C 
ATOM     14  C   UNL     1      -2.367  13.153  20.194  0.00  0.00    +0.000 C 
ATOM     15  C   UNL     1      -3.443  12.239  19.609  0.00  0.00    +0.000 C 
ATOM     16  N   UNL     1      -3.259  11.989  18.182  0.00  0.00    +0.000 NA
ATOM     17  C   UNL     1      -1.929  11.458  17.901  0.00  0.00    +0.000 C 
ATOM     18  C   UNL     1      -0.846  12.388  18.435  0.00  0.00    +0.000 C 
ATOM     19  H   UNL     1      -3.398  12.854  17.660  0.00  0.00    +0.000 HD
ENDBRANCH   5  13
BRANCH   1  21
ATOM     20  N   UNL     1       1.323   8.379  19.948  0.00  0.00    +0.000 N 
ATOM     21  C   UNL     1       1.013   9.705  19.735  0.00  0.00    +0.000 C 
ATOM     22  O   UNL     1       1.234  10.327  18.701  0.00  0.00    +0.000 OA
ATOM     23  H   UNL     1       0.818   7.948  20.703  0.00  0.00    +0.000 HD
BRANCH  20  29
ATOM     24  C   UNL     1       3.452   3.926  18.976  0.00  0.00    +0.000 C 
ATOM     25  C   UNL     1       3.228   5.390  18.692  0.00  0.00    +0.000 A 
ATOM     26  C   UNL     1       3.891   5.955  17.596  0.00  0.00    +0.000 A 
ATOM     27  C   UNL     1       3.748   7.304  17.311  0.00  0.00    +0.000 A 
ATOM     28  C   UNL     1       2.918   8.095  18.101  0.00  0.00    +0.000 A 
ATOM     29  C   UNL     1       2.196   7.562  19.181  0.00  0.00    +0.000 A 
ATOM     30  C   UNL     1       2.379   6.193  19.507  0.00  0.00    +0.000 A 
ATOM     31  C   UNL     1       1.756   5.531  20.714  0.00  0.00    +0.000 C 
ENDBRANCH  20  29
ENDBRANCH   1  21
TORSDOF 4
ENDMDL
MODEL 6
REMARK VINA RESULT:      -6.9      2.940      4.029
REMARK  Name = 
REMARK  6 active torsions:
REMARK  status: ('A' for Active; 'I' for Inactive)
REMARK    1  A    between atoms: C_1  and  C_2
REMARK    2  A    between atoms: C_6  and  N_7
REMARK    3  A    between atoms: C_8  and  C_10
REMARK    4  A    between atoms: N_13  and  C_14
REMARK    5  A    between atoms: C_21  and  C_22
REMARK    6  A    between atoms: C_28  and  C_29
REMARK                            x       y       z     vdW  Elec       q    Type
REMARK                         _______ _______ _______ _____ _____    ______ ____
ROOT
ATOM      1  C   UNL     1       0.196   9.933  21.508  0.00  0.00    +0.000 A 
ATOM      2  C   UNL     1      -0.319  10.350  22.756  0.00  0.00    +0.000 A 
ATOM      3  N   UNL     1      -0.433  11.659  22.857  0.00  0.00    +0.000 NA
ATOM      4  N   UNL     1       0.065  12.155  21.699  0.00  0.00    +0.000 N 
ATOM      5  C   UNL     1       0.370  11.117  20.770  0.00  0.00    +0.000 A 
ENDROOT
BRANCH   4   6
ATOM      6  C   UNL     1       0.138  13.588  21.604  0.00  0.00    +0.000 A 
ATOM      7  C   UNL     1       1.345  14.285  21.472  0.00  0.00    +0.000 A 
ATOM      8  C   UNL     1       1.344  15.671  21.283  0.00  0.00    +0.000 A 
ATOM      9  C   UNL     1       0.145  16.371  21.278  0.00  0.00    +0.000 A 
ATOM     10  F   UNL     1       0.158  17.696  21.092  0.00  0.00    +0.000 F 
ATOM     11  C   UNL     1      -1.058  15.716  21.460  0.00  0.00    +0.000 A 
ATOM     12  C   UNL     1      -1.065  14.326  21.632  0.00  0.00    +0.000 A 
ENDBRANCH   4   6
BRANCH   5  13
ATOM     13  C   UNL     1       0.683  11.423  19.297  0.00  0.00    +0.000 C 
ATOM     14  C   UNL     1      -0.188  12.550  18.697  0.00  0.00    +0.000 C 
ATOM     15  C   UNL     1      -1.571  12.067  18.260  0.00  0.00    +0.000 C 
ATOM     16  N   UNL     1      -1.511  10.949  17.324  0.00  0.00    +0.000 NA
ATOM     17  C   UNL     1      -0.730   9.841  17.866  0.00  0.00    +0.000 C 
ATOM     18  C   UNL     1       0.670  10.299  18.257  0.00  0.00    +0.000 C 
ATOM     19  H   UNL     1      -1.099  11.258  16.444  0.00  0.00    +0.000 HD
ENDBRANCH   5  13
BRANCH   1  21
ATOM     20  N   UNL     1       1.571   8.080  20.820  0.00  0.00    +0.000 N 
ATOM     21  C   UNL     1       0.323   8.499  21.228  0.00  0.00    +0.000 C 
ATOM     22  O   UNL     1      -0.633   7.764  21.453  0.00  0.00    +0.000 OA
ATOM     23  H   UNL     1       2.307   8.749  20.971  0.00  0.00    +0.000 HD
BRANCH  20  29
ATOM     24  C   UNL     1       3.740   5.227  17.290  0.00  0.00    +0.000 C 
ATOM     25  C   UNL     1       2.995   5.410  18.589  0.00  0.00    +0.000 A 
ATOM     26  C   UNL     1       2.673   4.264  19.327  0.00  0.00    +0.000 A 
ATOM     27  C   UNL     1       1.959   4.373  20.510  0.00  0.00    +0.000 A 
ATOM     28  C   UNL     1       1.585   5.629  20.982  0.00  0.00    +0.000 A 
ATOM     29  C   UNL     1       1.927   6.807  20.299  0.00  0.00    +0.000 A 
ATOM     30  C   UNL     1       2.614   6.698  19.062  0.00  0.00    +0.000 A 
ATOM     31  C   UNL     1       2.931   7.879  18.176  0.00  0.00    +0.000 C 
ENDBRANCH  20  29
ENDBRANCH   1  21
TORSDOF 4
ENDMDL
MODEL 7
REMARK VINA RESULT:      -6.8      3.393      8.086
REMARK  Name = 
REMARK  6 active torsions:
REMARK  status: ('A' for Active; 'I' for Inactive)
REMARK    1  A    between atoms: C_1  and  C_2
REMARK    2  A    between atoms: C_6  and  N_7
REMARK    3  A    between atoms: C_8  and  C_10
REMARK    4  A    between atoms: N_13  and  C_14
REMARK    5  A    between atoms: C_21  and  C_22
REMARK    6  A    between atoms: C_28  and  C_29
REMARK                            x       y       z     vdW  Elec       q    Type
REMARK                         _______ _______ _______ _____ _____    ______ ____
ROOT
ATOM      1  C   UNL     1       0.425  10.486  21.373  0.00  0.00    +0.000 A 
ATOM      2  C   UNL     1       0.878   9.680  22.442  0.00  0.00    +0.000 A 
ATOM      3  N   UNL     1       1.444   8.559  22.041  0.00  0.00    +0.000 NA
ATOM      4  N   UNL     1       1.325   8.558  20.692  0.00  0.00    +0.000 N 
ATOM      5  C   UNL     1       0.796   9.791  20.208  0.00  0.00    +0.000 A 
ENDROOT
BRANCH   4   6
ATOM      6  C   UNL     1       1.789   7.376  20.016  0.00  0.00    +0.000 A 
ATOM      7  C   UNL     1       2.433   7.409  18.774  0.00  0.00    +0.000 A 
ATOM      8  C   UNL     1       2.950   6.235  18.214  0.00  0.00    +0.000 A 
ATOM      9  C   UNL     1       2.781   5.021  18.866  0.00  0.00    +0.000 A 
ATOM     10  F   UNL     1       3.285   3.907  18.322  0.00  0.00    +0.000 F 
ATOM     11  C   UNL     1       2.102   4.952  20.068  0.00  0.00    +0.000 A 
ATOM     12  C   UNL     1       1.597   6.125  20.641  0.00  0.00    +0.000 A 
ENDBRANCH   4   6
BRANCH   5  13
ATOM     13  C   UNL     1       0.822  10.147  18.713  0.00  0.00    +0.000 C 
ATOM     14  C   UNL     1       1.530  11.485  18.404  0.00  0.00    +0.000 C 
ATOM     15  C   UNL     1       0.633  12.702  18.636  0.00  0.00    +0.000 C 
ATOM     16  N   UNL     1      -0.621  12.631  17.891  0.00  0.00    +0.000 NA
ATOM     17  C   UNL     1      -1.346  11.398  18.184  0.00  0.00    +0.000 C 
ATOM     18  C   UNL     1      -0.479  10.177  17.906  0.00  0.00    +0.000 C 
ATOM     19  H   UNL     1      -0.431  12.686  16.891  0.00  0.00    +0.000 HD
ENDBRANCH   5  13
BRANCH   1  21
ATOM     20  N   UNL     1      -1.549  11.836  21.644  0.00  0.00    +0.000 N 
ATOM     21  C   UNL     1      -0.172  11.793  21.665  0.00  0.00    +0.000 C 
ATOM     22  O   UNL     1       0.562  12.721  21.989  0.00  0.00    +0.000 OA
ATOM     23  H   UNL     1      -1.996  10.936  21.653  0.00  0.00    +0.000 HD
BRANCH  20  29
ATOM     24  C   UNL     1      -5.053  14.638  23.921  0.00  0.00    +0.000 C 
ATOM     25  C   UNL     1      -4.076  14.367  22.804  0.00  0.00    +0.000 A 
ATOM     26  C   UNL     1      -3.965  15.322  21.785  0.00  0.00    +0.000 A 
ATOM     27  C   UNL     1      -3.108  15.108  20.717  0.00  0.00    +0.000 A 
ATOM     28  C   UNL     1      -2.334  13.951  20.670  0.00  0.00    +0.000 A 
ATOM     29  C   UNL     1      -2.378  12.990  21.692  0.00  0.00    +0.000 A 
ATOM     30  C   UNL     1      -3.291  13.180  22.762  0.00  0.00    +0.000 A 
ATOM     31  C   UNL     1      -3.520  12.164  23.856  0.00  0.00    +0.000 C 
ENDBRANCH  20  29
ENDBRANCH   1  21
TORSDOF 4
ENDMDL
MODEL 8
REMARK VINA RESULT:      -6.8      2.201      3.542
REMARK  Name = 
REMARK  6 active torsions:
REMARK  status: ('A' for Active; 'I' for Inactive)
REMARK    1  A    between atoms: C_1  and  C_2
REMARK    2  A    between atoms: C_6  and  N_7
REMARK    3  A    between atoms: C_8  and  C_10
REMARK    4  A    between atoms: N_13  and  C_14
REMARK    5  A    between atoms: C_21  and  C_22
REMARK    6  A    between atoms: C_28  and  C_29
REMARK                            x       y       z     vdW  Elec       q    Type
REMARK                         _______ _______ _______ _____ _____    ______ ____
ROOT
ATOM      1  C   UNL     1       0.984   9.099  20.949  0.00  0.00    +0.000 A 
ATOM      2  C   UNL     1       1.309   9.085  22.324  0.00  0.00    +0.000 A 
ATOM      3  N   UNL     1       0.585   9.927  23.035  0.00  0.00    +0.000 NA
ATOM      4  N   UNL     1      -0.200  10.573  22.140  0.00  0.00    +0.000 N 
ATOM      5  C   UNL     1      -0.074  10.017  20.832  0.00  0.00    +0.000 A 
ENDROOT
BRANCH   4   6
ATOM      6  C   UNL     1      -1.026  11.626  22.665  0.00  0.00    +0.000 A 
ATOM      7  C   UNL     1      -2.315  11.409  23.166  0.00  0.00    +0.000 A 
ATOM      8  C   UNL     1      -3.031  12.457  23.755  0.00  0.00    +0.000 A 
ATOM      9  C   UNL     1      -2.485  13.733  23.799  0.00  0.00    +0.000 A 
ATOM     10  F   UNL     1      -3.178  14.725  24.370  0.00  0.00    +0.000 F 
ATOM     11  C   UNL     1      -1.237  13.987  23.264  0.00  0.00    +0.000 A 
ATOM     12  C   UNL     1      -0.508  12.939  22.688  0.00  0.00    +0.000 A 
ENDBRANCH   4   6
BRANCH   5  13
ATOM     13  C   UNL     1      -1.053  10.383  19.705  0.00  0.00    +0.000 C 
ATOM     14  C   UNL     1      -0.456  10.230  18.288  0.00  0.00    +0.000 C 
ATOM     15  C   UNL     1       0.405  11.422  17.871  0.00  0.00    +0.000 C 
ATOM     16  N   UNL     1      -0.304  12.694  17.964  0.00  0.00    +0.000 NA
ATOM     17  C   UNL     1      -0.852  12.902  19.302  0.00  0.00    +0.000 C 
ATOM     18  C   UNL     1      -1.756  11.744  19.707  0.00  0.00    +0.000 C 
ATOM     19  H   UNL     1      -1.059  12.719  17.279  0.00  0.00    +0.000 HD
ENDBRANCH   5  13
BRANCH   1  21
ATOM     20  N   UNL     1       1.823   6.885  20.513  0.00  0.00    +0.000 N 
ATOM     21  C   UNL     1       1.667   8.170  20.042  0.00  0.00    +0.000 C 
ATOM     22  O   UNL     1       1.968   8.555  18.917  0.00  0.00    +0.000 OA
ATOM     23  H   UNL     1       1.265   6.664  21.320  0.00  0.00    +0.000 HD
BRANCH  20  29
ATOM     24  C   UNL     1       2.404   2.094  19.095  0.00  0.00    +0.000 C 
ATOM     25  C   UNL     1       2.892   3.513  19.237  0.00  0.00    +0.000 A 
ATOM     26  C   UNL     1       4.169   3.820  18.751  0.00  0.00    +0.000 A 
ATOM     27  C   UNL     1       4.680   5.101  18.887  0.00  0.00    +0.000 A 
ATOM     28  C   UNL     1       3.910   6.095  19.485  0.00  0.00    +0.000 A 
ATOM     29  C   UNL     1       2.607   5.845  19.944  0.00  0.00    +0.000 A 
ATOM     30  C   UNL     1       2.099   4.523  19.853  0.00  0.00    +0.000 A 
ATOM     31  C   UNL     1       0.763   4.101  20.419  0.00  0.00    +0.000 C 
ENDBRANCH  20  29
ENDBRANCH   1  21
TORSDOF 4
ENDMDL
MODEL 9
REMARK VINA RESULT:      -6.8      3.444      8.166
REMARK  Name = 
REMARK  6 active torsions:
REMARK  status: ('A' for Active; 'I' for Inactive)
REMARK    1  A    between atoms: C_1  and  C_2
REMARK    2  A    between atoms: C_6  and  N_7
REMARK    3  A    between atoms: C_8  and  C_10
REMARK    4  A    between atoms: N_13  and  C_14
REMARK    5  A    between atoms: C_21  and  C_22
REMARK    6  A    between atoms: C_28  and  C_29
REMARK                            x       y       z     vdW  Elec       q    Type
REMARK                         _______ _______ _______ _____ _____    ______ ____
ROOT
ATOM      1  C   UNL     1       0.378  10.395  21.437  0.00  0.00    +0.000 A 
ATOM      2  C   UNL     1       0.923   9.593  22.465  0.00  0.00    +0.000 A 
ATOM      3  N   UNL     1       1.523   8.509  22.013  0.00  0.00    +0.000 NA
ATOM      4  N   UNL     1       1.336   8.527  20.671  0.00  0.00    +0.000 N 
ATOM      5  C   UNL     1       0.724   9.741  20.241  0.00  0.00    +0.000 A 
ENDROOT
BRANCH   4   6
ATOM      6  C   UNL     1       1.824   7.383  19.949  0.00  0.00    +0.000 A 
ATOM      7  C   UNL     1       2.473   7.479  18.713  0.00  0.00    +0.000 A 
ATOM      8  C   UNL     1       3.013   6.339  18.108  0.00  0.00    +0.000 A 
ATOM      9  C   UNL     1       2.861   5.095  18.707  0.00  0.00    +0.000 A 
ATOM     10  F   UNL     1       3.387   4.014  18.119  0.00  0.00    +0.000 F 
ATOM     11  C   UNL     1       2.178   4.964  19.901  0.00  0.00    +0.000 A 
ATOM     12  C   UNL     1       1.651   6.104  20.521  0.00  0.00    +0.000 A 
ENDBRANCH   4   6
BRANCH   5  13
ATOM     13  C   UNL     1       0.658  10.125  18.754  0.00  0.00    +0.000 C 
ATOM     14  C   UNL     1       1.911  10.874  18.248  0.00  0.00    +0.000 C 
ATOM     15  C   UNL     1       1.896  12.363  18.591  0.00  0.00    +0.000 C 
ATOM     16  N   UNL     1       0.697  13.043  18.110  0.00  0.00    +0.000 NA
ATOM     17  C   UNL     1      -0.516  12.393  18.598  0.00  0.00    +0.000 C 
ATOM     18  C   UNL     1      -0.536  10.918  18.216  0.00  0.00    +0.000 C 
ATOM     19  H   UNL     1       0.692  13.053  17.091  0.00  0.00    +0.000 HD
ENDBRANCH   5  13
BRANCH   1  21
ATOM     20  N   UNL     1      -1.591  11.576  22.160  0.00  0.00    +0.000 N 
ATOM     21  C   UNL     1      -0.268  11.664  21.784  0.00  0.00    +0.000 C 
ATOM     22  O   UNL     1       0.409  12.687  21.807  0.00  0.00    +0.000 OA
ATOM     23  H   UNL     1      -1.905  10.645  22.371  0.00  0.00    +0.000 HD
BRANCH  20  29
ATOM     24  C   UNL     1      -5.452  14.395  20.596  0.00  0.00    +0.000 C 
ATOM     25  C   UNL     1      -4.398  14.015  21.605  0.00  0.00    +0.000 A 
ATOM     26  C   UNL     1      -4.349  14.736  22.805  0.00  0.00    +0.000 A 
ATOM     27  C   UNL     1      -3.378  14.451  23.752  0.00  0.00    +0.000 A 
ATOM     28  C   UNL     1      -2.465  13.425  23.522  0.00  0.00    +0.000 A 
ATOM     29  C   UNL     1      -2.507  12.645  22.355  0.00  0.00    +0.000 A 
ATOM     30  C   UNL     1      -3.466  12.967  21.361  0.00  0.00    +0.000 A 
ATOM     31  C   UNL     1      -3.534  12.284  20.014  0.00  0.00    +0.000 C 
ENDBRANCH  20  29
ENDBRANCH   1  21
TORSDOF 4
ENDMDL
