MODEL 1
REMARK VINA RESULT:      -7.2      0.000      0.000
REMARK  Name = 
REMARK  7 active torsions:
REMARK  status: ('A' for Active; 'I' for Inactive)
REMARK    1  A    between atoms: C_1  and  C_2
REMARK    2  A    between atoms: C_2  and  N_3
REMARK    3  A    between atoms: N_3  and  C_4
REMARK    4  A    between atoms: C_4  and  C_5
REMARK    5  A    between atoms: C_11  and  C_13
REMARK    6  A    between atoms: N_16  and  S_17
REMARK    7  A    between atoms: S_17  and  C_20
REMARK                            x       y       z     vdW  Elec       q    Type
REMARK                         _______ _______ _______ _____ _____    ______ ____
ROOT
ATOM      1  C   UNL     1       1.068   5.370  20.376  0.00  0.00    +0.000 C 
ATOM      2  C   UNL     1       2.202   5.015  21.371  0.00  0.00    +0.000 C 
ATOM      3  C   UNL     1       3.389   4.317  20.682  0.00  0.00    +0.000 C 
ATOM      4  N   UNL     1       2.966   3.094  19.936  0.00  0.00    +0.000 NA
ATOM      5  C   UNL     1       1.755   3.317  19.077  0.00  0.00    +0.000 C 
ATOM      6  C   UNL     1       0.621   4.048  19.769  0.00  0.00    +0.000 C 
ENDROOT
BRANCH   1   8
ATOM      7  N   UNL     1       1.657   7.813  19.788  0.00  0.00    +0.000 N 
ATOM      8  C   UNL     1       1.568   6.474  19.417  0.00  0.00    +0.000 C 
ATOM      9  O   UNL     1       1.946   6.102  18.301  0.00  0.00    +0.000 OA
BRANCH   7  11
ATOM     10  C   UNL     1       1.355   9.452  17.774  0.00  0.00    +0.000 C 
ATOM     11  C   UNL     1       2.240   8.797  18.836  0.00  0.00    +0.000 C 
ENDBRANCH   7  11
BRANCH   7  12
ATOM     12  C   UNL     1       1.701   8.252  21.198  0.00  0.00    +0.000 C 
BRANCH  12  13
ATOM     13  C   UNL     1       0.812   9.416  21.604  0.00  0.00    +0.000 A 
ATOM     14  C   UNL     1       0.823  10.665  20.970  0.00  0.00    +0.000 A 
ATOM     15  C   UNL     1      -0.051  11.685  21.381  0.00  0.00    +0.000 A 
ATOM     16  C   UNL     1      -0.951  11.468  22.425  0.00  0.00    +0.000 A 
ATOM     17  C   UNL     1      -0.977  10.233  23.065  0.00  0.00    +0.000 A 
ATOM     18  C   UNL     1      -0.108   9.219  22.658  0.00  0.00    +0.000 A 
ENDBRANCH  12  13
ENDBRANCH   7  12
ENDBRANCH   1   8
BRANCH   4  19
ATOM     19  S   UNL     1       4.213   2.406  18.926  0.00  0.00    +0.000 S 
ATOM     20  O   UNL     1       5.302   1.984  19.779  0.00  0.00    +0.000 OA
ATOM     21  O   UNL     1       3.549   1.413  18.098  0.00  0.00    +0.000 OA
BRANCH  19  22
ATOM     22  C   UNL     1       4.837   3.639  17.835  0.00  0.00    +0.000 A 
ATOM     23  C   UNL     1       4.472   3.609  16.465  0.00  0.00    +0.000 A 
ATOM     24  C   UNL     1       5.099   4.389  15.465  0.00  0.00    +0.000 A 
ATOM     25  C   UNL     1       6.154   5.269  15.740  0.00  0.00    +0.000 A 
ATOM     26  C   UNL     1       6.572   5.341  17.091  0.00  0.00    +0.000 A 
ATOM     27  N   UNL     1       7.577   6.102  17.547  0.00  0.00    +0.000 NA
ATOM     28  S   UNL     1       7.695   5.797  19.174  0.00  0.00    +0.000 S 
ATOM     29  N   UNL     1       6.454   4.716  19.380  0.00  0.00    +0.000 NA
ATOM     30  C   UNL     1       5.900   4.509  18.174  0.00  0.00    +0.000 A 
ENDBRANCH  19  22
ENDBRANCH   4  19
TORSDOF 6
ENDMDL
MODEL 2
REMARK VINA RESULT:      -7.1      5.094      9.455
REMARK  Name = 
REMARK  7 active torsions:
REMARK  status: ('A' for Active; 'I' for Inactive)
REMARK    1  A    between atoms: C_1  and  C_2
REMARK    2  A    between atoms: C_2  and  N_3
REMARK    3  A    between atoms: N_3  and  C_4
REMARK    4  A    between atoms: C_4  and  C_5
REMARK    5  A    between atoms: C_11  and  C_13
REMARK    6  A    between atoms: N_16  and  S_17
REMARK    7  A    between atoms: S_17  and  C_20
REMARK                            x       y       z     vdW  Elec       q    Type
REMARK                         _______ _______ _______ _____ _____    ______ ____
ROOT
ATOM      1  C   UNL     1       1.194   8.512  21.374  0.00  0.00    +0.000 C 
ATOM      2  C   UNL     1      -0.356   8.495  21.380  0.00  0.00    +0.000 C 
ATOM      3  C   UNL     1      -0.957   9.594  20.483  0.00  0.00    +0.000 C 
ATOM      4  N   UNL     1      -0.462  10.954  20.852  0.00  0.00    +0.000 NA
ATOM      5  C   UNL     1       1.027  11.009  21.037  0.00  0.00    +0.000 C 
ATOM      6  C   UNL     1       1.595   9.888  21.886  0.00  0.00    +0.000 C 
ENDROOT
BRANCH   1   8
ATOM      7  N   UNL     1       2.163   6.804  19.699  0.00  0.00    +0.000 N 
ATOM      8  C   UNL     1       1.696   8.087  19.976  0.00  0.00    +0.000 C 
ATOM      9  O   UNL     1       1.612   8.934  19.081  0.00  0.00    +0.000 OA
BRANCH   7  11
ATOM     10  C   UNL     1       3.967   6.678  17.813  0.00  0.00    +0.000 C 
ATOM     11  C   UNL     1       2.537   6.449  18.304  0.00  0.00    +0.000 C 
ENDBRANCH   7  11
BRANCH   7  12
ATOM     12  C   UNL     1       1.844   5.636  20.545  0.00  0.00    +0.000 C 
BRANCH  12  13
ATOM     13  C   UNL     1       2.051   4.254  19.950  0.00  0.00    +0.000 A 
ATOM     14  C   UNL     1       1.029   3.494  19.367  0.00  0.00    +0.000 A 
ATOM     15  C   UNL     1       1.301   2.234  18.808  0.00  0.00    +0.000 A 
ATOM     16  C   UNL     1       2.600   1.721  18.818  0.00  0.00    +0.000 A 
ATOM     17  C   UNL     1       3.628   2.463  19.390  0.00  0.00    +0.000 A 
ATOM     18  C   UNL     1       3.357   3.715  19.947  0.00  0.00    +0.000 A 
ENDBRANCH  12  13
ENDBRANCH   7  12
ENDBRANCH   1   8
BRANCH   4  19
ATOM     19  S   UNL     1      -0.901  12.206  19.718  0.00  0.00    +0.000 S 
ATOM     20  O   UNL     1      -0.961  13.461  20.432  0.00  0.00    +0.000 OA
ATOM     21  O   UNL     1       0.029  12.077  18.607  0.00  0.00    +0.000 OA
BRANCH  19  22
ATOM     22  C   UNL     1      -2.507  11.883  19.073  0.00  0.00    +0.000 A 
ATOM     23  C   UNL     1      -2.648  11.474  17.722  0.00  0.00    +0.000 A 
ATOM     24  C   UNL     1      -3.886  11.427  17.038  0.00  0.00    +0.000 A 
ATOM     25  C   UNL     1      -5.099  11.788  17.640  0.00  0.00    +0.000 A 
ATOM     26  C   UNL     1      -5.026  12.213  18.988  0.00  0.00    +0.000 A 
ATOM     27  N   UNL     1      -6.068  12.621  19.726  0.00  0.00    +0.000 NA
ATOM     28  S   UNL     1      -5.456  13.051  21.206  0.00  0.00    +0.000 S 
ATOM     29  N   UNL     1      -3.849  12.703  20.993  0.00  0.00    +0.000 NA
ATOM     30  C   UNL     1      -3.700  12.262  19.733  0.00  0.00    +0.000 A 
ENDBRANCH  19  22
ENDBRANCH   4  19
TORSDOF 6
ENDMDL
MODEL 3
REMARK VINA RESULT:      -7.1      4.508      9.184
REMARK  Name = 
REMARK  7 active torsions:
REMARK  status: ('A' for Active; 'I' for Inactive)
REMARK    1  A    between atoms: C_1  and  C_2
REMARK    2  A    between atoms: C_2  and  N_3
REMARK    3  A    between atoms: N_3  and  C_4
REMARK    4  A    between atoms: C_4  and  C_5
REMARK    5  A    between atoms: C_11  and  C_13
REMARK    6  A    between atoms: N_16  and  S_17
REMARK    7  A    between atoms: S_17  and  C_20
REMARK                            x       y       z     vdW  Elec       q    Type
REMARK                         _______ _______ _______ _____ _____    ______ ____
ROOT
ATOM      1  C   UNL     1       1.086   8.233  21.333  0.00  0.00    +0.000 C 
ATOM      2  C   UNL     1      -0.454   8.318  21.186  0.00  0.00    +0.000 C 
ATOM      3  C   UNL     1      -0.899   9.555  20.383  0.00  0.00    +0.000 C 
ATOM      4  N   UNL     1      -0.373  10.824  20.970  0.00  0.00    +0.000 NA
ATOM      5  C   UNL     1       1.089  10.757  21.303  0.00  0.00    +0.000 C 
ATOM      6  C   UNL     1       1.504   9.507  22.053  0.00  0.00    +0.000 C 
ENDROOT
BRANCH   1   8
ATOM      7  N   UNL     1       2.210   6.700  19.586  0.00  0.00    +0.000 N 
ATOM      8  C   UNL     1       1.708   7.949  19.947  0.00  0.00    +0.000 C 
ATOM      9  O   UNL     1       1.692   8.880  19.136  0.00  0.00    +0.000 OA
BRANCH   7  11
ATOM     10  C   UNL     1       4.193   6.642  17.884  0.00  0.00    +0.000 C 
ATOM     11  C   UNL     1       2.704   6.485  18.200  0.00  0.00    +0.000 C 
ENDBRANCH   7  11
BRANCH   7  12
ATOM     12  C   UNL     1       1.832   5.453  20.283  0.00  0.00    +0.000 C 
BRANCH  12  13
ATOM     13  C   UNL     1       2.282   4.138  19.672  0.00  0.00    +0.000 A 
ATOM     14  C   UNL     1       1.521   3.403  18.753  0.00  0.00    +0.000 A 
ATOM     15  C   UNL     1       2.016   2.208  18.206  0.00  0.00    +0.000 A 
ATOM     16  C   UNL     1       3.280   1.735  18.563  0.00  0.00    +0.000 A 
ATOM     17  C   UNL     1       4.051   2.453  19.472  0.00  0.00    +0.000 A 
ATOM     18  C   UNL     1       3.558   3.641  20.017  0.00  0.00    +0.000 A 
ENDBRANCH  12  13
ENDBRANCH   7  12
ENDBRANCH   1   8
BRANCH   4  19
ATOM     19  S   UNL     1      -0.624  12.231  19.967  0.00  0.00    +0.000 S 
ATOM     20  O   UNL     1      -0.413  13.408  20.780  0.00  0.00    +0.000 OA
ATOM     21  O   UNL     1       0.212  12.034  18.793  0.00  0.00    +0.000 OA
BRANCH  19  22
ATOM     22  C   UNL     1      -2.291  12.266  19.402  0.00  0.00    +0.000 A 
ATOM     23  C   UNL     1      -3.325  12.631  20.302  0.00  0.00    +0.000 A 
ATOM     24  C   UNL     1      -4.703  12.459  20.030  0.00  0.00    +0.000 A 
ATOM     25  C   UNL     1      -5.176  11.899  18.836  0.00  0.00    +0.000 A 
ATOM     26  C   UNL     1      -4.192  11.506  17.897  0.00  0.00    +0.000 A 
ATOM     27  N   UNL     1      -4.444  10.931  16.712  0.00  0.00    +0.000 NA
ATOM     28  S   UNL     1      -2.969  10.627  16.016  0.00  0.00    +0.000 S 
ATOM     29  N   UNL     1      -1.947  11.244  17.167  0.00  0.00    +0.000 NA
ATOM     30  C   UNL     1      -2.708  11.693  18.178  0.00  0.00    +0.000 A 
ENDBRANCH  19  22
ENDBRANCH   4  19
TORSDOF 6
ENDMDL
MODEL 4
REMARK VINA RESULT:      -7.1      7.378     10.764
REMARK  Name = 
REMARK  7 active torsions:
REMARK  status: ('A' for Active; 'I' for Inactive)
REMARK    1  A    between atoms: C_1  and  C_2
REMARK    2  A    between atoms: C_2  and  N_3
REMARK    3  A    between atoms: N_3  and  C_4
REMARK    4  A    between atoms: C_4  and  C_5
REMARK    5  A    between atoms: C_11  and  C_13
REMARK    6  A    between atoms: N_16  and  S_17
REMARK    7  A    between atoms: S_17  and  C_20
REMARK                            x       y       z     vdW  Elec       q    Type
REMARK                         _______ _______ _______ _____ _____    ______ ____
ROOT
ATOM      1  C   UNL     1       1.711  12.453  18.931  0.00  0.00    +0.000 C 
ATOM      2  C   UNL     1       2.041  12.841  20.394  0.00  0.00    +0.000 C 
ATOM      3  C   UNL     1       1.962  14.362  20.629  0.00  0.00    +0.000 C 
ATOM      4  N   UNL     1       2.842  15.121  19.690  0.00  0.00    +0.000 NA
ATOM      5  C   UNL     1       2.705  14.675  18.263  0.00  0.00    +0.000 C 
ATOM      6  C   UNL     1       2.739  13.172  18.070  0.00  0.00    +0.000 C 
ENDROOT
BRANCH   1   8
ATOM      7  N   UNL     1      -0.727  11.723  18.500  0.00  0.00    +0.000 N 
ATOM      8  C   UNL     1       0.216  12.736  18.660  0.00  0.00    +0.000 C 
ATOM      9  O   UNL     1      -0.124  13.923  18.646  0.00  0.00    +0.000 OA
BRANCH   7  11
ATOM     10  C   UNL     1      -3.006  11.397  17.264  0.00  0.00    +0.000 C 
ATOM     11  C   UNL     1      -2.162  12.082  18.339  0.00  0.00    +0.000 C 
ENDBRANCH   7  11
BRANCH   7  12
ATOM     12  C   UNL     1      -0.510  10.343  18.980  0.00  0.00    +0.000 C 
BRANCH  12  13
ATOM     13  C   UNL     1      -0.316  10.135  20.472  0.00  0.00    +0.000 A 
ATOM     14  C   UNL     1      -0.992  10.867  21.457  0.00  0.00    +0.000 A 
ATOM     15  C   UNL     1      -0.784  10.597  22.819  0.00  0.00    +0.000 A 
ATOM     16  C   UNL     1       0.095   9.588  23.216  0.00  0.00    +0.000 A 
ATOM     17  C   UNL     1       0.773   8.848  22.251  0.00  0.00    +0.000 A 
ATOM     18  C   UNL     1       0.568   9.118  20.896  0.00  0.00    +0.000 A 
ENDBRANCH  12  13
ENDBRANCH   7  12
ENDBRANCH   1   8
BRANCH   4  19
ATOM     19  S   UNL     1       2.605  16.850  19.730  0.00  0.00    +0.000 S 
ATOM     20  O   UNL     1       2.235  17.222  21.078  0.00  0.00    +0.000 OA
ATOM     21  O   UNL     1       3.806  17.428  19.151  0.00  0.00    +0.000 OA
BRANCH  19  22
ATOM     22  C   UNL     1       1.269  17.289  18.671  0.00  0.00    +0.000 A 
ATOM     23  C   UNL     1       1.544  17.853  17.398  0.00  0.00    +0.000 A 
ATOM     24  C   UNL     1       0.565  18.461  16.578  0.00  0.00    +0.000 A 
ATOM     25  C   UNL     1      -0.781  18.568  16.955  0.00  0.00    +0.000 A 
ATOM     26  C   UNL     1      -1.120  18.029  18.219  0.00  0.00    +0.000 A 
ATOM     27  N   UNL     1      -2.344  18.056  18.765  0.00  0.00    +0.000 NA
ATOM     28  S   UNL     1      -2.207  17.345  20.258  0.00  0.00    +0.000 S 
ATOM     29  N   UNL     1      -0.600  16.937  20.264  0.00  0.00    +0.000 NA
ATOM     30  C   UNL     1      -0.074  17.368  19.106  0.00  0.00    +0.000 A 
ENDBRANCH  19  22
ENDBRANCH   4  19
TORSDOF 6
ENDMDL
MODEL 5
REMARK VINA RESULT:      -7.1      4.217      6.931
REMARK  Name = 
REMARK  7 active torsions:
REMARK  status: ('A' for Active; 'I' for Inactive)
REMARK    1  A    between atoms: C_1  and  C_2
REMARK    2  A    between atoms: C_2  and  N_3
REMARK    3  A    between atoms: N_3  and  C_4
REMARK    4  A    between atoms: C_4  and  C_5
REMARK    5  A    between atoms: C_11  and  C_13
REMARK    6  A    between atoms: N_16  and  S_17
REMARK    7  A    between atoms: S_17  and  C_20
REMARK                            x       y       z     vdW  Elec       q    Type
REMARK                         _______ _______ _______ _____ _____    ______ ____
ROOT
ATOM      1  C   UNL     1      -1.105  12.538  20.394  0.00  0.00    +0.000 C 
ATOM      2  C   UNL     1      -1.414  11.417  19.369  0.00  0.00    +0.000 C 
ATOM      3  C   UNL     1      -0.964  10.030  19.865  0.00  0.00    +0.000 C 
ATOM      4  N   UNL     1       0.486  10.005  20.225  0.00  0.00    +0.000 NA
ATOM      5  C   UNL     1       0.901  11.167  21.081  0.00  0.00    +0.000 C 
ATOM      6  C   UNL     1       0.404  12.513  20.593  0.00  0.00    +0.000 C 
ENDROOT
BRANCH   1   8
ATOM      7  N   UNL     1      -3.256  12.933  21.764  0.00  0.00    +0.000 N 
ATOM      8  C   UNL     1      -2.001  12.343  21.638  0.00  0.00    +0.000 C 
ATOM      9  O   UNL     1      -1.572  11.581  22.510  0.00  0.00    +0.000 OA
BRANCH   7  11
ATOM     10  C   UNL     1      -4.854  13.732  23.672  0.00  0.00    +0.000 C 
ATOM     11  C   UNL     1      -4.095  12.617  22.951  0.00  0.00    +0.000 C 
ENDBRANCH   7  11
BRANCH   7  12
ATOM     12  C   UNL     1      -4.027  13.431  20.607  0.00  0.00    +0.000 C 
BRANCH  12  13
ATOM     13  C   UNL     1      -5.020  12.482  19.958  0.00  0.00    +0.000 A 
ATOM     14  C   UNL     1      -6.264  12.155  20.513  0.00  0.00    +0.000 A 
ATOM     15  C   UNL     1      -7.146  11.293  19.839  0.00  0.00    +0.000 A 
ATOM     16  C   UNL     1      -6.799  10.753  18.599  0.00  0.00    +0.000 A 
ATOM     17  C   UNL     1      -5.569  11.070  18.031  0.00  0.00    +0.000 A 
ATOM     18  C   UNL     1      -4.692  11.926  18.701  0.00  0.00    +0.000 A 
ENDBRANCH  12  13
ENDBRANCH   7  12
ENDBRANCH   1   8
BRANCH   4  19
ATOM     19  S   UNL     1       0.995   8.544  21.033  0.00  0.00    +0.000 S 
ATOM     20  O   UNL     1       1.822   8.916  22.160  0.00  0.00    +0.000 OA
ATOM     21  O   UNL     1      -0.220   7.783  21.280  0.00  0.00    +0.000 OA
BRANCH  19  22
ATOM     22  C   UNL     1       1.984   7.578  19.943  0.00  0.00    +0.000 A 
ATOM     23  C   UNL     1       2.397   8.129  18.703  0.00  0.00    +0.000 A 
ATOM     24  C   UNL     1       2.977   7.371  17.658  0.00  0.00    +0.000 A 
ATOM     25  C   UNL     1       3.194   5.990  17.753  0.00  0.00    +0.000 A 
ATOM     26  C   UNL     1       2.797   5.377  18.966  0.00  0.00    +0.000 A 
ATOM     27  N   UNL     1       2.898   4.068  19.238  0.00  0.00    +0.000 NA
ATOM     28  S   UNL     1       2.261   3.853  20.754  0.00  0.00    +0.000 S 
ATOM     29  N   UNL     1       1.862   5.413  21.150  0.00  0.00    +0.000 NA
ATOM     30  C   UNL     1       2.177   6.185  20.097  0.00  0.00    +0.000 A 
ENDBRANCH  19  22
ENDBRANCH   4  19
TORSDOF 6
ENDMDL
MODEL 6
REMARK VINA RESULT:      -7.0      4.505      9.317
REMARK  Name = 
REMARK  7 active torsions:
REMARK  status: ('A' for Active; 'I' for Inactive)
REMARK    1  A    between atoms: C_1  and  C_2
REMARK    2  A    between atoms: C_2  and  N_3
REMARK    3  A    between atoms: N_3  and  C_4
REMARK    4  A    between atoms: C_4  and  C_5
REMARK    5  A    between atoms: C_11  and  C_13
REMARK    6  A    between atoms: N_16  and  S_17
REMARK    7  A    between atoms: S_17  and  C_20
REMARK                            x       y       z     vdW  Elec       q    Type
REMARK                         _______ _______ _______ _____ _____    ______ ____
ROOT
ATOM      1  C   UNL     1       1.184   8.041  21.134  0.00  0.00    +0.000 C 
ATOM      2  C   UNL     1      -0.357   8.204  21.113  0.00  0.00    +0.000 C 
ATOM      3  C   UNL     1      -0.790   9.633  20.733  0.00  0.00    +0.000 C 
ATOM      4  N   UNL     1      -0.181  10.662  21.629  0.00  0.00    +0.000 NA
ATOM      5  C   UNL     1       1.292  10.463  21.838  0.00  0.00    +0.000 C 
ATOM      6  C   UNL     1       1.693   9.038  22.165  0.00  0.00    +0.000 C 
ENDROOT
BRANCH   1   8
ATOM      7  N   UNL     1       2.748   7.355  19.198  0.00  0.00    +0.000 N 
ATOM      8  C   UNL     1       1.721   8.158  19.689  0.00  0.00    +0.000 C 
ATOM      9  O   UNL     1       1.153   8.974  18.957  0.00  0.00    +0.000 OA
BRANCH   7  11
ATOM     10  C   UNL     1       4.511   6.969  17.307  0.00  0.00    +0.000 C 
ATOM     11  C   UNL     1       3.139   7.466  17.767  0.00  0.00    +0.000 C 
ENDBRANCH   7  11
BRANCH   7  12
ATOM     12  C   UNL     1       3.126   6.070  19.820  0.00  0.00    +0.000 C 
BRANCH  12  13
ATOM     13  C   UNL     1       2.294   4.846  19.478  0.00  0.00    +0.000 A 
ATOM     14  C   UNL     1       2.382   4.157  18.261  0.00  0.00    +0.000 A 
ATOM     15  C   UNL     1       1.603   3.013  18.026  0.00  0.00    +0.000 A 
ATOM     16  C   UNL     1       0.731   2.536  19.007  0.00  0.00    +0.000 A 
ATOM     17  C   UNL     1       0.633   3.206  20.224  0.00  0.00    +0.000 A 
ATOM     18  C   UNL     1       1.407   4.345  20.456  0.00  0.00    +0.000 A 
ENDBRANCH  12  13
ENDBRANCH   7  12
ENDBRANCH   1   8
BRANCH   4  19
ATOM     19  S   UNL     1      -0.424  12.306  21.094  0.00  0.00    +0.000 S 
ATOM     20  O   UNL     1       0.148  13.190  22.085  0.00  0.00    +0.000 OA
ATOM     21  O   UNL     1       0.085  12.359  19.733  0.00  0.00    +0.000 OA
BRANCH  19  22
ATOM     22  C   UNL     1      -2.148  12.650  21.005  0.00  0.00    +0.000 A 
ATOM     23  C   UNL     1      -2.840  13.057  22.174  0.00  0.00    +0.000 A 
ATOM     24  C   UNL     1      -4.250  13.121  22.273  0.00  0.00    +0.000 A 
ATOM     25  C   UNL     1      -5.101  12.780  21.214  0.00  0.00    +0.000 A 
ATOM     26  C   UNL     1      -4.471  12.358  20.018  0.00  0.00    +0.000 A 
ATOM     27  N   UNL     1      -5.111  11.968  18.906  0.00  0.00    +0.000 NA
ATOM     28  S   UNL     1      -3.937  11.533  17.818  0.00  0.00    +0.000 S 
ATOM     29  N   UNL     1      -2.566  11.856  18.691  0.00  0.00    +0.000 NA
ATOM     30  C   UNL     1      -2.955  12.291  19.900  0.00  0.00    +0.000 A 
ENDBRANCH  19  22
ENDBRANCH   4  19
TORSDOF 6
ENDMDL
MODEL 7
REMARK VINA RESULT:      -7.0      4.963      9.655
REMARK  Name = 
REMARK  7 active torsions:
REMARK  status: ('A' for Active; 'I' for Inactive)
REMARK    1  A    between atoms: C_1  and  C_2
REMARK    2  A    between atoms: C_2  and  N_3
REMARK    3  A    between atoms: N_3  and  C_4
REMARK    4  A    between atoms: C_4  and  C_5
REMARK    5  A    between atoms: C_11  and  C_13
REMARK    6  A    between atoms: N_16  and  S_17
REMARK    7  A    between atoms: S_17  and  C_20
REMARK                            x       y       z     vdW  Elec       q    Type
REMARK                         _______ _______ _______ _____ _____    ______ ____
ROOT
ATOM      1  C   UNL     1       1.249   8.354  21.236  0.00  0.00    +0.000 C 
ATOM      2  C   UNL     1      -0.296   8.253  21.310  0.00  0.00    +0.000 C 
ATOM      3  C   UNL     1      -0.992   9.522  20.783  0.00  0.00    +0.000 C 
ATOM      4  N   UNL     1      -0.528  10.752  21.491  0.00  0.00    +0.000 NA
ATOM      5  C   UNL     1       0.966  10.834  21.613  0.00  0.00    +0.000 C 
ATOM      6  C   UNL     1       1.627   9.555  22.090  0.00  0.00    +0.000 C 
ENDROOT
BRANCH   1   8
ATOM      7  N   UNL     1       2.639   7.482  19.243  0.00  0.00    +0.000 N 
ATOM      8  C   UNL     1       1.682   8.357  19.752  0.00  0.00    +0.000 C 
ATOM      9  O   UNL     1       1.091   9.147  19.009  0.00  0.00    +0.000 OA
BRANCH   7  11
ATOM     10  C   UNL     1       4.291   7.017  17.271  0.00  0.00    +0.000 C 
ATOM     11  C   UNL     1       2.927   7.486  17.784  0.00  0.00    +0.000 C 
ENDBRANCH   7  11
BRANCH   7  12
ATOM     12  C   UNL     1       3.015   6.224  19.920  0.00  0.00    +0.000 C 
BRANCH  12  13
ATOM     13  C   UNL     1       2.199   4.981  19.609  0.00  0.00    +0.000 A 
ATOM     14  C   UNL     1       2.066   4.437  18.325  0.00  0.00    +0.000 A 
ATOM     15  C   UNL     1       1.319   3.265  18.117  0.00  0.00    +0.000 A 
ATOM     16  C   UNL     1       0.703   2.618  19.190  0.00  0.00    +0.000 A 
ATOM     17  C   UNL     1       0.827   3.143  20.473  0.00  0.00    +0.000 A 
ATOM     18  C   UNL     1       1.568   4.309  20.679  0.00  0.00    +0.000 A 
ENDBRANCH  12  13
ENDBRANCH   7  12
ENDBRANCH   1   8
BRANCH   4  19
ATOM     19  S   UNL     1      -1.083  12.242  20.770  0.00  0.00    +0.000 S 
ATOM     20  O   UNL     1      -0.470  13.342  21.481  0.00  0.00    +0.000 OA
ATOM     21  O   UNL     1      -0.836  12.108  19.344  0.00  0.00    +0.000 OA
BRANCH  19  22
ATOM     22  C   UNL     1      -2.826  12.383  20.971  0.00  0.00    +0.000 A 
ATOM     23  C   UNL     1      -3.631  12.739  19.858  0.00  0.00    +0.000 A 
ATOM     24  C   UNL     1      -4.991  13.116  19.957  0.00  0.00    +0.000 A 
ATOM     25  C   UNL     1      -5.673  13.179  21.179  0.00  0.00    +0.000 A 
ATOM     26  C   UNL     1      -4.923  12.842  22.331  0.00  0.00    +0.000 A 
ATOM     27  N   UNL     1      -5.389  12.866  23.588  0.00  0.00    +0.000 NA
ATOM     28  S   UNL     1      -4.121  12.437  24.567  0.00  0.00    +0.000 S 
ATOM     29  N   UNL     1      -2.935  12.165  23.440  0.00  0.00    +0.000 NA
ATOM     30  C   UNL     1      -3.461  12.430  22.234  0.00  0.00    +0.000 A 
ENDBRANCH  19  22
ENDBRANCH   4  19
TORSDOF 6
ENDMDL
MODEL 8
REMARK VINA RESULT:      -7.0      3.038      7.625
REMARK  Name = 
REMARK  7 active torsions:
REMARK  status: ('A' for Active; 'I' for Inactive)
REMARK    1  A    between atoms: C_1  and  C_2
REMARK    2  A    between atoms: C_2  and  N_3
REMARK    3  A    between atoms: N_3  and  C_4
REMARK    4  A    between atoms: C_4  and  C_5
REMARK    5  A    between atoms: C_11  and  C_13
REMARK    6  A    between atoms: N_16  and  S_17
REMARK    7  A    between atoms: S_17  and  C_20
REMARK                            x       y       z     vdW  Elec       q    Type
REMARK                         _______ _______ _______ _____ _____    ______ ____
ROOT
ATOM      1  C   UNL     1       3.644   3.832  18.567  0.00  0.00    +0.000 C 
ATOM      2  C   UNL     1       2.138   3.974  18.904  0.00  0.00    +0.000 C 
ATOM      3  C   UNL     1       1.585   5.365  18.537  0.00  0.00    +0.000 C 
ATOM      4  N   UNL     1       2.358   6.466  19.186  0.00  0.00    +0.000 NA
ATOM      5  C   UNL     1       3.844   6.301  19.050  0.00  0.00    +0.000 C 
ATOM      6  C   UNL     1       4.353   4.910  19.373  0.00  0.00    +0.000 C 
ENDROOT
BRANCH   1   8
ATOM      7  N   UNL     1       5.022   4.173  16.411  0.00  0.00    +0.000 N 
ATOM      8  C   UNL     1       3.818   3.845  17.031  0.00  0.00    +0.000 C 
ATOM      9  O   UNL     1       2.841   3.492  16.364  0.00  0.00    +0.000 OA
BRANCH   7  11
ATOM     10  C   UNL     1       6.509   4.035  14.266  0.00  0.00    +0.000 C 
ATOM     11  C   UNL     1       5.132   4.068  14.932  0.00  0.00    +0.000 C 
ENDBRANCH   7  11
BRANCH   7  12
ATOM     12  C   UNL     1       6.322   4.123  17.109  0.00  0.00    +0.000 C 
BRANCH  12  13
ATOM     13  C   UNL     1       6.970   5.441  17.496  0.00  0.00    +0.000 A 
ATOM     14  C   UNL     1       6.798   6.634  16.781  0.00  0.00    +0.000 A 
ATOM     15  C   UNL     1       7.404   7.824  17.216  0.00  0.00    +0.000 A 
ATOM     16  C   UNL     1       8.182   7.840  18.375  0.00  0.00    +0.000 A 
ATOM     17  C   UNL     1       8.361   6.665  19.099  0.00  0.00    +0.000 A 
ATOM     18  C   UNL     1       7.760   5.482  18.666  0.00  0.00    +0.000 A 
ENDBRANCH  12  13
ENDBRANCH   7  12
ENDBRANCH   1   8
BRANCH   4  19
ATOM     19  S   UNL     1       1.947   8.061  18.610  0.00  0.00    +0.000 S 
ATOM     20  O   UNL     1       3.165   8.717  18.191  0.00  0.00    +0.000 OA
ATOM     21  O   UNL     1       0.886   7.869  17.634  0.00  0.00    +0.000 OA
BRANCH  19  22
ATOM     22  C   UNL     1       1.258   9.007  19.926  0.00  0.00    +0.000 A 
ATOM     23  C   UNL     1       1.164   8.435  21.221  0.00  0.00    +0.000 A 
ATOM     24  C   UNL     1       0.416   9.003  22.280  0.00  0.00    +0.000 A 
ATOM     25  C   UNL     1      -0.312  10.192  22.142  0.00  0.00    +0.000 A 
ATOM     26  C   UNL     1      -0.264  10.810  20.869  0.00  0.00    +0.000 A 
ATOM     27  N   UNL     1      -0.911  11.935  20.534  0.00  0.00    +0.000 NA
ATOM     28  S   UNL     1      -0.570  12.214  18.935  0.00  0.00    +0.000 S 
ATOM     29  N   UNL     1       0.444  10.943  18.605  0.00  0.00    +0.000 NA
ATOM     30  C   UNL     1       0.542  10.210  19.726  0.00  0.00    +0.000 A 
ENDBRANCH  19  22
ENDBRANCH   4  19
TORSDOF 6
ENDMDL
MODEL 9
REMARK VINA RESULT:      -6.9      5.001     10.053
REMARK  Name = 
REMARK  7 active torsions:
REMARK  status: ('A' for Active; 'I' for Inactive)
REMARK    1  A    between atoms: C_1  and  C_2
REMARK    2  A    between atoms: C_2  and  N_3
REMARK    3  A    between atoms: N_3  and  C_4
REMARK    4  A    between atoms: C_4  and  C_5
REMARK    5  A    between atoms: C_11  and  C_13
REMARK    6  A    between atoms: N_16  and  S_17
REMARK    7  A    between atoms: S_17  and  C_20
REMARK                            x       y       z     vdW  Elec       q    Type
REMARK                         _______ _______ _______ _____ _____    ______ ____
ROOT
ATOM      1  C   UNL     1       1.133   9.676  18.182  0.00  0.00    +0.000 C 
ATOM      2  C   UNL     1       1.776  11.040  18.539  0.00  0.00    +0.000 C 
ATOM      3  C   UNL     1       1.271  11.591  19.886  0.00  0.00    +0.000 C 
ATOM      4  N   UNL     1      -0.218  11.705  19.923  0.00  0.00    +0.000 NA
ATOM      5  C   UNL     1      -0.916  10.474  19.421  0.00  0.00    +0.000 C 
ATOM      6  C   UNL     1      -0.366   9.929  18.118  0.00  0.00    +0.000 C 
ENDROOT
BRANCH   1   8
ATOM      7  N   UNL     1       2.301   7.448  18.759  0.00  0.00    +0.000 N 
ATOM      8  C   UNL     1       1.644   8.605  19.171  0.00  0.00    +0.000 C 
ATOM      9  O   UNL     1       1.491   8.849  20.372  0.00  0.00    +0.000 OA
BRANCH   7  11
ATOM     10  C   UNL     1       2.001   5.337  20.271  0.00  0.00    +0.000 C 
ATOM     11  C   UNL     1       2.846   6.515  19.781  0.00  0.00    +0.000 C 
ENDBRANCH   7  11
BRANCH   7  12
ATOM     12  C   UNL     1       2.944   7.321  17.435  0.00  0.00    +0.000 C 
BRANCH  12  13
ATOM     13  C   UNL     1       4.158   6.415  17.322  0.00  0.00    +0.000 A 
ATOM     14  C   UNL     1       4.083   5.032  17.112  0.00  0.00    +0.000 A 
ATOM     15  C   UNL     1       5.251   4.262  16.986  0.00  0.00    +0.000 A 
ATOM     16  C   UNL     1       6.508   4.864  17.061  0.00  0.00    +0.000 A 
ATOM     17  C   UNL     1       6.602   6.237  17.266  0.00  0.00    +0.000 A 
ATOM     18  C   UNL     1       5.441   7.003  17.392  0.00  0.00    +0.000 A 
ENDBRANCH  12  13
ENDBRANCH   7  12
ENDBRANCH   1   8
BRANCH   4  19
ATOM     19  S   UNL     1      -0.866  12.076  21.501  0.00  0.00    +0.000 S 
ATOM     20  O   UNL     1      -0.644  10.933  22.359  0.00  0.00    +0.000 OA
ATOM     21  O   UNL     1      -0.286  13.355  21.877  0.00  0.00    +0.000 OA
BRANCH  19  22
ATOM     22  C   UNL     1      -2.605  12.323  21.384  0.00  0.00    +0.000 A 
ATOM     23  C   UNL     1      -3.166  12.768  20.159  0.00  0.00    +0.000 A 
ATOM     24  C   UNL     1      -4.497  13.229  20.023  0.00  0.00    +0.000 A 
ATOM     25  C   UNL     1      -5.390  13.295  21.101  0.00  0.00    +0.000 A 
ATOM     26  C   UNL     1      -4.889  12.871  22.355  0.00  0.00    +0.000 A 
ATOM     27  N   UNL     1      -5.579  12.883  23.504  0.00  0.00    +0.000 NA
ATOM     28  S   UNL     1      -4.541  12.339  24.679  0.00  0.00    +0.000 S 
ATOM     29  N   UNL     1      -3.184  12.029  23.779  0.00  0.00    +0.000 NA
ATOM     30  C   UNL     1      -3.461  12.368  22.510  0.00  0.00    +0.000 A 
ENDBRANCH  19  22
ENDBRANCH   4  19
TORSDOF 6
ENDMDL
