MODEL 1
REMARK VINA RESULT:      -7.7      0.000      0.000
REMARK  Name = 
REMARK  11 active torsions:
REMARK  status: ('A' for Active; 'I' for Inactive)
REMARK    1  A    between atoms: C_1  and  C_2
REMARK    2  A    between atoms: C_3  and  C_4
REMARK    3  A    between atoms: C_4  and  O_5
REMARK    4  A    between atoms: C_4  and  C_6
REMARK    5  A    between atoms: C_6  and  N_7
REMARK    6  A    between atoms: N_7  and  C_8
REMARK    7  A    between atoms: N_11  and  C_12
REMARK    8  A    between atoms: C_12  and  C_13
REMARK    9  A    between atoms: C_13  and  O_14
REMARK   10  A    between atoms: C_13  and  C_15
REMARK   11  A    between atoms: C_18  and  C_19
REMARK                            x       y       z     vdW  Elec       q    Type
REMARK                         _______ _______ _______ _____ _____    ______ ____
ROOT
ATOM      1  N   UNL     1       8.044   8.025  17.222  0.00  0.00    +0.000 NA
ATOM      2  H   UNL     1       8.977   7.666  17.437  0.00  0.00    +0.000 HD
ENDROOT
BRANCH   1   3
ATOM      3  C   UNL     1       7.008   7.141  17.779  0.00  0.00    +0.000 C 
ATOM      4  C   UNL     1       7.626   6.061  18.665  0.00  0.00    +0.000 C 
ATOM      5  C   UNL     1       7.504   4.799  17.824  0.00  0.00    +0.000 C 
ATOM      6  N   UNL     1       6.209   4.929  17.123  0.00  0.00    +0.000 NA
ATOM      7  C   UNL     1       6.225   6.340  16.702  0.00  0.00    +0.000 C 
BRANCH   6   8
ATOM      8  C   UNL     1       5.084   4.608  18.030  0.00  0.00    +0.000 C 
BRANCH   8   9
ATOM      9  C   UNL     1       3.660   4.978  17.523  0.00  0.00    +0.000 C 
BRANCH   9  10
ATOM     10  C   UNL     1       2.946   5.857  18.538  0.00  0.00    +0.000 A 
ATOM     11  C   UNL     1       2.476   5.309  19.730  0.00  0.00    +0.000 A 
ATOM     12  C   UNL     1       1.826   6.138  20.644  0.00  0.00    +0.000 A 
ATOM     13  C   UNL     1       1.671   7.491  20.351  0.00  0.00    +0.000 A 
ATOM     14  C   UNL     1       2.180   7.962  19.156  0.00  0.00    +0.000 A 
ATOM     15  N   UNL     1       2.814   7.180  18.253  0.00  0.00    +0.000 NA
BRANCH  13  16
ATOM     16  C   UNL     1       1.008   8.378  21.256  0.00  0.00    +0.000 C 
ATOM     17  N   UNL     1       0.466   9.096  21.982  0.00  0.00    +0.000 NA
ENDBRANCH  13  16
ENDBRANCH   9  10
BRANCH   9  18
ATOM     18  O   UNL     1       2.851   3.827  17.273  0.00  0.00    +0.000 OA
ATOM     19  H   UNL     1       2.310   3.697  18.070  0.00  0.00    +0.000 HD
ENDBRANCH   9  18
ENDBRANCH   8   9
ENDBRANCH   6   8
ENDBRANCH   1   3
BRANCH   1  20
ATOM     20  C   UNL     1       7.925   9.374  17.789  0.00  0.00    +0.000 C 
BRANCH  20  21
ATOM     21  C   UNL     1       9.215   9.938  18.439  0.00  0.00    +0.000 C 
BRANCH  21  24
ATOM     22  C   UNL     1      11.819  11.413  19.077  0.00  0.00    +0.000 C 
ATOM     23  C   UNL     1      10.583  12.120  18.587  0.00  0.00    +0.000 A 
ATOM     24  C   UNL     1       9.362  11.459  18.286  0.00  0.00    +0.000 A 
ATOM     25  C   UNL     1       8.264  12.242  17.820  0.00  0.00    +0.000 A 
ATOM     26  C   UNL     1       8.347  13.622  17.656  0.00  0.00    +0.000 A 
ATOM     27  C   UNL     1       9.543  14.223  17.967  0.00  0.00    +0.000 A 
ATOM     28  C   UNL     1      10.634  13.508  18.419  0.00  0.00    +0.000 A 
ATOM     29  C   UNL     1      11.742  14.463  18.653  0.00  0.00    +0.000 C 
ATOM     30  O   UNL     1      11.176  15.744  18.299  0.00  0.00    +0.000 OA
ATOM     31  C   UNL     1       9.881  15.636  17.889  0.00  0.00    +0.000 C 
ATOM     32  O   UNL     1       9.147  16.535  17.533  0.00  0.00    +0.000 OA
ENDBRANCH  21  24
BRANCH  21  33
ATOM     33  O   UNL     1       9.188   9.586  19.827  0.00  0.00    +0.000 OA
ATOM     34  H   UNL     1       9.253  10.408  20.339  0.00  0.00    +0.000 HD
ENDBRANCH  21  33
ENDBRANCH  20  21
ENDBRANCH   1  20
TORSDOF 10
ENDMDL
MODEL 2
REMARK VINA RESULT:      -7.7      6.149      8.373
REMARK  Name = 
REMARK  11 active torsions:
REMARK  status: ('A' for Active; 'I' for Inactive)
REMARK    1  A    between atoms: C_1  and  C_2
REMARK    2  A    between atoms: C_3  and  C_4
REMARK    3  A    between atoms: C_4  and  O_5
REMARK    4  A    between atoms: C_4  and  C_6
REMARK    5  A    between atoms: C_6  and  N_7
REMARK    6  A    between atoms: N_7  and  C_8
REMARK    7  A    between atoms: N_11  and  C_12
REMARK    8  A    between atoms: C_12  and  C_13
REMARK    9  A    between atoms: C_13  and  O_14
REMARK   10  A    between atoms: C_13  and  C_15
REMARK   11  A    between atoms: C_18  and  C_19
REMARK                            x       y       z     vdW  Elec       q    Type
REMARK                         _______ _______ _______ _____ _____    ______ ____
ROOT
ATOM      1  N   UNL     1       2.352   7.307  20.071  0.00  0.00    +0.000 NA
ATOM      2  H   UNL     1       1.418   7.192  20.471  0.00  0.00    +0.000 HD
ENDROOT
BRANCH   1   3
ATOM      3  C   UNL     1       2.857   6.024  19.558  0.00  0.00    +0.000 C 
ATOM      4  C   UNL     1       2.106   5.603  18.297  0.00  0.00    +0.000 C 
ATOM      5  C   UNL     1       1.222   4.460  18.773  0.00  0.00    +0.000 C 
ATOM      6  N   UNL     1       2.038   3.733  19.768  0.00  0.00    +0.000 NA
ATOM      7  C   UNL     1       2.646   4.834  20.535  0.00  0.00    +0.000 C 
BRANCH   6   8
ATOM      8  C   UNL     1       3.040   2.872  19.099  0.00  0.00    +0.000 C 
BRANCH   8   9
ATOM      9  C   UNL     1       4.533   3.176  19.414  0.00  0.00    +0.000 C 
BRANCH   9  10
ATOM     10  C   UNL     1       5.246   3.678  18.168  0.00  0.00    +0.000 A 
ATOM     11  C   UNL     1       4.619   3.605  16.926  0.00  0.00    +0.000 A 
ATOM     12  C   UNL     1       5.296   4.074  15.800  0.00  0.00    +0.000 A 
ATOM     13  C   UNL     1       6.573   4.612  15.942  0.00  0.00    +0.000 A 
ATOM     14  C   UNL     1       7.119   4.665  17.209  0.00  0.00    +0.000 A 
ATOM     15  N   UNL     1       6.485   4.217  18.318  0.00  0.00    +0.000 NA
BRANCH  13  16
ATOM     16  C   UNL     1       7.305   5.101  14.816  0.00  0.00    +0.000 C 
ATOM     17  N   UNL     1       7.903   5.491  13.907  0.00  0.00    +0.000 NA
ENDBRANCH  13  16
ENDBRANCH   9  10
BRANCH   9  18
ATOM     18  O   UNL     1       5.234   2.033  19.907  0.00  0.00    +0.000 OA
ATOM     19  H   UNL     1       5.340   2.172  20.864  0.00  0.00    +0.000 HD
ENDBRANCH   9  18
ENDBRANCH   8   9
ENDBRANCH   6   8
ENDBRANCH   1   3
BRANCH   1  20
ATOM     20  C   UNL     1       2.274   8.297  18.990  0.00  0.00    +0.000 C 
BRANCH  20  21
ATOM     21  C   UNL     1       0.870   8.909  18.749  0.00  0.00    +0.000 C 
BRANCH  21  24
ATOM     22  C   UNL     1      -0.593   8.533  21.410  0.00  0.00    +0.000 C 
ATOM     23  C   UNL     1      -0.133   9.879  20.919  0.00  0.00    +0.000 A 
ATOM     24  C   UNL     1       0.546  10.082  19.688  0.00  0.00    +0.000 A 
ATOM     25  C   UNL     1       0.938  11.409  19.339  0.00  0.00    +0.000 A 
ATOM     26  C   UNL     1       0.677  12.504  20.157  0.00  0.00    +0.000 A 
ATOM     27  C   UNL     1       0.010  12.266  21.335  0.00  0.00    +0.000 A 
ATOM     28  C   UNL     1      -0.388  11.000  21.717  0.00  0.00    +0.000 A 
ATOM     29  C   UNL     1      -1.070  11.111  23.027  0.00  0.00    +0.000 C 
ATOM     30  O   UNL     1      -1.017  12.522  23.327  0.00  0.00    +0.000 OA
ATOM     31  C   UNL     1      -0.384  13.230  22.350  0.00  0.00    +0.000 C 
ATOM     32  O   UNL     1      -0.190  14.429  22.321  0.00  0.00    +0.000 OA
ENDBRANCH  21  24
BRANCH  21  33
ATOM     33  O   UNL     1       0.817   9.345  17.385  0.00  0.00    +0.000 OA
ATOM     34  H   UNL     1       0.916  10.311  17.383  0.00  0.00    +0.000 HD
ENDBRANCH  21  33
ENDBRANCH  20  21
ENDBRANCH   1  20
TORSDOF 10
ENDMDL
MODEL 3
REMARK VINA RESULT:      -7.6      5.872      9.287
REMARK  Name = 
REMARK  11 active torsions:
REMARK  status: ('A' for Active; 'I' for Inactive)
REMARK    1  A    between atoms: C_1  and  C_2
REMARK    2  A    between atoms: C_3  and  C_4
REMARK    3  A    between atoms: C_4  and  O_5
REMARK    4  A    between atoms: C_4  and  C_6
REMARK    5  A    between atoms: C_6  and  N_7
REMARK    6  A    between atoms: N_7  and  C_8
REMARK    7  A    between atoms: N_11  and  C_12
REMARK    8  A    between atoms: C_12  and  C_13
REMARK    9  A    between atoms: C_13  and  O_14
REMARK   10  A    between atoms: C_13  and  C_15
REMARK   11  A    between atoms: C_18  and  C_19
REMARK                            x       y       z     vdW  Elec       q    Type
REMARK                         _______ _______ _______ _____ _____    ______ ____
ROOT
ATOM      1  N   UNL     1       1.708   8.847  19.519  0.00  0.00    +0.000 NA
ATOM      2  H   UNL     1       2.630   9.191  19.797  0.00  0.00    +0.000 HD
ENDROOT
BRANCH   1   3
ATOM      3  C   UNL     1       0.819   9.968  19.174  0.00  0.00    +0.000 C 
ATOM      4  C   UNL     1       1.594  11.282  19.107  0.00  0.00    +0.000 C 
ATOM      5  C   UNL     1       1.159  12.017  20.366  0.00  0.00    +0.000 C 
ATOM      6  N   UNL     1      -0.271  11.680  20.531  0.00  0.00    +0.000 NA
ATOM      7  C   UNL     1      -0.287  10.238  20.230  0.00  0.00    +0.000 C 
BRANCH   6   8
ATOM      8  C   UNL     1      -1.109  12.473  19.603  0.00  0.00    +0.000 C 
BRANCH   8   9
ATOM      9  C   UNL     1      -2.619  12.100  19.545  0.00  0.00    +0.000 C 
BRANCH   9  10
ATOM     10  C   UNL     1      -2.989  11.602  18.156  0.00  0.00    +0.000 A 
ATOM     11  C   UNL     1      -4.322  11.598  17.748  0.00  0.00    +0.000 A 
ATOM     12  C   UNL     1      -4.634  11.138  16.468  0.00  0.00    +0.000 A 
ATOM     13  C   UNL     1      -3.611  10.705  15.628  0.00  0.00    +0.000 A 
ATOM     14  C   UNL     1      -2.314  10.756  16.100  0.00  0.00    +0.000 A 
ATOM     15  N   UNL     1      -1.984  11.197  17.336  0.00  0.00    +0.000 NA
BRANCH  13  16
ATOM     16  C   UNL     1      -3.885  10.221  14.310  0.00  0.00    +0.000 C 
ATOM     17  N   UNL     1      -4.101   9.823  13.247  0.00  0.00    +0.000 NA
ENDBRANCH  13  16
ENDBRANCH   9  10
BRANCH   9  18
ATOM     18  O   UNL     1      -3.469  13.199  19.874  0.00  0.00    +0.000 OA
ATOM     19  H   UNL     1      -3.777  13.042  20.783  0.00  0.00    +0.000 HD
ENDBRANCH   9  18
ENDBRANCH   8   9
ENDBRANCH   6   8
ENDBRANCH   1   3
BRANCH   1  20
ATOM     20  C   UNL     1       1.875   7.952  18.368  0.00  0.00    +0.000 C 
BRANCH  20  21
ATOM     21  C   UNL     1       2.470   6.557  18.692  0.00  0.00    +0.000 C 
BRANCH  21  24
ATOM     22  C   UNL     1       2.766   3.760  17.488  0.00  0.00    +0.000 C 
ATOM     23  C   UNL     1       3.760   4.863  17.237  0.00  0.00    +0.000 A 
ATOM     24  C   UNL     1       3.647   6.168  17.785  0.00  0.00    +0.000 A 
ATOM     25  C   UNL     1       4.652   7.129  17.464  0.00  0.00    +0.000 A 
ATOM     26  C   UNL     1       5.734   6.831  16.640  0.00  0.00    +0.000 A 
ATOM     27  C   UNL     1       5.810   5.554  16.138  0.00  0.00    +0.000 A 
ATOM     28  C   UNL     1       4.862   4.591  16.419  0.00  0.00    +0.000 A 
ATOM     29  C   UNL     1       5.254   3.346  15.719  0.00  0.00    +0.000 C 
ATOM     30  O   UNL     1       6.480   3.699  15.043  0.00  0.00    +0.000 OA
ATOM     31  C   UNL     1       6.834   4.996  15.268  0.00  0.00    +0.000 C 
ATOM     32  O   UNL     1       7.811   5.575  14.838  0.00  0.00    +0.000 OA
ENDBRANCH  21  24
BRANCH  21  33
ATOM     33  O   UNL     1       2.892   6.576  20.062  0.00  0.00    +0.000 OA
ATOM     34  H   UNL     1       3.352   5.739  20.237  0.00  0.00    +0.000 HD
ENDBRANCH  21  33
ENDBRANCH  20  21
ENDBRANCH   1  20
TORSDOF 10
ENDMDL
MODEL 4
REMARK VINA RESULT:      -7.5      2.299      2.486
REMARK  Name = 
REMARK  11 active torsions:
REMARK  status: ('A' for Active; 'I' for Inactive)
REMARK    1  A    between atoms: C_1  and  C_2
REMARK    2  A    between atoms: C_3  and  C_4
REMARK    3  A    between atoms: C_4  and  O_5
REMARK    4  A    between atoms: C_4  and  C_6
REMARK    5  A    between atoms: C_6  and  N_7
REMARK    6  A    between atoms: N_7  and  C_8
REMARK    7  A    between atoms: N_11  and  C_12
REMARK    8  A    between atoms: C_12  and  C_13
REMARK    9  A    between atoms: C_13  and  O_14
REMARK   10  A    between atoms: C_13  and  C_15
REMARK   11  A    between atoms: C_18  and  C_19
REMARK                            x       y       z     vdW  Elec       q    Type
REMARK                         _______ _______ _______ _____ _____    ______ ____
ROOT
ATOM      1  N   UNL     1       8.688   7.940  18.637  0.00  0.00    +0.000 NA
ATOM      2  H   UNL     1       8.922   7.737  19.612  0.00  0.00    +0.000 HD
ENDROOT
BRANCH   1   3
ATOM      3  C   UNL     1       7.401   7.325  18.276  0.00  0.00    +0.000 C 
ATOM      4  C   UNL     1       7.261   5.938  18.899  0.00  0.00    +0.000 C 
ATOM      5  C   UNL     1       7.440   4.997  17.717  0.00  0.00    +0.000 C 
ATOM      6  N   UNL     1       6.784   5.679  16.581  0.00  0.00    +0.000 NA
ATOM      7  C   UNL     1       7.235   7.071  16.752  0.00  0.00    +0.000 C 
BRANCH   6   8
ATOM      8  C   UNL     1       5.312   5.535  16.660  0.00  0.00    +0.000 C 
BRANCH   8   9
ATOM      9  C   UNL     1       4.754   4.087  16.546  0.00  0.00    +0.000 C 
BRANCH   9  10
ATOM     10  C   UNL     1       4.019   3.700  17.820  0.00  0.00    +0.000 A 
ATOM     11  C   UNL     1       4.704   3.070  18.858  0.00  0.00    +0.000 A 
ATOM     12  C   UNL     1       4.005   2.727  20.016  0.00  0.00    +0.000 A 
ATOM     13  C   UNL     1       2.649   3.030  20.114  0.00  0.00    +0.000 A 
ATOM     14  C   UNL     1       2.046   3.670  19.049  0.00  0.00    +0.000 A 
ATOM     15  N   UNL     1       2.699   4.013  17.915  0.00  0.00    +0.000 NA
BRANCH  13  16
ATOM     16  C   UNL     1       1.893   2.693  21.280  0.00  0.00    +0.000 C 
ATOM     17  N   UNL     1       1.289   2.417  22.226  0.00  0.00    +0.000 NA
ENDBRANCH  13  16
ENDBRANCH   9  10
BRANCH   9  18
ATOM     18  O   UNL     1       5.778   3.121  16.303  0.00  0.00    +0.000 OA
ATOM     19  H   UNL     1       5.321   2.283  16.119  0.00  0.00    +0.000 HD
ENDBRANCH   9  18
ENDBRANCH   8   9
ENDBRANCH   6   8
ENDBRANCH   1   3
BRANCH   1  20
ATOM     20  C   UNL     1       8.625   9.397  18.470  0.00  0.00    +0.000 C 
BRANCH  20  21
ATOM     21  C   UNL     1       9.607  10.210  19.352  0.00  0.00    +0.000 C 
BRANCH  21  24
ATOM     22  C   UNL     1      12.287  11.663  19.611  0.00  0.00    +0.000 C 
ATOM     23  C   UNL     1      11.072  12.303  18.996  0.00  0.00    +0.000 A 
ATOM     24  C   UNL     1       9.816  11.652  18.866  0.00  0.00    +0.000 A 
ATOM     25  C   UNL     1       8.742  12.365  18.255  0.00  0.00    +0.000 A 
ATOM     26  C   UNL     1       8.880  13.670  17.789  0.00  0.00    +0.000 A 
ATOM     27  C   UNL     1      10.109  14.266  17.943  0.00  0.00    +0.000 A 
ATOM     28  C   UNL     1      11.179  13.617  18.525  0.00  0.00    +0.000 A 
ATOM     29  C   UNL     1      12.333  14.545  18.526  0.00  0.00    +0.000 C 
ATOM     30  O   UNL     1      11.814  15.743  17.907  0.00  0.00    +0.000 OA
ATOM     31  C   UNL     1      10.506  15.609  17.550  0.00  0.00    +0.000 C 
ATOM     32  O   UNL     1       9.802  16.443  17.015  0.00  0.00    +0.000 OA
ENDBRANCH  21  24
BRANCH  21  33
ATOM     33  O   UNL     1       9.085  10.214  20.687  0.00  0.00    +0.000 OA
ATOM     34  H   UNL     1       9.772   9.854  21.271  0.00  0.00    +0.000 HD
ENDBRANCH  21  33
ENDBRANCH  20  21
ENDBRANCH   1  20
TORSDOF 10
ENDMDL
MODEL 5
REMARK VINA RESULT:      -7.4      0.691      1.026
REMARK  Name = 
REMARK  11 active torsions:
REMARK  status: ('A' for Active; 'I' for Inactive)
REMARK    1  A    between atoms: C_1  and  C_2
REMARK    2  A    between atoms: C_3  and  C_4
REMARK    3  A    between atoms: C_4  and  O_5
REMARK    4  A    between atoms: C_4  and  C_6
REMARK    5  A    between atoms: C_6  and  N_7
REMARK    6  A    between atoms: N_7  and  C_8
REMARK    7  A    between atoms: N_11  and  C_12
REMARK    8  A    between atoms: C_12  and  C_13
REMARK    9  A    between atoms: C_13  and  O_14
REMARK   10  A    between atoms: C_13  and  C_15
REMARK   11  A    between atoms: C_18  and  C_19
REMARK                            x       y       z     vdW  Elec       q    Type
REMARK                         _______ _______ _______ _____ _____    ______ ____
ROOT
ATOM      1  N   UNL     1       8.191   8.210  17.367  0.00  0.00    +0.000 NA
ATOM      2  H   UNL     1       9.113   7.848  17.621  0.00  0.00    +0.000 HD
ENDROOT
BRANCH   1   3
ATOM      3  C   UNL     1       7.128   7.373  17.946  0.00  0.00    +0.000 C 
ATOM      4  C   UNL     1       7.714   6.142  18.635  0.00  0.00    +0.000 C 
ATOM      5  C   UNL     1       7.364   5.004  17.688  0.00  0.00    +0.000 C 
ATOM      6  N   UNL     1       6.024   5.341  17.162  0.00  0.00    +0.000 NA
ATOM      7  C   UNL     1       6.151   6.783  16.892  0.00  0.00    +0.000 C 
BRANCH   6   8
ATOM      8  C   UNL     1       4.973   5.029  18.158  0.00  0.00    +0.000 C 
BRANCH   8   9
ATOM      9  C   UNL     1       3.501   5.200  17.684  0.00  0.00    +0.000 C 
BRANCH   9  10
ATOM     10  C   UNL     1       2.830   6.339  18.437  0.00  0.00    +0.000 A 
ATOM     11  C   UNL     1       2.618   7.564  17.806  0.00  0.00    +0.000 A 
ATOM     12  C   UNL     1       2.000   8.592  18.520  0.00  0.00    +0.000 A 
ATOM     13  C   UNL     1       1.600   8.368  19.835  0.00  0.00    +0.000 A 
ATOM     14  C   UNL     1       1.830   7.121  20.383  0.00  0.00    +0.000 A 
ATOM     15  N   UNL     1       2.428   6.108  19.715  0.00  0.00    +0.000 NA
BRANCH  13  16
ATOM     16  C   UNL     1       0.966   9.393  20.605  0.00  0.00    +0.000 C 
ATOM     17  N   UNL     1       0.453  10.216  21.234  0.00  0.00    +0.000 NA
ENDBRANCH  13  16
ENDBRANCH   9  10
BRANCH   9  18
ATOM     18  O   UNL     1       2.724   4.016  17.870  0.00  0.00    +0.000 OA
ATOM     19  H   UNL     1       3.156   3.323  17.342  0.00  0.00    +0.000 HD
ENDBRANCH   9  18
ENDBRANCH   8   9
ENDBRANCH   6   8
ENDBRANCH   1   3
BRANCH   1  20
ATOM     20  C   UNL     1       8.083   9.589  17.859  0.00  0.00    +0.000 C 
BRANCH  20  21
ATOM     21  C   UNL     1       9.345  10.141  18.571  0.00  0.00    +0.000 C 
BRANCH  21  24
ATOM     22  C   UNL     1      12.042  11.510  19.032  0.00  0.00    +0.000 C 
ATOM     23  C   UNL     1      10.815  12.260  18.586  0.00  0.00    +0.000 A 
ATOM     24  C   UNL     1       9.551  11.649  18.367  0.00  0.00    +0.000 A 
ATOM     25  C   UNL     1       8.466  12.469  17.935  0.00  0.00    +0.000 A 
ATOM     26  C   UNL     1       8.602  13.839  17.727  0.00  0.00    +0.000 A 
ATOM     27  C   UNL     1       9.839  14.392  17.959  0.00  0.00    +0.000 A 
ATOM     28  C   UNL     1      10.919  13.640  18.375  0.00  0.00    +0.000 A 
ATOM     29  C   UNL     1      12.079  14.548  18.524  0.00  0.00    +0.000 C 
ATOM     30  O   UNL     1      11.553  15.844  18.163  0.00  0.00    +0.000 OA
ATOM     31  C   UNL     1      10.235  15.785  17.822  0.00  0.00    +0.000 C 
ATOM     32  O   UNL     1       9.524  16.707  17.479  0.00  0.00    +0.000 OA
ENDBRANCH  21  24
BRANCH  21  33
ATOM     33  O   UNL     1       9.213   9.849  19.968  0.00  0.00    +0.000 OA
ATOM     34  H   UNL     1      10.109   9.761  20.333  0.00  0.00    +0.000 HD
ENDBRANCH  21  33
ENDBRANCH  20  21
ENDBRANCH   1  20
TORSDOF 10
ENDMDL
MODEL 6
REMARK VINA RESULT:      -7.4      6.315      9.282
REMARK  Name = 
REMARK  11 active torsions:
REMARK  status: ('A' for Active; 'I' for Inactive)
REMARK    1  A    between atoms: C_1  and  C_2
REMARK    2  A    between atoms: C_3  and  C_4
REMARK    3  A    between atoms: C_4  and  O_5
REMARK    4  A    between atoms: C_4  and  C_6
REMARK    5  A    between atoms: C_6  and  N_7
REMARK    6  A    between atoms: N_7  and  C_8
REMARK    7  A    between atoms: N_11  and  C_12
REMARK    8  A    between atoms: C_12  and  C_13
REMARK    9  A    between atoms: C_13  and  O_14
REMARK   10  A    between atoms: C_13  and  C_15
REMARK   11  A    between atoms: C_18  and  C_19
REMARK                            x       y       z     vdW  Elec       q    Type
REMARK                         _______ _______ _______ _____ _____    ______ ____
ROOT
ATOM      1  N   UNL     1       1.992   7.320  20.253  0.00  0.00    +0.000 NA
ATOM      2  H   UNL     1       1.073   7.058  20.617  0.00  0.00    +0.000 HD
ENDROOT
BRANCH   1   3
ATOM      3  C   UNL     1       2.628   6.176  19.581  0.00  0.00    +0.000 C 
ATOM      4  C   UNL     1       1.974   5.900  18.229  0.00  0.00    +0.000 C 
ATOM      5  C   UNL     1       1.172   4.632  18.474  0.00  0.00    +0.000 C 
ATOM      6  N   UNL     1       2.002   3.824  19.393  0.00  0.00    +0.000 NA
ATOM      7  C   UNL     1       2.478   4.835  20.351  0.00  0.00    +0.000 C 
BRANCH   6   8
ATOM      8  C   UNL     1       3.103   3.159  18.659  0.00  0.00    +0.000 C 
BRANCH   8   9
ATOM      9  C   UNL     1       4.547   3.607  19.026  0.00  0.00    +0.000 C 
BRANCH   9  10
ATOM     10  C   UNL     1       5.306   4.027  17.777  0.00  0.00    +0.000 A 
ATOM     11  C   UNL     1       4.639   4.141  16.558  0.00  0.00    +0.000 A 
ATOM     12  C   UNL     1       5.359   4.529  15.428  0.00  0.00    +0.000 A 
ATOM     13  C   UNL     1       6.720   4.802  15.544  0.00  0.00    +0.000 A 
ATOM     14  C   UNL     1       7.305   4.683  16.789  0.00  0.00    +0.000 A 
ATOM     15  N   UNL     1       6.630   4.308  17.900  0.00  0.00    +0.000 NA
BRANCH  13  16
ATOM     16  C   UNL     1       7.498   5.199  14.412  0.00  0.00    +0.000 C 
ATOM     17  N   UNL     1       8.120   5.519  13.492  0.00  0.00    +0.000 NA
ENDBRANCH  13  16
ENDBRANCH   9  10
BRANCH   9  18
ATOM     18  O   UNL     1       5.291   2.580  19.683  0.00  0.00    +0.000 OA
ATOM     19  H   UNL     1       4.785   1.758  19.560  0.00  0.00    +0.000 HD
ENDBRANCH   9  18
ENDBRANCH   8   9
ENDBRANCH   6   8
ENDBRANCH   1   3
BRANCH   1  20
ATOM     20  C   UNL     1       1.818   8.435  19.314  0.00  0.00    +0.000 C 
BRANCH  20  21
ATOM     21  C   UNL     1       1.063   9.667  19.878  0.00  0.00    +0.000 C 
BRANCH  21  24
ATOM     22  C   UNL     1      -1.042  11.624  20.925  0.00  0.00    +0.000 C 
ATOM     23  C   UNL     1      -1.159  10.943  19.588  0.00  0.00    +0.000 A 
ATOM     24  C   UNL     1      -0.198  10.029  19.079  0.00  0.00    +0.000 A 
ATOM     25  C   UNL     1      -0.420   9.457  17.791  0.00  0.00    +0.000 A 
ATOM     26  C   UNL     1      -1.541   9.758  17.023  0.00  0.00    +0.000 A 
ATOM     27  C   UNL     1      -2.452  10.639  17.556  0.00  0.00    +0.000 A 
ATOM     28  C   UNL     1      -2.280  11.221  18.797  0.00  0.00    +0.000 A 
ATOM     29  C   UNL     1      -3.438  12.108  19.051  0.00  0.00    +0.000 C 
ATOM     30  O   UNL     1      -4.250  11.966  17.865  0.00  0.00    +0.000 OA
ATOM     31  C   UNL     1      -3.695  11.108  16.964  0.00  0.00    +0.000 C 
ATOM     32  O   UNL     1      -4.144  10.788  15.882  0.00  0.00    +0.000 OA
ENDBRANCH  21  24
BRANCH  21  33
ATOM     33  O   UNL     1       0.716   9.374  21.237  0.00  0.00    +0.000 OA
ATOM     34  H   UNL     1       0.284  10.163  21.604  0.00  0.00    +0.000 HD
ENDBRANCH  21  33
ENDBRANCH  20  21
ENDBRANCH   1  20
TORSDOF 10
ENDMDL
MODEL 7
REMARK VINA RESULT:      -7.4      6.270      9.149
REMARK  Name = 
REMARK  11 active torsions:
REMARK  status: ('A' for Active; 'I' for Inactive)
REMARK    1  A    between atoms: C_1  and  C_2
REMARK    2  A    between atoms: C_3  and  C_4
REMARK    3  A    between atoms: C_4  and  O_5
REMARK    4  A    between atoms: C_4  and  C_6
REMARK    5  A    between atoms: C_6  and  N_7
REMARK    6  A    between atoms: N_7  and  C_8
REMARK    7  A    between atoms: N_11  and  C_12
REMARK    8  A    between atoms: C_12  and  C_13
REMARK    9  A    between atoms: C_13  and  O_14
REMARK   10  A    between atoms: C_13  and  C_15
REMARK   11  A    between atoms: C_18  and  C_19
REMARK                            x       y       z     vdW  Elec       q    Type
REMARK                         _______ _______ _______ _____ _____    ______ ____
ROOT
ATOM      1  N   UNL     1       3.086   8.174  18.022  0.00  0.00    +0.000 NA
ATOM      2  H   UNL     1       3.472   8.616  18.860  0.00  0.00    +0.000 HD
ENDROOT
BRANCH   1   3
ATOM      3  C   UNL     1       3.204   6.710  18.108  0.00  0.00    +0.000 C 
ATOM      4  C   UNL     1       1.830   6.045  18.065  0.00  0.00    +0.000 C 
ATOM      5  C   UNL     1       1.614   5.581  19.497  0.00  0.00    +0.000 C 
ATOM      6  N   UNL     1       2.947   5.145  19.965  0.00  0.00    +0.000 NA
ATOM      7  C   UNL     1       3.822   6.209  19.443  0.00  0.00    +0.000 C 
BRANCH   6   8
ATOM      8  C   UNL     1       3.281   3.806  19.428  0.00  0.00    +0.000 C 
BRANCH   8   9
ATOM      9  C   UNL     1       4.789   3.424  19.416  0.00  0.00    +0.000 C 
BRANCH   9  10
ATOM     10  C   UNL     1       5.432   3.840  18.102  0.00  0.00    +0.000 A 
ATOM     11  C   UNL     1       4.731   3.699  16.905  0.00  0.00    +0.000 A 
ATOM     12  C   UNL     1       5.345   4.089  15.715  0.00  0.00    +0.000 A 
ATOM     13  C   UNL     1       6.633   4.619  15.749  0.00  0.00    +0.000 A 
ATOM     14  C   UNL     1       7.254   4.743  16.976  0.00  0.00    +0.000 A 
ATOM     15  N   UNL     1       6.683   4.371  18.145  0.00  0.00    +0.000 NA
BRANCH  13  16
ATOM     16  C   UNL     1       7.301   5.029  14.553  0.00  0.00    +0.000 C 
ATOM     17  N   UNL     1       7.836   5.355  13.582  0.00  0.00    +0.000 NA
ENDBRANCH  13  16
ENDBRANCH   9  10
BRANCH   9  18
ATOM     18  O   UNL     1       5.001   2.023  19.600  0.00  0.00    +0.000 OA
ATOM     19  H   UNL     1       4.259   1.705  20.141  0.00  0.00    +0.000 HD
ENDBRANCH   9  18
ENDBRANCH   8   9
ENDBRANCH   6   8
ENDBRANCH   1   3
BRANCH   1  20
ATOM     20  C   UNL     1       1.678   8.569  17.897  0.00  0.00    +0.000 C 
BRANCH  20  21
ATOM     21  C   UNL     1       1.172   9.574  18.964  0.00  0.00    +0.000 C 
BRANCH  21  24
ATOM     22  C   UNL     1      -0.204  11.629  20.766  0.00  0.00    +0.000 C 
ATOM     23  C   UNL     1      -0.861  11.052  19.541  0.00  0.00    +0.000 A 
ATOM     24  C   UNL     1      -0.246  10.096  18.689  0.00  0.00    +0.000 A 
ATOM     25  C   UNL     1      -0.972   9.633  17.551  0.00  0.00    +0.000 A 
ATOM     26  C   UNL     1      -2.256  10.080  17.252  0.00  0.00    +0.000 A 
ATOM     27  C   UNL     1      -2.818  10.998  18.106  0.00  0.00    +0.000 A 
ATOM     28  C   UNL     1      -2.155  11.477  19.218  0.00  0.00    +0.000 A 
ATOM     29  C   UNL     1      -3.047  12.441  19.903  0.00  0.00    +0.000 C 
ATOM     30  O   UNL     1      -4.239  12.449  19.088  0.00  0.00    +0.000 OA
ATOM     31  C   UNL     1      -4.135  11.610  18.020  0.00  0.00    +0.000 C 
ATOM     32  O   UNL     1      -4.972  11.403  17.164  0.00  0.00    +0.000 OA
ENDBRANCH  21  24
BRANCH  21  33
ATOM     33  O   UNL     1       1.213   8.911  20.234  0.00  0.00    +0.000 OA
ATOM     34  H   UNL     1       0.699   9.447  20.860  0.00  0.00    +0.000 HD
ENDBRANCH  21  33
ENDBRANCH  20  21
ENDBRANCH   1  20
TORSDOF 10
ENDMDL
MODEL 8
REMARK VINA RESULT:      -7.3      4.912      7.541
REMARK  Name = 
REMARK  11 active torsions:
REMARK  status: ('A' for Active; 'I' for Inactive)
REMARK    1  A    between atoms: C_1  and  C_2
REMARK    2  A    between atoms: C_3  and  C_4
REMARK    3  A    between atoms: C_4  and  O_5
REMARK    4  A    between atoms: C_4  and  C_6
REMARK    5  A    between atoms: C_6  and  N_7
REMARK    6  A    between atoms: N_7  and  C_8
REMARK    7  A    between atoms: N_11  and  C_12
REMARK    8  A    between atoms: C_12  and  C_13
REMARK    9  A    between atoms: C_13  and  O_14
REMARK   10  A    between atoms: C_13  and  C_15
REMARK   11  A    between atoms: C_18  and  C_19
REMARK                            x       y       z     vdW  Elec       q    Type
REMARK                         _______ _______ _______ _____ _____    ______ ____
ROOT
ATOM      1  N   UNL     1       1.729   2.754  19.043  0.00  0.00    +0.000 NA
ATOM      2  H   UNL     1       2.366   2.380  19.751  0.00  0.00    +0.000 HD
ENDROOT
BRANCH   1   3
ATOM      3  C   UNL     1       1.217   4.072  19.451  0.00  0.00    +0.000 C 
ATOM      4  C   UNL     1       1.450   5.114  18.359  0.00  0.00    +0.000 C 
ATOM      5  C   UNL     1       2.578   5.968  18.917  0.00  0.00    +0.000 C 
ATOM      6  N   UNL     1       2.315   6.050  20.369  0.00  0.00    +0.000 NA
ATOM      7  C   UNL     1       1.936   4.665  20.694  0.00  0.00    +0.000 C 
BRANCH   6   8
ATOM      8  C   UNL     1       1.239   7.026  20.655  0.00  0.00    +0.000 C 
BRANCH   8   9
ATOM      9  C   UNL     1       1.587   8.525  20.421  0.00  0.00    +0.000 C 
BRANCH   9  10
ATOM     10  C   UNL     1       0.610   9.419  21.168  0.00  0.00    +0.000 A 
ATOM     11  C   UNL     1       0.327   9.177  22.511  0.00  0.00    +0.000 A 
ATOM     12  C   UNL     1      -0.572  10.014  23.173  0.00  0.00    +0.000 A 
ATOM     13  C   UNL     1      -1.155  11.075  22.483  0.00  0.00    +0.000 A 
ATOM     14  C   UNL     1      -0.811  11.259  21.159  0.00  0.00    +0.000 A 
ATOM     15  N   UNL     1       0.057  10.462  20.493  0.00  0.00    +0.000 NA
BRANCH  13  16
ATOM     16  C   UNL     1      -2.085  11.955  23.120  0.00  0.00    +0.000 C 
ATOM     17  N   UNL     1      -2.830  12.669  23.640  0.00  0.00    +0.000 NA
ENDBRANCH  13  16
ENDBRANCH   9  10
BRANCH   9  18
ATOM     18  O   UNL     1       1.563   8.884  19.038  0.00  0.00    +0.000 OA
ATOM     19  H   UNL     1       1.970   9.765  18.980  0.00  0.00    +0.000 HD
ENDBRANCH   9  18
ENDBRANCH   8   9
ENDBRANCH   6   8
ENDBRANCH   1   3
BRANCH   1  20
ATOM     20  C   UNL     1       2.458   2.857  17.773  0.00  0.00    +0.000 C 
BRANCH  20  21
ATOM     21  C   UNL     1       3.941   2.407  17.819  0.00  0.00    +0.000 C 
BRANCH  21  24
ATOM     22  C   UNL     1       5.060   3.692  15.278  0.00  0.00    +0.000 C 
ATOM     23  C   UNL     1       5.437   4.158  16.658  0.00  0.00    +0.000 A 
ATOM     24  C   UNL     1       4.934   3.578  17.853  0.00  0.00    +0.000 A 
ATOM     25  C   UNL     1       5.363   4.118  19.103  0.00  0.00    +0.000 A 
ATOM     26  C   UNL     1       6.254   5.184  19.190  0.00  0.00    +0.000 A 
ATOM     27  C   UNL     1       6.724   5.709  18.010  0.00  0.00    +0.000 A 
ATOM     28  C   UNL     1       6.337   5.223  16.777  0.00  0.00    +0.000 A 
ATOM     29  C   UNL     1       7.028   6.016  15.735  0.00  0.00    +0.000 C 
ATOM     30  O   UNL     1       7.818   6.963  16.487  0.00  0.00    +0.000 OA
ATOM     31  C   UNL     1       7.659   6.810  17.831  0.00  0.00    +0.000 C 
ATOM     32  O   UNL     1       8.192   7.454  18.712  0.00  0.00    +0.000 OA
ENDBRANCH  21  24
BRANCH  21  33
ATOM     33  O   UNL     1       4.107   1.589  18.984  0.00  0.00    +0.000 OA
ATOM     34  H   UNL     1       3.330   1.010  19.047  0.00  0.00    +0.000 HD
ENDBRANCH  21  33
ENDBRANCH  20  21
ENDBRANCH   1  20
TORSDOF 10
ENDMDL
MODEL 9
REMARK VINA RESULT:      -7.2      5.864      9.584
REMARK  Name = 
REMARK  11 active torsions:
REMARK  status: ('A' for Active; 'I' for Inactive)
REMARK    1  A    between atoms: C_1  and  C_2
REMARK    2  A    between atoms: C_3  and  C_4
REMARK    3  A    between atoms: C_4  and  O_5
REMARK    4  A    between atoms: C_4  and  C_6
REMARK    5  A    between atoms: C_6  and  N_7
REMARK    6  A    between atoms: N_7  and  C_8
REMARK    7  A    between atoms: N_11  and  C_12
REMARK    8  A    between atoms: C_12  and  C_13
REMARK    9  A    between atoms: C_13  and  O_14
REMARK   10  A    between atoms: C_13  and  C_15
REMARK   11  A    between atoms: C_18  and  C_19
REMARK                            x       y       z     vdW  Elec       q    Type
REMARK                         _______ _______ _______ _____ _____    ______ ____
ROOT
ATOM      1  N   UNL     1       1.993   7.709  21.031  0.00  0.00    +0.000 NA
ATOM      2  H   UNL     1       2.876   7.544  21.519  0.00  0.00    +0.000 HD
ENDROOT
BRANCH   1   3
ATOM      3  C   UNL     1       1.517   9.080  21.271  0.00  0.00    +0.000 C 
ATOM      4  C   UNL     1       1.066   9.260  22.719  0.00  0.00    +0.000 C 
ATOM      5  C   UNL     1      -0.451   9.318  22.615  0.00  0.00    +0.000 C 
ATOM      6  N   UNL     1      -0.721  10.052  21.361  0.00  0.00    +0.000 NA
ATOM      7  C   UNL     1       0.262   9.462  20.437  0.00  0.00    +0.000 C 
BRANCH   6   8
ATOM      8  C   UNL     1      -0.534  11.508  21.552  0.00  0.00    +0.000 C 
BRANCH   8   9
ATOM      9  C   UNL     1      -1.140  12.117  22.849  0.00  0.00    +0.000 C 
BRANCH   9  10
ATOM     10  C   UNL     1      -2.615  12.429  22.651  0.00  0.00    +0.000 A 
ATOM     11  C   UNL     1      -3.462  12.538  23.753  0.00  0.00    +0.000 A 
ATOM     12  C   UNL     1      -4.811  12.825  23.541  0.00  0.00    +0.000 A 
ATOM     13  C   UNL     1      -5.277  13.007  22.241  0.00  0.00    +0.000 A 
ATOM     14  C   UNL     1      -4.373  12.899  21.203  0.00  0.00    +0.000 A 
ATOM     15  N   UNL     1      -3.060  12.621  21.380  0.00  0.00    +0.000 NA
BRANCH  13  16
ATOM     16  C   UNL     1      -6.652  13.298  21.978  0.00  0.00    +0.000 C 
ATOM     17  N   UNL     1      -7.763  13.540  21.772  0.00  0.00    +0.000 NA
ENDBRANCH  13  16
ENDBRANCH   9  10
BRANCH   9  18
ATOM     18  O   UNL     1      -0.476  13.315  23.255  0.00  0.00    +0.000 OA
ATOM     19  H   UNL     1       0.192  13.047  23.910  0.00  0.00    +0.000 HD
ENDBRANCH   9  18
ENDBRANCH   8   9
ENDBRANCH   6   8
ENDBRANCH   1   3
BRANCH   1  20
ATOM     20  C   UNL     1       2.205   7.482  19.597  0.00  0.00    +0.000 C 
BRANCH  20  21
ATOM     21  C   UNL     1       2.392   6.001  19.178  0.00  0.00    +0.000 C 
BRANCH  21  24
ATOM     22  C   UNL     1       2.704   3.441  17.532  0.00  0.00    +0.000 C 
ATOM     23  C   UNL     1       3.676   4.587  17.445  0.00  0.00    +0.000 A 
ATOM     24  C   UNL     1       3.555   5.785  18.198  0.00  0.00    +0.000 A 
ATOM     25  C   UNL     1       4.539   6.803  18.018  0.00  0.00    +0.000 A 
ATOM     26  C   UNL     1       5.607   6.661  17.136  0.00  0.00    +0.000 A 
ATOM     27  C   UNL     1       5.692   5.483  16.434  0.00  0.00    +0.000 A 
ATOM     28  C   UNL     1       4.764   4.470  16.572  0.00  0.00    +0.000 A 
ATOM     29  C   UNL     1       5.158   3.361  15.674  0.00  0.00    +0.000 C 
ATOM     30  O   UNL     1       6.365   3.841  15.040  0.00  0.00    +0.000 OA
ATOM     31  C   UNL     1       6.704   5.090  15.466  0.00  0.00    +0.000 C 
ATOM     32  O   UNL     1       7.663   5.748  15.117  0.00  0.00    +0.000 OA
ENDBRANCH  21  24
BRANCH  21  33
ATOM     33  O   UNL     1       2.610   5.240  20.373  0.00  0.00    +0.000 OA
ATOM     34  H   UNL     1       3.505   5.444  20.690  0.00  0.00    +0.000 HD
ENDBRANCH  21  33
ENDBRANCH  20  21
ENDBRANCH   1  20
TORSDOF 10
ENDMDL
