MODEL 1
REMARK VINA RESULT:      -9.6      0.000      0.000
REMARK  Name = 
REMARK  5 active torsions:
REMARK  status: ('A' for Active; 'I' for Inactive)
REMARK    1  A    between atoms: C_1  and  C_2
REMARK    2  A    between atoms: C_5  and  C_6
REMARK    3  A    between atoms: C_7  and  C_8
REMARK    4  A    between atoms: N_11  and  C_12
REMARK    5  A    between atoms: C_12  and  C_13
REMARK                            x       y       z     vdW  Elec       q    Type
REMARK                         _______ _______ _______ _____ _____    ______ ____
ROOT
ATOM      1  C   UNL     1       4.631   4.962  17.056  0.00  0.00    +0.000 A 
ATOM      2  N   UNL     1       3.940   5.982  17.590  0.00  0.00    +0.000 NA
ATOM      3  C   UNL     1       2.862   5.672  18.329  0.00  0.00    +0.000 A 
ATOM      4  N   UNL     1       2.087   6.717  18.868  0.00  0.00    +0.000 N 
ATOM      5  C   UNL     1       2.461   4.342  18.547  0.00  0.00    +0.000 A 
ATOM      6  C   UNL     1       1.327   3.941  19.299  0.00  0.00    +0.000 A 
ATOM      7  C   UNL     1       0.985   2.596  19.417  0.00  0.00    +0.000 A 
ATOM      8  C   UNL     1       1.765   1.637  18.785  0.00  0.00    +0.000 A 
ATOM      9  C   UNL     1       2.884   2.032  18.049  0.00  0.00    +0.000 A 
ATOM     10  C   UNL     1       3.247   3.366  17.921  0.00  0.00    +0.000 A 
ATOM     11  N   UNL     1       4.322   3.666  17.191  0.00  0.00    +0.000 NA
ATOM     12  H   UNL     1       2.088   6.662  19.883  0.00  0.00    +0.000 HD
ENDROOT
BRANCH   1  19
ATOM     13  C   UNL     1       5.362   4.117  13.951  0.00  0.00    +0.000 C 
ATOM     14  C   UNL     1       6.143   4.911  14.929  0.00  0.00    +0.000 A 
ATOM     15  N   UNL     1       7.338   5.401  14.578  0.00  0.00    +0.000 NA
ATOM     16  O   UNL     1       7.801   6.091  15.679  0.00  0.00    +0.000 OA
ATOM     17  C   UNL     1       6.889   6.015  16.685  0.00  0.00    +0.000 A 
ATOM     18  C   UNL     1       7.258   6.713  17.932  0.00  0.00    +0.000 C 
ATOM     19  C   UNL     1       5.805   5.270  16.266  0.00  0.00    +0.000 A 
ENDBRANCH   1  19
BRANCH   4  20
ATOM     20  C   UNL     1       2.399   8.059  18.392  0.00  0.00    +0.000 C 
BRANCH  20  21
ATOM     21  C   UNL     1       1.429   9.078  18.961  0.00  0.00    +0.000 A 
ATOM     22  C   UNL     1       0.803   9.990  18.097  0.00  0.00    +0.000 A 
ATOM     23  C   UNL     1      -0.119  10.921  18.586  0.00  0.00    +0.000 A 
ATOM     24  C   UNL     1      -0.433  10.947  19.942  0.00  0.00    +0.000 A 
ATOM     25  C   UNL     1       0.156  10.030  20.808  0.00  0.00    +0.000 A 
ATOM     26  C   UNL     1       1.069   9.094  20.320  0.00  0.00    +0.000 A 
ENDBRANCH  20  21
ENDBRANCH   4  20
TORSDOF 3
ENDMDL
MODEL 2
REMARK VINA RESULT:      -9.5      1.278      1.280
REMARK  Name = 
REMARK  5 active torsions:
REMARK  status: ('A' for Active; 'I' for Inactive)
REMARK    1  A    between atoms: C_1  and  C_2
REMARK    2  A    between atoms: C_5  and  C_6
REMARK    3  A    between atoms: C_7  and  C_8
REMARK    4  A    between atoms: N_11  and  C_12
REMARK    5  A    between atoms: C_12  and  C_13
REMARK                            x       y       z     vdW  Elec       q    Type
REMARK                         _______ _______ _______ _____ _____    ______ ____
ROOT
ATOM      1  C   UNL     1       4.929   5.360  17.960  0.00  0.00    +0.000 A 
ATOM      2  N   UNL     1       4.088   6.372  18.229  0.00  0.00    +0.000 NA
ATOM      3  C   UNL     1       3.165   6.164  19.181  0.00  0.00    +0.000 A 
ATOM      4  N   UNL     1       2.236   7.187  19.459  0.00  0.00    +0.000 N 
ATOM      5  C   UNL     1       3.070   4.948  19.881  0.00  0.00    +0.000 A 
ATOM      6  C   UNL     1       2.112   4.652  20.884  0.00  0.00    +0.000 A 
ATOM      7  C   UNL     1       2.069   3.397  21.486  0.00  0.00    +0.000 A 
ATOM      8  C   UNL     1       2.976   2.422  21.093  0.00  0.00    +0.000 A 
ATOM      9  C   UNL     1       3.922   2.715  20.108  0.00  0.00    +0.000 A 
ATOM     10  C   UNL     1       3.987   3.961  19.498  0.00  0.00    +0.000 A 
ATOM     11  N   UNL     1       4.910   4.161  18.557  0.00  0.00    +0.000 NA
ATOM     12  H   UNL     1       2.334   7.492  20.424  0.00  0.00    +0.000 HD
ENDROOT
BRANCH   1  19
ATOM     13  C   UNL     1       5.100   4.172  14.886  0.00  0.00    +0.000 C 
ATOM     14  C   UNL     1       6.039   5.057  15.618  0.00  0.00    +0.000 A 
ATOM     15  N   UNL     1       7.150   5.488  15.008  0.00  0.00    +0.000 NA
ATOM     16  O   UNL     1       7.798   6.287  15.928  0.00  0.00    +0.000 OA
ATOM     17  C   UNL     1       7.080   6.334  17.081  0.00  0.00    +0.000 A 
ATOM     18  C   UNL     1       7.660   7.158  18.159  0.00  0.00    +0.000 C 
ATOM     19  C   UNL     1       5.942   5.564  16.945  0.00  0.00    +0.000 A 
ENDBRANCH   1  19
BRANCH   4  20
ATOM     20  C   UNL     1       2.220   8.309  18.529  0.00  0.00    +0.000 C 
BRANCH  20  21
ATOM     21  C   UNL     1       1.111   9.286  18.873  0.00  0.00    +0.000 A 
ATOM     22  C   UNL     1       0.188   9.657  17.882  0.00  0.00    +0.000 A 
ATOM     23  C   UNL     1      -0.863  10.531  18.175  0.00  0.00    +0.000 A 
ATOM     24  C   UNL     1      -1.012  11.038  19.463  0.00  0.00    +0.000 A 
ATOM     25  C   UNL     1      -0.124  10.657  20.465  0.00  0.00    +0.000 A 
ATOM     26  C   UNL     1       0.921   9.777  20.176  0.00  0.00    +0.000 A 
ENDBRANCH  20  21
ENDBRANCH   4  20
TORSDOF 3
ENDMDL
MODEL 3
REMARK VINA RESULT:      -9.4      1.406      1.502
REMARK  Name = 
REMARK  5 active torsions:
REMARK  status: ('A' for Active; 'I' for Inactive)
REMARK    1  A    between atoms: C_1  and  C_2
REMARK    2  A    between atoms: C_5  and  C_6
REMARK    3  A    between atoms: C_7  and  C_8
REMARK    4  A    between atoms: N_11  and  C_12
REMARK    5  A    between atoms: C_12  and  C_13
REMARK                            x       y       z     vdW  Elec       q    Type
REMARK                         _______ _______ _______ _____ _____    ______ ____
ROOT
ATOM      1  C   UNL     1       4.847   5.567  17.715  0.00  0.00    +0.000 A 
ATOM      2  N   UNL     1       4.036   6.627  17.867  0.00  0.00    +0.000 NA
ATOM      3  C   UNL     1       3.036   6.510  18.755  0.00  0.00    +0.000 A 
ATOM      4  N   UNL     1       2.138   7.585  18.909  0.00  0.00    +0.000 N 
ATOM      5  C   UNL     1       2.832   5.338  19.505  0.00  0.00    +0.000 A 
ATOM      6  C   UNL     1       1.789   5.138  20.445  0.00  0.00    +0.000 A 
ATOM      7  C   UNL     1       1.642   3.919  21.104  0.00  0.00    +0.000 A 
ATOM      8  C   UNL     1       2.529   2.887  20.831  0.00  0.00    +0.000 A 
ATOM      9  C   UNL     1       3.559   3.086  19.909  0.00  0.00    +0.000 A 
ATOM     10  C   UNL     1       3.728   4.293  19.244  0.00  0.00    +0.000 A 
ATOM     11  N   UNL     1       4.727   4.403  18.368  0.00  0.00    +0.000 NA
ATOM     12  H   UNL     1       2.178   7.936  19.862  0.00  0.00    +0.000 HD
ENDROOT
BRANCH   1  19
ATOM     13  C   UNL     1       5.191   4.211  14.727  0.00  0.00    +0.000 C 
ATOM     14  C   UNL     1       6.113   5.091  15.483  0.00  0.00    +0.000 A 
ATOM     15  N   UNL     1       7.286   5.441  14.940  0.00  0.00    +0.000 NA
ATOM     16  O   UNL     1       7.900   6.258  15.867  0.00  0.00    +0.000 OA
ATOM     17  C   UNL     1       7.101   6.398  16.957  0.00  0.00    +0.000 A 
ATOM     18  C   UNL     1       7.638   7.252  18.035  0.00  0.00    +0.000 C 
ATOM     19  C   UNL     1       5.941   5.672  16.772  0.00  0.00    +0.000 A 
ENDBRANCH   1  19
BRANCH   4  20
ATOM     20  C   UNL     1       2.244   8.656  17.925  0.00  0.00    +0.000 C 
BRANCH  20  21
ATOM     21  C   UNL     1       1.212   9.737  18.184  0.00  0.00    +0.000 A 
ATOM     22  C   UNL     1       1.633  10.994  18.647  0.00  0.00    +0.000 A 
ATOM     23  C   UNL     1       0.710  12.021  18.866  0.00  0.00    +0.000 A 
ATOM     24  C   UNL     1      -0.643  11.809  18.618  0.00  0.00    +0.000 A 
ATOM     25  C   UNL     1      -1.074  10.579  18.131  0.00  0.00    +0.000 A 
ATOM     26  C   UNL     1      -0.153   9.555  17.902  0.00  0.00    +0.000 A 
ENDBRANCH  20  21
ENDBRANCH   4  20
TORSDOF 3
ENDMDL
MODEL 4
REMARK VINA RESULT:      -9.1      0.439      1.634
REMARK  Name = 
REMARK  5 active torsions:
REMARK  status: ('A' for Active; 'I' for Inactive)
REMARK    1  A    between atoms: C_1  and  C_2
REMARK    2  A    between atoms: C_5  and  C_6
REMARK    3  A    between atoms: C_7  and  C_8
REMARK    4  A    between atoms: N_11  and  C_12
REMARK    5  A    between atoms: C_12  and  C_13
REMARK                            x       y       z     vdW  Elec       q    Type
REMARK                         _______ _______ _______ _____ _____    ______ ____
ROOT
ATOM      1  C   UNL     1       4.654   4.948  17.158  0.00  0.00    +0.000 A 
ATOM      2  N   UNL     1       3.967   5.961  17.710  0.00  0.00    +0.000 NA
ATOM      3  C   UNL     1       2.872   5.644  18.419  0.00  0.00    +0.000 A 
ATOM      4  N   UNL     1       2.101   6.683  18.975  0.00  0.00    +0.000 N 
ATOM      5  C   UNL     1       2.449   4.314  18.591  0.00  0.00    +0.000 A 
ATOM      6  C   UNL     1       1.296   3.907  19.310  0.00  0.00    +0.000 A 
ATOM      7  C   UNL     1       0.934   2.564  19.382  0.00  0.00    +0.000 A 
ATOM      8  C   UNL     1       1.713   1.613  18.736  0.00  0.00    +0.000 A 
ATOM      9  C   UNL     1       2.850   2.013  18.032  0.00  0.00    +0.000 A 
ATOM     10  C   UNL     1       3.233   3.346  17.950  0.00  0.00    +0.000 A 
ATOM     11  N   UNL     1       4.325   3.652  17.249  0.00  0.00    +0.000 NA
ATOM     12  H   UNL     1       2.082   6.599  19.988  0.00  0.00    +0.000 HD
ENDROOT
BRANCH   1  19
ATOM     13  C   UNL     1       7.372   6.575  18.081  0.00  0.00    +0.000 C 
ATOM     14  C   UNL     1       7.025   5.967  16.773  0.00  0.00    +0.000 A 
ATOM     15  N   UNL     1       7.895   6.043  15.758  0.00  0.00    +0.000 NA
ATOM     16  O   UNL     1       7.298   5.387  14.702  0.00  0.00    +0.000 OA
ATOM     17  C   UNL     1       6.079   4.920  15.081  0.00  0.00    +0.000 A 
ATOM     18  C   UNL     1       5.325   4.193  14.041  0.00  0.00    +0.000 C 
ATOM     19  C   UNL     1       5.846   5.262  16.398  0.00  0.00    +0.000 A 
ENDBRANCH   1  19
BRANCH   4  20
ATOM     20  C   UNL     1       2.439   8.035  18.544  0.00  0.00    +0.000 C 
BRANCH  20  21
ATOM     21  C   UNL     1       1.360   9.021  18.950  0.00  0.00    +0.000 A 
ATOM     22  C   UNL     1       0.604   9.662  17.954  0.00  0.00    +0.000 A 
ATOM     23  C   UNL     1      -0.418  10.553  18.296  0.00  0.00    +0.000 A 
ATOM     24  C   UNL     1      -0.703  10.809  19.634  0.00  0.00    +0.000 A 
ATOM     25  C   UNL     1       0.016  10.160  20.633  0.00  0.00    +0.000 A 
ATOM     26  C   UNL     1       1.031   9.263  20.294  0.00  0.00    +0.000 A 
ENDBRANCH  20  21
ENDBRANCH   4  20
TORSDOF 3
ENDMDL
MODEL 5
REMARK VINA RESULT:      -9.0      1.344      2.063
REMARK  Name = 
REMARK  5 active torsions:
REMARK  status: ('A' for Active; 'I' for Inactive)
REMARK    1  A    between atoms: C_1  and  C_2
REMARK    2  A    between atoms: C_5  and  C_6
REMARK    3  A    between atoms: C_7  and  C_8
REMARK    4  A    between atoms: N_11  and  C_12
REMARK    5  A    between atoms: C_12  and  C_13
REMARK                            x       y       z     vdW  Elec       q    Type
REMARK                         _______ _______ _______ _____ _____    ______ ____
ROOT
ATOM      1  C   UNL     1       4.961   5.296  18.118  0.00  0.00    +0.000 A 
ATOM      2  N   UNL     1       4.097   6.286  18.398  0.00  0.00    +0.000 NA
ATOM      3  C   UNL     1       3.162   6.037  19.329  0.00  0.00    +0.000 A 
ATOM      4  N   UNL     1       2.210   7.035  19.617  0.00  0.00    +0.000 N 
ATOM      5  C   UNL     1       3.078   4.802  19.996  0.00  0.00    +0.000 A 
ATOM      6  C   UNL     1       2.109   4.464  20.975  0.00  0.00    +0.000 A 
ATOM      7  C   UNL     1       2.079   3.193  21.544  0.00  0.00    +0.000 A 
ATOM      8  C   UNL     1       3.010   2.245  21.142  0.00  0.00    +0.000 A 
ATOM      9  C   UNL     1       3.967   2.580  20.181  0.00  0.00    +0.000 A 
ATOM     10  C   UNL     1       4.019   3.842  19.604  0.00  0.00    +0.000 A 
ATOM     11  N   UNL     1       4.954   4.082  18.684  0.00  0.00    +0.000 NA
ATOM     12  H   UNL     1       2.286   7.317  20.590  0.00  0.00    +0.000 HD
ENDROOT
BRANCH   1  19
ATOM     13  C   UNL     1       7.753   7.037  18.364  0.00  0.00    +0.000 C 
ATOM     14  C   UNL     1       7.194   6.295  17.209  0.00  0.00    +0.000 A 
ATOM     15  N   UNL     1       7.864   6.275  16.049  0.00  0.00    +0.000 NA
ATOM     16  O   UNL     1       7.105   5.508  15.190  0.00  0.00    +0.000 OA
ATOM     17  C   UNL     1       5.988   5.070  15.829  0.00  0.00    +0.000 A 
ATOM     18  C   UNL     1       5.080   4.233  15.022  0.00  0.00    +0.000 C 
ATOM     19  C   UNL     1       5.987   5.543  17.126  0.00  0.00    +0.000 A 
ENDBRANCH   1  19
BRANCH   4  20
ATOM     20  C   UNL     1       2.189   8.181  18.714  0.00  0.00    +0.000 C 
BRANCH  20  21
ATOM     21  C   UNL     1       1.147   9.194  19.146  0.00  0.00    +0.000 A 
ATOM     22  C   UNL     1       0.508   9.983  18.175  0.00  0.00    +0.000 A 
ATOM     23  C   UNL     1      -0.478  10.905  18.538  0.00  0.00    +0.000 A 
ATOM     24  C   UNL     1      -0.847  11.045  19.873  0.00  0.00    +0.000 A 
ATOM     25  C   UNL     1      -0.246  10.250  20.845  0.00  0.00    +0.000 A 
ATOM     26  C   UNL     1       0.733   9.323  20.484  0.00  0.00    +0.000 A 
ENDBRANCH  20  21
ENDBRANCH   4  20
TORSDOF 3
ENDMDL
MODEL 6
REMARK VINA RESULT:      -9.0      0.543      1.902
REMARK  Name = 
REMARK  5 active torsions:
REMARK  status: ('A' for Active; 'I' for Inactive)
REMARK    1  A    between atoms: C_1  and  C_2
REMARK    2  A    between atoms: C_5  and  C_6
REMARK    3  A    between atoms: C_7  and  C_8
REMARK    4  A    between atoms: N_11  and  C_12
REMARK    5  A    between atoms: C_12  and  C_13
REMARK                            x       y       z     vdW  Elec       q    Type
REMARK                         _______ _______ _______ _____ _____    ______ ____
ROOT
ATOM      1  C   UNL     1       4.673   4.939  17.062  0.00  0.00    +0.000 A 
ATOM      2  N   UNL     1       3.983   5.997  17.519  0.00  0.00    +0.000 NA
ATOM      3  C   UNL     1       2.910   5.744  18.285  0.00  0.00    +0.000 A 
ATOM      4  N   UNL     1       2.136   6.827  18.745  0.00  0.00    +0.000 N 
ATOM      5  C   UNL     1       2.513   4.435  18.610  0.00  0.00    +0.000 A 
ATOM      6  C   UNL     1       1.384   4.092  19.398  0.00  0.00    +0.000 A 
ATOM      7  C   UNL     1       1.045   2.760  19.623  0.00  0.00    +0.000 A 
ATOM      8  C   UNL     1       1.823   1.756  19.064  0.00  0.00    +0.000 A 
ATOM      9  C   UNL     1       2.937   2.093  18.292  0.00  0.00    +0.000 A 
ATOM     10  C   UNL     1       3.297   3.414  18.058  0.00  0.00    +0.000 A 
ATOM     11  N   UNL     1       4.367   3.657  17.301  0.00  0.00    +0.000 NA
ATOM     12  H   UNL     1       2.143   6.852  19.761  0.00  0.00    +0.000 HD
ENDROOT
BRANCH   1  19
ATOM     13  C   UNL     1       7.458   6.549  17.796  0.00  0.00    +0.000 C 
ATOM     14  C   UNL     1       7.049   5.882  16.537  0.00  0.00    +0.000 A 
ATOM     15  N   UNL     1       7.881   5.884  15.487  0.00  0.00    +0.000 NA
ATOM     16  O   UNL     1       7.231   5.187  14.491  0.00  0.00    +0.000 OA
ATOM     17  C   UNL     1       6.017   4.769  14.938  0.00  0.00    +0.000 A 
ATOM     18  C   UNL     1       5.208   4.006  13.968  0.00  0.00    +0.000 C 
ATOM     19  C   UNL     1       5.842   5.186  16.243  0.00  0.00    +0.000 A 
ENDBRANCH   1  19
BRANCH   4  20
ATOM     20  C   UNL     1       2.442   8.128  18.163  0.00  0.00    +0.000 C 
BRANCH  20  21
ATOM     21  C   UNL     1       1.643   9.228  18.836  0.00  0.00    +0.000 A 
ATOM     22  C   UNL     1       1.083   8.995  20.103  0.00  0.00    +0.000 A 
ATOM     23  C   UNL     1       0.367   9.997  20.764  0.00  0.00    +0.000 A 
ATOM     24  C   UNL     1       0.207  11.248  20.172  0.00  0.00    +0.000 A 
ATOM     25  C   UNL     1       0.781  11.505  18.930  0.00  0.00    +0.000 A 
ATOM     26  C   UNL     1       1.505  10.508  18.273  0.00  0.00    +0.000 A 
ENDBRANCH  20  21
ENDBRANCH   4  20
TORSDOF 3
ENDMDL
MODEL 7
REMARK VINA RESULT:      -8.9      1.369      2.144
REMARK  Name = 
REMARK  5 active torsions:
REMARK  status: ('A' for Active; 'I' for Inactive)
REMARK    1  A    between atoms: C_1  and  C_2
REMARK    2  A    between atoms: C_5  and  C_6
REMARK    3  A    between atoms: C_7  and  C_8
REMARK    4  A    between atoms: N_11  and  C_12
REMARK    5  A    between atoms: C_12  and  C_13
REMARK                            x       y       z     vdW  Elec       q    Type
REMARK                         _______ _______ _______ _____ _____    ______ ____
ROOT
ATOM      1  C   UNL     1       4.750   5.526  17.708  0.00  0.00    +0.000 A 
ATOM      2  N   UNL     1       3.970   6.605  17.884  0.00  0.00    +0.000 NA
ATOM      3  C   UNL     1       2.934   6.482  18.729  0.00  0.00    +0.000 A 
ATOM      4  N   UNL     1       2.068   7.579  18.904  0.00  0.00    +0.000 N 
ATOM      5  C   UNL     1       2.663   5.283  19.412  0.00  0.00    +0.000 A 
ATOM      6  C   UNL     1       1.579   5.074  20.304  0.00  0.00    +0.000 A 
ATOM      7  C   UNL     1       1.367   3.832  20.896  0.00  0.00    +0.000 A 
ATOM      8  C   UNL     1       2.229   2.783  20.603  0.00  0.00    +0.000 A 
ATOM      9  C   UNL     1       3.298   2.989  19.729  0.00  0.00    +0.000 A 
ATOM     10  C   UNL     1       3.532   4.221  19.131  0.00  0.00    +0.000 A 
ATOM     11  N   UNL     1       4.567   4.337  18.298  0.00  0.00    +0.000 NA
ATOM     12  H   UNL     1       2.084   7.882  19.874  0.00  0.00    +0.000 HD
ENDROOT
BRANCH   1  19
ATOM     13  C   UNL     1       7.659   7.015  18.163  0.00  0.00    +0.000 C 
ATOM     14  C   UNL     1       7.141   6.279  16.984  0.00  0.00    +0.000 A 
ATOM     15  N   UNL     1       7.910   6.150  15.896  0.00  0.00    +0.000 NA
ATOM     16  O   UNL     1       7.165   5.420  14.993  0.00  0.00    +0.000 OA
ATOM     17  C   UNL     1       5.958   5.112  15.537  0.00  0.00    +0.000 A 
ATOM     18  C   UNL     1       5.052   4.328  14.674  0.00  0.00    +0.000 C 
ATOM     19  C   UNL     1       5.881   5.637  16.811  0.00  0.00    +0.000 A 
ENDBRANCH   1  19
BRANCH   4  20
ATOM     20  C   UNL     1       2.247   8.692  17.979  0.00  0.00    +0.000 C 
BRANCH  20  21
ATOM     21  C   UNL     1       1.209   9.772  18.220  0.00  0.00    +0.000 A 
ATOM     22  C   UNL     1       1.627  11.048  18.631  0.00  0.00    +0.000 A 
ATOM     23  C   UNL     1       0.699  12.074  18.833  0.00  0.00    +0.000 A 
ATOM     24  C   UNL     1      -0.657  11.841  18.618  0.00  0.00    +0.000 A 
ATOM     25  C   UNL     1      -1.085  10.591  18.182  0.00  0.00    +0.000 A 
ATOM     26  C   UNL     1      -0.159   9.568  17.971  0.00  0.00    +0.000 A 
ENDBRANCH  20  21
ENDBRANCH   4  20
TORSDOF 3
ENDMDL
MODEL 8
REMARK VINA RESULT:      -8.8      1.523      2.056
REMARK  Name = 
REMARK  5 active torsions:
REMARK  status: ('A' for Active; 'I' for Inactive)
REMARK    1  A    between atoms: C_1  and  C_2
REMARK    2  A    between atoms: C_5  and  C_6
REMARK    3  A    between atoms: C_7  and  C_8
REMARK    4  A    between atoms: N_11  and  C_12
REMARK    5  A    between atoms: C_12  and  C_13
REMARK                            x       y       z     vdW  Elec       q    Type
REMARK                         _______ _______ _______ _____ _____    ______ ____
ROOT
ATOM      1  C   UNL     1       4.576   5.401  18.551  0.00  0.00    +0.000 A 
ATOM      2  N   UNL     1       3.780   6.301  19.151  0.00  0.00    +0.000 NA
ATOM      3  C   UNL     1       2.660   5.839  19.729  0.00  0.00    +0.000 A 
ATOM      4  N   UNL     1       1.778   6.759  20.330  0.00  0.00    +0.000 N 
ATOM      5  C   UNL     1       2.320   4.475  19.721  0.00  0.00    +0.000 A 
ATOM      6  C   UNL     1       1.147   3.918  20.294  0.00  0.00    +0.000 A 
ATOM      7  C   UNL     1       0.876   2.556  20.190  0.00  0.00    +0.000 A 
ATOM      8  C   UNL     1       1.766   1.735  19.511  0.00  0.00    +0.000 A 
ATOM      9  C   UNL     1       2.922   2.282  18.950  0.00  0.00    +0.000 A 
ATOM     10  C   UNL     1       3.216   3.636  19.046  0.00  0.00    +0.000 A 
ATOM     11  N   UNL     1       4.333   4.086  18.474  0.00  0.00    +0.000 NA
ATOM     12  H   UNL     1       1.690   6.559  21.322  0.00  0.00    +0.000 HD
ENDROOT
BRANCH   1  19
ATOM     13  C   UNL     1       5.070   6.598  15.516  0.00  0.00    +0.000 C 
ATOM     14  C   UNL     1       6.033   6.386  16.623  0.00  0.00    +0.000 A 
ATOM     15  N   UNL     1       7.321   6.707  16.448  0.00  0.00    +0.000 NA
ATOM     16  O   UNL     1       7.948   6.409  17.640  0.00  0.00    +0.000 OA
ATOM     17  C   UNL     1       7.042   5.914  18.524  0.00  0.00    +0.000 A 
ATOM     18  C   UNL     1       7.579   5.550  19.850  0.00  0.00    +0.000 C 
ATOM     19  C   UNL     1       5.796   5.873  17.930  0.00  0.00    +0.000 A 
ENDBRANCH   1  19
BRANCH   4  20
ATOM     20  C   UNL     1       2.052   8.169  20.077  0.00  0.00    +0.000 C 
BRANCH  20  21
ATOM     21  C   UNL     1       1.087   9.056  20.840  0.00  0.00    +0.000 A 
ATOM     22  C   UNL     1       0.863   8.815  22.206  0.00  0.00    +0.000 A 
ATOM     23  C   UNL     1       0.003   9.633  22.945  0.00  0.00    +0.000 A 
ATOM     24  C   UNL     1      -0.638  10.707  22.332  0.00  0.00    +0.000 A 
ATOM     25  C   UNL     1      -0.404  10.979  20.987  0.00  0.00    +0.000 A 
ATOM     26  C   UNL     1       0.462  10.168  20.250  0.00  0.00    +0.000 A 
ENDBRANCH  20  21
ENDBRANCH   4  20
TORSDOF 3
ENDMDL
MODEL 9
REMARK VINA RESULT:      -8.8      1.588      2.502
REMARK  Name = 
REMARK  5 active torsions:
REMARK  status: ('A' for Active; 'I' for Inactive)
REMARK    1  A    between atoms: C_1  and  C_2
REMARK    2  A    between atoms: C_5  and  C_6
REMARK    3  A    between atoms: C_7  and  C_8
REMARK    4  A    between atoms: N_11  and  C_12
REMARK    5  A    between atoms: C_12  and  C_13
REMARK                            x       y       z     vdW  Elec       q    Type
REMARK                         _______ _______ _______ _____ _____    ______ ____
ROOT
ATOM      1  C   UNL     1       4.465   5.473  18.498  0.00  0.00    +0.000 A 
ATOM      2  N   UNL     1       3.688   6.350  19.154  0.00  0.00    +0.000 NA
ATOM      3  C   UNL     1       2.567   5.873  19.718  0.00  0.00    +0.000 A 
ATOM      4  N   UNL     1       1.704   6.771  20.376  0.00  0.00    +0.000 N 
ATOM      5  C   UNL     1       2.207   4.516  19.639  0.00  0.00    +0.000 A 
ATOM      6  C   UNL     1       1.032   3.946  20.193  0.00  0.00    +0.000 A 
ATOM      7  C   UNL     1       0.740   2.595  20.019  0.00  0.00    +0.000 A 
ATOM      8  C   UNL     1       1.611   1.799  19.287  0.00  0.00    +0.000 A 
ATOM      9  C   UNL     1       2.770   2.360  18.745  0.00  0.00    +0.000 A 
ATOM     10  C   UNL     1       3.084   3.703  18.910  0.00  0.00    +0.000 A 
ATOM     11  N   UNL     1       4.202   4.167  18.353  0.00  0.00    +0.000 NA
ATOM     12  H   UNL     1       1.622   6.519  21.357  0.00  0.00    +0.000 HD
ENDROOT
BRANCH   1  19
ATOM     13  C   UNL     1       7.522   5.611  19.734  0.00  0.00    +0.000 C 
ATOM     14  C   UNL     1       7.012   6.035  18.408  0.00  0.00    +0.000 A 
ATOM     15  N   UNL     1       7.857   6.563  17.513  0.00  0.00    +0.000 NA
ATOM     16  O   UNL     1       7.097   6.840  16.396  0.00  0.00    +0.000 OA
ATOM     17  C   UNL     1       5.805   6.482  16.618  0.00  0.00    +0.000 A 
ATOM     18  C   UNL     1       4.875   6.725  15.499  0.00  0.00    +0.000 C 
ATOM     19  C   UNL     1       5.686   5.960  17.892  0.00  0.00    +0.000 A 
ENDBRANCH   1  19
BRANCH   4  20
ATOM     20  C   UNL     1       1.996   8.189  20.197  0.00  0.00    +0.000 C 
BRANCH  20  21
ATOM     21  C   UNL     1       1.010   9.049  20.965  0.00  0.00    +0.000 A 
ATOM     22  C   UNL     1       0.873   8.867  22.351  0.00  0.00    +0.000 A 
ATOM     23  C   UNL     1      -0.004   9.664  23.093  0.00  0.00    +0.000 A 
ATOM     24  C   UNL     1      -0.749  10.658  22.463  0.00  0.00    +0.000 A 
ATOM     25  C   UNL     1      -0.603  10.871  21.095  0.00  0.00    +0.000 A 
ATOM     26  C   UNL     1       0.280  10.082  20.354  0.00  0.00    +0.000 A 
ENDBRANCH  20  21
ENDBRANCH   4  20
TORSDOF 3
ENDMDL
