MODEL 1
REMARK VINA RESULT:      -7.3      0.000      0.000
REMARK  Name = 
REMARK  5 active torsions:
REMARK  status: ('A' for Active; 'I' for Inactive)
REMARK    1  A    between atoms: C_1  and  C_2
REMARK    2  A    between atoms: C_5  and  O_6
REMARK    3  A    between atoms: C_7  and  O_8
REMARK    4  A    between atoms: C_14  and  C_15
REMARK    5  A    between atoms: N_18  and  C_19
REMARK                            x       y       z     vdW  Elec       q    Type
REMARK                         _______ _______ _______ _____ _____    ______ ____
ROOT
ATOM      1  C   UNL     1       6.808   7.410  17.518  0.00  0.00    +0.000 C 
ATOM      2  C   UNL     1       6.299   6.285  16.656  0.00  0.00    +0.000 A 
ATOM      3  O   UNL     1       7.125   6.022  15.574  0.00  0.00    +0.000 OA
ATOM      4  C   UNL     1       6.697   5.132  14.624  0.00  0.00    +0.000 A 
ATOM      5  C   UNL     1       7.488   4.957  13.492  0.00  0.00    +0.000 A 
ATOM      6  C   UNL     1       7.079   4.097  12.478  0.00  0.00    +0.000 A 
ATOM      7  C   UNL     1       5.886   3.392  12.578  0.00  0.00    +0.000 A 
ATOM      8  C   UNL     1       5.100   3.544  13.721  0.00  0.00    +0.000 A 
ATOM      9  C   UNL     1       5.514   4.412  14.742  0.00  0.00    +0.000 A 
ATOM     10  C   UNL     1       4.705   4.576  15.957  0.00  0.00    +0.000 A 
ATOM     11  O   UNL     1       3.705   3.890  16.137  0.00  0.00    +0.000 OA
ATOM     12  C   UNL     1       5.151   5.623  16.919  0.00  0.00    +0.000 A 
ENDROOT
BRANCH  12  13
ATOM     13  C   UNL     1       4.302   5.922  18.020  0.00  0.00    +0.000 A 
ATOM     14  C   UNL     1       4.222   5.327  19.285  0.00  0.00    +0.000 A 
ATOM     15  N   UNL     1       3.339   5.941  20.075  0.00  0.00    +0.000 NA
ATOM     16  N   UNL     1       2.814   6.932  19.302  0.00  0.00    +0.000 N 
ATOM     17  C   UNL     1       3.364   6.924  18.038  0.00  0.00    +0.000 A 
BRANCH  16  18
ATOM     18  C   UNL     1       1.883   7.873  19.824  0.00  0.00    +0.000 A 
ATOM     19  C   UNL     1       1.484   8.965  19.041  0.00  0.00    +0.000 A 
ATOM     20  C   UNL     1       0.507   9.844  19.516  0.00  0.00    +0.000 A 
ATOM     21  C   UNL     1      -0.067   9.645  20.770  0.00  0.00    +0.000 A 
ATOM     22  C   UNL     1       0.348   8.579  21.565  0.00  0.00    +0.000 A 
ATOM     23  C   UNL     1       1.323   7.697  21.098  0.00  0.00    +0.000 A 
ENDBRANCH  16  18
ENDBRANCH  12  13
BRANCH   5  24
ATOM     24  O   UNL     1       8.681   5.613  13.334  0.00  0.00    +0.000 OA
ATOM     25  H   UNL     1       9.149   5.557  14.189  0.00  0.00    +0.000 HD
ENDBRANCH   5  24
BRANCH   6  26
ATOM     26  O   UNL     1       7.850   3.934  11.365  0.00  0.00    +0.000 OA
ATOM     27  H   UNL     1       8.155   4.835  11.134  0.00  0.00    +0.000 HD
ENDBRANCH   6  26
TORSDOF 4
ENDMDL
MODEL 2
REMARK VINA RESULT:      -7.3      4.374      7.029
REMARK  Name = 
REMARK  5 active torsions:
REMARK  status: ('A' for Active; 'I' for Inactive)
REMARK    1  A    between atoms: C_1  and  C_2
REMARK    2  A    between atoms: C_5  and  O_6
REMARK    3  A    between atoms: C_7  and  O_8
REMARK    4  A    between atoms: C_14  and  C_15
REMARK    5  A    between atoms: N_18  and  C_19
REMARK                            x       y       z     vdW  Elec       q    Type
REMARK                         _______ _______ _______ _____ _____    ______ ____
ROOT
ATOM      1  C   UNL     1       0.222   9.207  21.546  0.00  0.00    +0.000 C 
ATOM      2  C   UNL     1       0.987   8.608  20.396  0.00  0.00    +0.000 A 
ATOM      3  O   UNL     1       1.474   7.341  20.677  0.00  0.00    +0.000 OA
ATOM      4  C   UNL     1       2.322   6.750  19.777  0.00  0.00    +0.000 A 
ATOM      5  C   UNL     1       2.887   5.525  20.121  0.00  0.00    +0.000 A 
ATOM      6  C   UNL     1       3.786   4.903  19.261  0.00  0.00    +0.000 A 
ATOM      7  C   UNL     1       4.130   5.482  18.046  0.00  0.00    +0.000 A 
ATOM      8  C   UNL     1       3.549   6.698  17.684  0.00  0.00    +0.000 A 
ATOM      9  C   UNL     1       2.642   7.324  18.553  0.00  0.00    +0.000 A 
ATOM     10  C   UNL     1       2.014   8.599  18.183  0.00  0.00    +0.000 A 
ATOM     11  O   UNL     1       2.201   9.089  17.075  0.00  0.00    +0.000 OA
ATOM     12  C   UNL     1       1.178   9.258  19.227  0.00  0.00    +0.000 A 
ENDROOT
BRANCH  12  13
ATOM     13  C   UNL     1       0.691  10.568  18.963  0.00  0.00    +0.000 A 
ATOM     14  C   UNL     1      -0.607  11.006  18.671  0.00  0.00    +0.000 A 
ATOM     15  N   UNL     1      -0.674  12.334  18.555  0.00  0.00    +0.000 NA
ATOM     16  N   UNL     1       0.605  12.764  18.743  0.00  0.00    +0.000 N 
ATOM     17  C   UNL     1       1.459  11.705  18.967  0.00  0.00    +0.000 A 
BRANCH  16  18
ATOM     18  C   UNL     1       0.931  14.148  18.778  0.00  0.00    +0.000 A 
ATOM     19  C   UNL     1       2.256  14.557  18.576  0.00  0.00    +0.000 A 
ATOM     20  C   UNL     1       2.566  15.918  18.525  0.00  0.00    +0.000 A 
ATOM     21  C   UNL     1       1.564  16.874  18.683  0.00  0.00    +0.000 A 
ATOM     22  C   UNL     1       0.250  16.472  18.915  0.00  0.00    +0.000 A 
ATOM     23  C   UNL     1      -0.068  15.115  18.967  0.00  0.00    +0.000 A 
ENDBRANCH  16  18
ENDBRANCH  12  13
BRANCH   5  24
ATOM     24  O   UNL     1       2.583   4.894  21.299  0.00  0.00    +0.000 OA
ATOM     25  H   UNL     1       2.053   5.521  21.826  0.00  0.00    +0.000 HD
ENDBRANCH   5  24
BRANCH   6  26
ATOM     26  O   UNL     1       4.345   3.707  19.604  0.00  0.00    +0.000 OA
ATOM     27  H   UNL     1       4.498   3.766  20.569  0.00  0.00    +0.000 HD
ENDBRANCH   6  26
TORSDOF 4
ENDMDL
MODEL 3
REMARK VINA RESULT:      -7.2      3.641      4.979
REMARK  Name = 
REMARK  5 active torsions:
REMARK  status: ('A' for Active; 'I' for Inactive)
REMARK    1  A    between atoms: C_1  and  C_2
REMARK    2  A    between atoms: C_5  and  O_6
REMARK    3  A    between atoms: C_7  and  O_8
REMARK    4  A    between atoms: C_14  and  C_15
REMARK    5  A    between atoms: N_18  and  C_19
REMARK                            x       y       z     vdW  Elec       q    Type
REMARK                         _______ _______ _______ _____ _____    ______ ____
ROOT
ATOM      1  C   UNL     1       3.986   7.707  17.126  0.00  0.00    +0.000 C 
ATOM      2  C   UNL     1       3.460   6.617  18.021  0.00  0.00    +0.000 A 
ATOM      3  O   UNL     1       4.022   5.380  17.746  0.00  0.00    +0.000 OA
ATOM      4  C   UNL     1       3.515   4.275  18.378  0.00  0.00    +0.000 A 
ATOM      5  C   UNL     1       4.017   3.028  18.015  0.00  0.00    +0.000 A 
ATOM      6  C   UNL     1       3.507   1.871  18.595  0.00  0.00    +0.000 A 
ATOM      7  C   UNL     1       2.500   1.936  19.549  0.00  0.00    +0.000 A 
ATOM      8  C   UNL     1       2.008   3.183  19.936  0.00  0.00    +0.000 A 
ATOM      9  C   UNL     1       2.524   4.349  19.350  0.00  0.00    +0.000 A 
ATOM     10  C   UNL     1       2.026   5.670  19.752  0.00  0.00    +0.000 A 
ATOM     11  O   UNL     1       1.219   5.780  20.669  0.00  0.00    +0.000 OA
ATOM     12  C   UNL     1       2.528   6.838  18.974  0.00  0.00    +0.000 A 
ENDROOT
BRANCH  12  13
ATOM     13  C   UNL     1       1.944   8.110  19.226  0.00  0.00    +0.000 A 
ATOM     14  C   UNL     1       1.680   9.170  18.351  0.00  0.00    +0.000 A 
ATOM     15  N   UNL     1       1.052  10.179  18.959  0.00  0.00    +0.000 NA
ATOM     16  N   UNL     1       0.934   9.782  20.257  0.00  0.00    +0.000 N 
ATOM     17  C   UNL     1       1.494   8.537  20.450  0.00  0.00    +0.000 A 
BRANCH  16  18
ATOM     18  C   UNL     1       0.235  10.564  21.217  0.00  0.00    +0.000 A 
ATOM     19  C   UNL     1       0.138  11.952  21.048  0.00  0.00    +0.000 A 
ATOM     20  C   UNL     1      -0.619  12.713  21.943  0.00  0.00    +0.000 A 
ATOM     21  C   UNL     1      -1.273  12.098  23.009  0.00  0.00    +0.000 A 
ATOM     22  C   UNL     1      -1.155  10.723  23.199  0.00  0.00    +0.000 A 
ATOM     23  C   UNL     1      -0.401   9.956  22.310  0.00  0.00    +0.000 A 
ENDBRANCH  16  18
ENDBRANCH  12  13
BRANCH   5  24
ATOM     24  O   UNL     1       5.018   2.894  17.088  0.00  0.00    +0.000 OA
ATOM     25  H   UNL     1       5.168   1.936  16.972  0.00  0.00    +0.000 HD
ENDBRANCH   5  24
BRANCH   6  26
ATOM     26  O   UNL     1       3.994   0.651  18.231  0.00  0.00    +0.000 OA
ATOM     27  H   UNL     1       4.588   0.830  17.474  0.00  0.00    +0.000 HD
ENDBRANCH   6  26
TORSDOF 4
ENDMDL
MODEL 4
REMARK VINA RESULT:      -7.2      4.382      7.126
REMARK  Name = 
REMARK  5 active torsions:
REMARK  status: ('A' for Active; 'I' for Inactive)
REMARK    1  A    between atoms: C_1  and  C_2
REMARK    2  A    between atoms: C_5  and  O_6
REMARK    3  A    between atoms: C_7  and  O_8
REMARK    4  A    between atoms: C_14  and  C_15
REMARK    5  A    between atoms: N_18  and  C_19
REMARK                            x       y       z     vdW  Elec       q    Type
REMARK                         _______ _______ _______ _____ _____    ______ ____
ROOT
ATOM      1  C   UNL     1       0.146   9.238  21.769  0.00  0.00    +0.000 C 
ATOM      2  C   UNL     1       0.899   8.716  20.574  0.00  0.00    +0.000 A 
ATOM      3  O   UNL     1       1.419   7.447  20.780  0.00  0.00    +0.000 OA
ATOM      4  C   UNL     1       2.259   6.922  19.834  0.00  0.00    +0.000 A 
ATOM      5  C   UNL     1       2.856   5.693  20.103  0.00  0.00    +0.000 A 
ATOM      6  C   UNL     1       3.750   5.136  19.195  0.00  0.00    +0.000 A 
ATOM      7  C   UNL     1       4.057   5.784  18.005  0.00  0.00    +0.000 A 
ATOM      8  C   UNL     1       3.443   7.004  17.717  0.00  0.00    +0.000 A 
ATOM      9  C   UNL     1       2.542   7.564  18.635  0.00  0.00    +0.000 A 
ATOM     10  C   UNL     1       1.879   8.842  18.344  0.00  0.00    +0.000 A 
ATOM     11  O   UNL     1       2.033   9.392  17.259  0.00  0.00    +0.000 OA
ATOM     12  C   UNL     1       1.052   9.429  19.436  0.00  0.00    +0.000 A 
ENDROOT
BRANCH  12  13
ATOM     13  C   UNL     1       0.532  10.739  19.250  0.00  0.00    +0.000 A 
ATOM     14  C   UNL     1      -0.752  11.156  18.878  0.00  0.00    +0.000 A 
ATOM     15  N   UNL     1      -0.869  12.486  18.880  0.00  0.00    +0.000 NA
ATOM     16  N   UNL     1       0.367  12.942  19.227  0.00  0.00    +0.000 N 
ATOM     17  C   UNL     1       1.245  11.898  19.432  0.00  0.00    +0.000 A 
BRANCH  16  18
ATOM     18  C   UNL     1       0.626  14.327  19.421  0.00  0.00    +0.000 A 
ATOM     19  C   UNL     1      -0.199  15.281  18.811  0.00  0.00    +0.000 A 
ATOM     20  C   UNL     1      -0.001  16.640  19.066  0.00  0.00    +0.000 A 
ATOM     21  C   UNL     1       1.021  17.054  19.920  0.00  0.00    +0.000 A 
ATOM     22  C   UNL     1       1.862  16.110  20.505  0.00  0.00    +0.000 A 
ATOM     23  C   UNL     1       1.671  14.751  20.255  0.00  0.00    +0.000 A 
ENDBRANCH  16  18
ENDBRANCH  12  13
BRANCH   5  24
ATOM     24  O   UNL     1       2.591   4.997  21.253  0.00  0.00    +0.000 OA
ATOM     25  H   UNL     1       3.440   4.625  21.560  0.00  0.00    +0.000 HD
ENDBRANCH   5  24
BRANCH   6  26
ATOM     26  O   UNL     1       4.342   3.937  19.465  0.00  0.00    +0.000 OA
ATOM     27  H   UNL     1       5.033   4.138  20.128  0.00  0.00    +0.000 HD
ENDBRANCH   6  26
TORSDOF 4
ENDMDL
MODEL 5
REMARK VINA RESULT:      -7.1      2.466      4.411
REMARK  Name = 
REMARK  5 active torsions:
REMARK  status: ('A' for Active; 'I' for Inactive)
REMARK    1  A    between atoms: C_1  and  C_2
REMARK    2  A    between atoms: C_5  and  O_6
REMARK    3  A    between atoms: C_7  and  O_8
REMARK    4  A    between atoms: C_14  and  C_15
REMARK    5  A    between atoms: N_18  and  C_19
REMARK                            x       y       z     vdW  Elec       q    Type
REMARK                         _______ _______ _______ _____ _____    ______ ____
ROOT
ATOM      1  C   UNL     1       1.588   4.966  20.787  0.00  0.00    +0.000 C 
ATOM      2  C   UNL     1       2.330   5.511  19.596  0.00  0.00    +0.000 A 
ATOM      3  O   UNL     1       2.973   4.522  18.867  0.00  0.00    +0.000 OA
ATOM      4  C   UNL     1       3.814   4.898  17.852  0.00  0.00    +0.000 A 
ATOM      5  C   UNL     1       4.533   3.902  17.198  0.00  0.00    +0.000 A 
ATOM      6  C   UNL     1       5.432   4.234  16.190  0.00  0.00    +0.000 A 
ATOM      7  C   UNL     1       5.622   5.557  15.810  0.00  0.00    +0.000 A 
ATOM      8  C   UNL     1       4.886   6.558  16.444  0.00  0.00    +0.000 A 
ATOM      9  C   UNL     1       3.981   6.222  17.461  0.00  0.00    +0.000 A 
ATOM     10  C   UNL     1       3.191   7.262  18.133  0.00  0.00    +0.000 A 
ATOM     11  O   UNL     1       3.243   8.427  17.753  0.00  0.00    +0.000 OA
ATOM     12  C   UNL     1       2.364   6.827  19.294  0.00  0.00    +0.000 A 
ENDROOT
BRANCH  12  13
ATOM     13  C   UNL     1       1.719   7.831  20.067  0.00  0.00    +0.000 A 
ATOM     14  C   UNL     1       1.848   8.146  21.425  0.00  0.00    +0.000 A 
ATOM     15  N   UNL     1       1.119   9.211  21.766  0.00  0.00    +0.000 NA
ATOM     16  N   UNL     1       0.481   9.575  20.619  0.00  0.00    +0.000 N 
ATOM     17  C   UNL     1       0.808   8.734  19.577  0.00  0.00    +0.000 A 
BRANCH  16  18
ATOM     18  C   UNL     1      -0.337  10.737  20.555  0.00  0.00    +0.000 A 
ATOM     19  C   UNL     1      -0.859  11.155  19.323  0.00  0.00    +0.000 A 
ATOM     20  C   UNL     1      -1.731  12.245  19.268  0.00  0.00    +0.000 A 
ATOM     21  C   UNL     1      -2.079  12.926  20.434  0.00  0.00    +0.000 A 
ATOM     22  C   UNL     1      -1.539  12.533  21.656  0.00  0.00    +0.000 A 
ATOM     23  C   UNL     1      -0.668  11.446  21.720  0.00  0.00    +0.000 A 
ENDBRANCH  16  18
ENDBRANCH  12  13
BRANCH   5  24
ATOM     24  O   UNL     1       4.386   2.577  17.516  0.00  0.00    +0.000 OA
ATOM     25  H   UNL     1       4.569   2.494  18.471  0.00  0.00    +0.000 HD
ENDBRANCH   5  24
BRANCH   6  26
ATOM     26  O   UNL     1       6.142   3.257  15.557  0.00  0.00    +0.000 OA
ATOM     27  H   UNL     1       6.698   3.729  14.905  0.00  0.00    +0.000 HD
ENDBRANCH   6  26
TORSDOF 4
ENDMDL
MODEL 6
REMARK VINA RESULT:      -7.1      3.112      4.700
REMARK  Name = 
REMARK  5 active torsions:
REMARK  status: ('A' for Active; 'I' for Inactive)
REMARK    1  A    between atoms: C_1  and  C_2
REMARK    2  A    between atoms: C_5  and  O_6
REMARK    3  A    between atoms: C_7  and  O_8
REMARK    4  A    between atoms: C_14  and  C_15
REMARK    5  A    between atoms: N_18  and  C_19
REMARK                            x       y       z     vdW  Elec       q    Type
REMARK                         _______ _______ _______ _____ _____    ______ ____
ROOT
ATOM      1  C   UNL     1       1.631   6.030  20.663  0.00  0.00    +0.000 C 
ATOM      2  C   UNL     1       2.603   6.311  19.549  0.00  0.00    +0.000 A 
ATOM      3  O   UNL     1       3.568   5.324  19.417  0.00  0.00    +0.000 OA
ATOM      4  C   UNL     1       4.607   5.534  18.549  0.00  0.00    +0.000 A 
ATOM      5  C   UNL     1       5.622   4.583  18.504  0.00  0.00    +0.000 A 
ATOM      6  C   UNL     1       6.720   4.769  17.671  0.00  0.00    +0.000 A 
ATOM      7  C   UNL     1       6.821   5.896  16.864  0.00  0.00    +0.000 A 
ATOM      8  C   UNL     1       5.795   6.841  16.885  0.00  0.00    +0.000 A 
ATOM      9  C   UNL     1       4.689   6.652  17.727  0.00  0.00    +0.000 A 
ATOM     10  C   UNL     1       3.596   7.632  17.755  0.00  0.00    +0.000 A 
ATOM     11  O   UNL     1       3.589   8.581  16.979  0.00  0.00    +0.000 OA
ATOM     12  C   UNL     1       2.536   7.420  18.780  0.00  0.00    +0.000 A 
ENDROOT
BRANCH  12  13
ATOM     13  C   UNL     1       1.554   8.435  18.946  0.00  0.00    +0.000 A 
ATOM     14  C   UNL     1       0.696   9.022  18.007  0.00  0.00    +0.000 A 
ATOM     15  N   UNL     1      -0.140   9.899  18.568  0.00  0.00    +0.000 NA
ATOM     16  N   UNL     1       0.201   9.906  19.887  0.00  0.00    +0.000 N 
ATOM     17  C   UNL     1       1.248   9.044  20.137  0.00  0.00    +0.000 A 
BRANCH  16  18
ATOM     18  C   UNL     1      -0.528  10.666  20.843  0.00  0.00    +0.000 A 
ATOM     19  C   UNL     1      -1.336  11.729  20.419  0.00  0.00    +0.000 A 
ATOM     20  C   UNL     1      -2.119  12.424  21.344  0.00  0.00    +0.000 A 
ATOM     21  C   UNL     1      -2.095  12.069  22.692  0.00  0.00    +0.000 A 
ATOM     22  C   UNL     1      -1.271  11.032  23.123  0.00  0.00    +0.000 A 
ATOM     23  C   UNL     1      -0.486  10.334  22.206  0.00  0.00    +0.000 A 
ENDBRANCH  16  18
ENDBRANCH  12  13
BRANCH   5  24
ATOM     24  O   UNL     1       5.580   3.445  19.266  0.00  0.00    +0.000 OA
ATOM     25  H   UNL     1       5.764   2.697  18.666  0.00  0.00    +0.000 HD
ENDBRANCH   5  24
BRANCH   6  26
ATOM     26  O   UNL     1       7.718   3.840  17.636  0.00  0.00    +0.000 OA
ATOM     27  H   UNL     1       7.901   3.629  18.573  0.00  0.00    +0.000 HD
ENDBRANCH   6  26
TORSDOF 4
ENDMDL
MODEL 7
REMARK VINA RESULT:      -7.0      4.066      5.442
REMARK  Name = 
REMARK  5 active torsions:
REMARK  status: ('A' for Active; 'I' for Inactive)
REMARK    1  A    between atoms: C_1  and  C_2
REMARK    2  A    between atoms: C_5  and  O_6
REMARK    3  A    between atoms: C_7  and  O_8
REMARK    4  A    between atoms: C_14  and  C_15
REMARK    5  A    between atoms: N_18  and  C_19
REMARK                            x       y       z     vdW  Elec       q    Type
REMARK                         _______ _______ _______ _____ _____    ______ ____
ROOT
ATOM      1  C   UNL     1       3.907   7.950  17.310  0.00  0.00    +0.000 C 
ATOM      2  C   UNL     1       3.489   6.982  18.384  0.00  0.00    +0.000 A 
ATOM      3  O   UNL     1       4.292   5.852  18.430  0.00  0.00    +0.000 OA
ATOM      4  C   UNL     1       3.925   4.820  19.254  0.00  0.00    +0.000 A 
ATOM      5  C   UNL     1       4.681   3.652  19.211  0.00  0.00    +0.000 A 
ATOM      6  C   UNL     1       4.326   2.559  19.995  0.00  0.00    +0.000 A 
ATOM      7  C   UNL     1       3.224   2.614  20.839  0.00  0.00    +0.000 A 
ATOM      8  C   UNL     1       2.476   3.790  20.905  0.00  0.00    +0.000 A 
ATOM      9  C   UNL     1       2.835   4.891  20.113  0.00  0.00    +0.000 A 
ATOM     10  C   UNL     1       2.066   6.140  20.177  0.00  0.00    +0.000 A 
ATOM     11  O   UNL     1       1.156   6.271  20.989  0.00  0.00    +0.000 OA
ATOM     12  C   UNL     1       2.433   7.201  19.198  0.00  0.00    +0.000 A 
ENDROOT
BRANCH  12  13
ATOM     13  C   UNL     1       1.605   8.355  19.121  0.00  0.00    +0.000 A 
ATOM     14  C   UNL     1       1.053   8.997  18.005  0.00  0.00    +0.000 A 
ATOM     15  N   UNL     1       0.266  10.018  18.351  0.00  0.00    +0.000 NA
ATOM     16  N   UNL     1       0.332  10.061  19.711  0.00  0.00    +0.000 N 
ATOM     17  C   UNL     1       1.163   9.076  20.202  0.00  0.00    +0.000 A 
BRANCH  16  18
ATOM     18  C   UNL     1      -0.450  10.976  20.469  0.00  0.00    +0.000 A 
ATOM     19  C   UNL     1      -1.434  11.745  19.833  0.00  0.00    +0.000 A 
ATOM     20  C   UNL     1      -2.260  12.582  20.586  0.00  0.00    +0.000 A 
ATOM     21  C   UNL     1      -2.106  12.664  21.969  0.00  0.00    +0.000 A 
ATOM     22  C   UNL     1      -1.110  11.924  22.602  0.00  0.00    +0.000 A 
ATOM     23  C   UNL     1      -0.280  11.086  21.858  0.00  0.00    +0.000 A 
ENDBRANCH  16  18
ENDBRANCH  12  13
BRANCH   5  24
ATOM     24  O   UNL     1       5.786   3.534  18.409  0.00  0.00    +0.000 OA
ATOM     25  H   UNL     1       6.558   3.772  18.956  0.00  0.00    +0.000 HD
ENDBRANCH   5  24
BRANCH   6  26
ATOM     26  O   UNL     1       5.062   1.412  19.945  0.00  0.00    +0.000 OA
ATOM     27  H   UNL     1       4.421   0.709  19.718  0.00  0.00    +0.000 HD
ENDBRANCH   6  26
TORSDOF 4
ENDMDL
MODEL 8
REMARK VINA RESULT:      -7.0      6.144      9.673
REMARK  Name = 
REMARK  5 active torsions:
REMARK  status: ('A' for Active; 'I' for Inactive)
REMARK    1  A    between atoms: C_1  and  C_2
REMARK    2  A    between atoms: C_5  and  O_6
REMARK    3  A    between atoms: C_7  and  O_8
REMARK    4  A    between atoms: C_14  and  C_15
REMARK    5  A    between atoms: N_18  and  C_19
REMARK                            x       y       z     vdW  Elec       q    Type
REMARK                         _______ _______ _______ _____ _____    ______ ____
ROOT
ATOM      1  C   UNL     1      -1.190  13.284  19.431  0.00  0.00    +0.000 C 
ATOM      2  C   UNL     1      -0.536  12.109  20.107  0.00  0.00    +0.000 A 
ATOM      3  O   UNL     1       0.247  11.360  19.242  0.00  0.00    +0.000 OA
ATOM      4  C   UNL     1       0.769  10.175  19.690  0.00  0.00    +0.000 A 
ATOM      5  C   UNL     1       1.464   9.383  18.780  0.00  0.00    +0.000 A 
ATOM      6  C   UNL     1       1.977   8.151  19.173  0.00  0.00    +0.000 A 
ATOM      7  C   UNL     1       1.817   7.693  20.474  0.00  0.00    +0.000 A 
ATOM      8  C   UNL     1       1.143   8.492  21.398  0.00  0.00    +0.000 A 
ATOM      9  C   UNL     1       0.625   9.734  21.000  0.00  0.00    +0.000 A 
ATOM     10  C   UNL     1      -0.078  10.592  21.962  0.00  0.00    +0.000 A 
ATOM     11  O   UNL     1      -0.143  10.280  23.146  0.00  0.00    +0.000 OA
ATOM     12  C   UNL     1      -0.716  11.824  21.415  0.00  0.00    +0.000 A 
ENDROOT
BRANCH  12  13
ATOM     13  C   UNL     1      -1.542  12.589  22.283  0.00  0.00    +0.000 A 
ATOM     14  C   UNL     1      -1.204  13.601  23.191  0.00  0.00    +0.000 A 
ATOM     15  N   UNL     1      -2.280  14.132  23.776  0.00  0.00    +0.000 NA
ATOM     16  N   UNL     1      -3.332  13.433  23.265  0.00  0.00    +0.000 N 
ATOM     17  C   UNL     1      -2.906  12.470  22.375  0.00  0.00    +0.000 A 
BRANCH  16  18
ATOM     18  C   UNL     1      -4.676  13.765  23.587  0.00  0.00    +0.000 A 
ATOM     19  C   UNL     1      -5.075  15.108  23.614  0.00  0.00    +0.000 A 
ATOM     20  C   UNL     1      -6.414  15.434  23.846  0.00  0.00    +0.000 A 
ATOM     21  C   UNL     1      -7.355  14.429  24.060  0.00  0.00    +0.000 A 
ATOM     22  C   UNL     1      -6.959  13.094  24.065  0.00  0.00    +0.000 A 
ATOM     23  C   UNL     1      -5.624  12.759  23.834  0.00  0.00    +0.000 A 
ENDBRANCH  16  18
ENDBRANCH  12  13
BRANCH   5  24
ATOM     24  O   UNL     1       1.666   9.779  17.484  0.00  0.00    +0.000 OA
ATOM     25  H   UNL     1       1.576   8.982  16.928  0.00  0.00    +0.000 HD
ENDBRANCH   5  24
BRANCH   6  26
ATOM     26  O   UNL     1       2.650   7.373  18.277  0.00  0.00    +0.000 OA
ATOM     27  H   UNL     1       3.536   7.243  18.670  0.00  0.00    +0.000 HD
ENDBRANCH   6  26
TORSDOF 4
ENDMDL
MODEL 9
REMARK VINA RESULT:      -6.9      3.642      8.619
REMARK  Name = 
REMARK  5 active torsions:
REMARK  status: ('A' for Active; 'I' for Inactive)
REMARK    1  A    between atoms: C_1  and  C_2
REMARK    2  A    between atoms: C_5  and  O_6
REMARK    3  A    between atoms: C_7  and  O_8
REMARK    4  A    between atoms: C_14  and  C_15
REMARK    5  A    between atoms: N_18  and  C_19
REMARK                            x       y       z     vdW  Elec       q    Type
REMARK                         _______ _______ _______ _____ _____    ______ ____
ROOT
ATOM      1  C   UNL     1       2.090   5.396  21.014  0.00  0.00    +0.000 C 
ATOM      2  C   UNL     1       1.907   6.743  20.367  0.00  0.00    +0.000 A 
ATOM      3  O   UNL     1       1.305   7.665  21.210  0.00  0.00    +0.000 OA
ATOM      4  C   UNL     1       0.936   8.880  20.695  0.00  0.00    +0.000 A 
ATOM      5  C   UNL     1       0.239   9.755  21.524  0.00  0.00    +0.000 A 
ATOM      6  C   UNL     1      -0.196  10.983  21.038  0.00  0.00    +0.000 A 
ATOM      7  C   UNL     1       0.062  11.365  19.728  0.00  0.00    +0.000 A 
ATOM      8  C   UNL     1       0.782  10.504  18.898  0.00  0.00    +0.000 A 
ATOM      9  C   UNL     1       1.220   9.265  19.390  0.00  0.00    +0.000 A 
ATOM     10  C   UNL     1       1.986   8.351  18.534  0.00  0.00    +0.000 A 
ATOM     11  O   UNL     1       2.334   8.693  17.410  0.00  0.00    +0.000 OA
ATOM     12  C   UNL     1       2.283   7.002  19.096  0.00  0.00    +0.000 A 
ENDROOT
BRANCH  12  13
ATOM     13  C   UNL     1       2.877   6.037  18.237  0.00  0.00    +0.000 A 
ATOM     14  C   UNL     1       2.409   4.781  17.831  0.00  0.00    +0.000 A 
ATOM     15  N   UNL     1       3.230   4.198  16.955  0.00  0.00    +0.000 NA
ATOM     16  N   UNL     1       4.264   5.074  16.812  0.00  0.00    +0.000 N 
ATOM     17  C   UNL     1       4.085   6.189  17.603  0.00  0.00    +0.000 A 
BRANCH  16  18
ATOM     18  C   UNL     1       5.316   4.844  15.884  0.00  0.00    +0.000 A 
ATOM     19  C   UNL     1       5.054   4.161  14.689  0.00  0.00    +0.000 A 
ATOM     20  C   UNL     1       6.064   4.006  13.736  0.00  0.00    +0.000 A 
ATOM     21  C   UNL     1       7.337   4.523  13.972  0.00  0.00    +0.000 A 
ATOM     22  C   UNL     1       7.611   5.178  15.171  0.00  0.00    +0.000 A 
ATOM     23  C   UNL     1       6.608   5.335  16.127  0.00  0.00    +0.000 A 
ENDBRANCH  16  18
ENDBRANCH  12  13
BRANCH   5  24
ATOM     24  O   UNL     1      -0.041   9.445  22.829  0.00  0.00    +0.000 OA
ATOM     25  H   UNL     1       0.707   8.912  23.160  0.00  0.00    +0.000 HD
ENDBRANCH   5  24
BRANCH   6  26
ATOM     26  O   UNL     1      -0.887  11.835  21.850  0.00  0.00    +0.000 OA
ATOM     27  H   UNL     1      -1.515  11.265  22.338  0.00  0.00    +0.000 HD
ENDBRANCH   6  26
TORSDOF 4
ENDMDL
