MODEL 1
REMARK VINA RESULT:      -8.1      0.000      0.000
REMARK  Name = 
REMARK  11 active torsions:
REMARK  status: ('A' for Active; 'I' for Inactive)
REMARK    1  A    between atoms: C_1  and  C_2
REMARK    2  A    between atoms: C_2  and  C_3
REMARK    3  A    between atoms: C_4  and  C_5
REMARK    4  A    between atoms: C_12  and  C_13
REMARK    5  A    between atoms: C_12  and  O_14
REMARK    6  A    between atoms: C_15  and  O_16
REMARK    7  A    between atoms: C_20  and  C_21
REMARK    8  A    between atoms: C_21  and  C_22
REMARK    9  A    between atoms: C_21  and  C_23
REMARK   10  A    between atoms: C_23  and  C_24
REMARK   11  A    between atoms: C_24  and  O_25
REMARK                            x       y       z     vdW  Elec       q    Type
REMARK                         _______ _______ _______ _____ _____    ______ ____
ROOT
ATOM      1  C   UNL     1       6.969   7.687  17.354  0.00  0.00    +0.000 C 
ATOM      2  C   UNL     1       5.666   7.564  17.643  0.00  0.00    +0.000 C 
ATOM      3  C   UNL     1       4.904   6.366  17.338  0.00  0.00    +0.000 C 
ATOM      4  C   UNL     1       3.692   6.111  17.866  0.00  0.00    +0.000 C 
ATOM      5 CL   UNL     1       2.817   7.180  18.898  0.00  0.00    +0.000 Cl
ATOM      6  C   UNL     1       3.103   4.758  17.670  0.00  0.00    +0.000 C 
ATOM      7  O   UNL     1       1.888   4.581  17.696  0.00  0.00    +0.000 OA
ATOM      8  C   UNL     1       4.127   3.626  17.469  0.00  0.00    +0.000 C 
ATOM      9  C   UNL     1       3.406   2.298  17.227  0.00  0.00    +0.000 C 
ATOM     10  C   UNL     1       5.004   4.015  16.262  0.00  0.00    +0.000 C 
ATOM     11  C   UNL     1       5.649   5.416  16.402  0.00  0.00    +0.000 C 
ATOM     12  C   UNL     1       7.130   5.390  16.810  0.00  0.00    +0.000 C 
ATOM     13  O   UNL     1       7.721   6.698  16.751  0.00  0.00    +0.000 OA
ENDROOT
BRANCH   1  15
ATOM     14  C   UNL     1       8.594   9.036  18.677  0.00  0.00    +0.000 C 
ATOM     15  C   UNL     1       7.690   8.897  17.700  0.00  0.00    +0.000 C 
BRANCH  14  17
ATOM     16  C   UNL     1       9.354  10.721  20.435  0.00  0.00    +0.000 C 
ATOM     17  C   UNL     1       9.291  10.287  18.992  0.00  0.00    +0.000 C 
ATOM     18  C   UNL     1       9.841  11.020  17.999  0.00  0.00    +0.000 C 
BRANCH  18  19
ATOM     19  C   UNL     1      10.612  12.321  18.174  0.00  0.00    +0.000 C 
ATOM     20  C   UNL     1      12.049  12.170  17.655  0.00  0.00    +0.000 C 
BRANCH  19  21
ATOM     21  C   UNL     1       9.922  13.501  17.465  0.00  0.00    +0.000 C 
BRANCH  21  22
ATOM     22  C   UNL     1      10.780  14.761  17.423  0.00  0.00    +0.000 C 
BRANCH  22  23
ATOM     23  O   UNL     1      10.950  15.179  16.073  0.00  0.00    +0.000 OA
ATOM     24  H   UNL     1      10.073  15.419  15.731  0.00  0.00    +0.000 HD
ENDBRANCH  22  23
ENDBRANCH  21  22
ENDBRANCH  19  21
ENDBRANCH  18  19
ENDBRANCH  14  17
ENDBRANCH   1  15
BRANCH   8  25
ATOM     25  O   UNL     1       4.982   3.406  18.602  0.00  0.00    +0.000 OA
ATOM     26  H   UNL     1       4.553   2.804  19.235  0.00  0.00    +0.000 HD
ENDBRANCH   8  25
BRANCH  10  27
ATOM     27  O   UNL     1       6.008   3.019  16.043  0.00  0.00    +0.000 OA
ATOM     28  H   UNL     1       5.677   2.185  16.434  0.00  0.00    +0.000 HD
ENDBRANCH  10  27
TORSDOF 8
ENDMDL
MODEL 2
REMARK VINA RESULT:      -7.5      0.850      1.245
REMARK  Name = 
REMARK  11 active torsions:
REMARK  status: ('A' for Active; 'I' for Inactive)
REMARK    1  A    between atoms: C_1  and  C_2
REMARK    2  A    between atoms: C_2  and  C_3
REMARK    3  A    between atoms: C_4  and  C_5
REMARK    4  A    between atoms: C_12  and  C_13
REMARK    5  A    between atoms: C_12  and  O_14
REMARK    6  A    between atoms: C_15  and  O_16
REMARK    7  A    between atoms: C_20  and  C_21
REMARK    8  A    between atoms: C_21  and  C_22
REMARK    9  A    between atoms: C_21  and  C_23
REMARK   10  A    between atoms: C_23  and  C_24
REMARK   11  A    between atoms: C_24  and  O_25
REMARK                            x       y       z     vdW  Elec       q    Type
REMARK                         _______ _______ _______ _____ _____    ______ ____
ROOT
ATOM      1  C   UNL     1       7.105   7.529  17.392  0.00  0.00    +0.000 C 
ATOM      2  C   UNL     1       5.807   7.461  17.721  0.00  0.00    +0.000 C 
ATOM      3  C   UNL     1       4.978   6.309  17.413  0.00  0.00    +0.000 C 
ATOM      4  C   UNL     1       3.773   6.099  17.973  0.00  0.00    +0.000 C 
ATOM      5 CL   UNL     1       2.982   7.183  19.057  0.00  0.00    +0.000 Cl
ATOM      6  C   UNL     1       3.113   4.781  17.764  0.00  0.00    +0.000 C 
ATOM      7  O   UNL     1       1.892   4.662  17.825  0.00  0.00    +0.000 OA
ATOM      8  C   UNL     1       4.074   3.607  17.504  0.00  0.00    +0.000 C 
ATOM      9  C   UNL     1       3.282   2.321  17.255  0.00  0.00    +0.000 C 
ATOM     10  C   UNL     1       4.931   3.984  16.278  0.00  0.00    +0.000 C 
ATOM     11  C   UNL     1       5.647   5.348  16.431  0.00  0.00    +0.000 C 
ATOM     12  C   UNL     1       7.137   5.241  16.790  0.00  0.00    +0.000 C 
ATOM     13  O   UNL     1       7.789   6.520  16.743  0.00  0.00    +0.000 OA
ENDROOT
BRANCH   1  15
ATOM     14  C   UNL     1       7.649   9.961  17.386  0.00  0.00    +0.000 C 
ATOM     15  C   UNL     1       7.894   8.694  17.743  0.00  0.00    +0.000 C 
BRANCH  14  17
ATOM     16  C   UNL     1       7.996  12.488  17.406  0.00  0.00    +0.000 C 
ATOM     17  C   UNL     1       8.484  11.106  17.763  0.00  0.00    +0.000 C 
ATOM     18  C   UNL     1       9.660  10.903  18.396  0.00  0.00    +0.000 C 
BRANCH  18  19
ATOM     19  C   UNL     1      10.617  11.989  18.867  0.00  0.00    +0.000 C 
ATOM     20  C   UNL     1      11.222  11.621  20.230  0.00  0.00    +0.000 C 
BRANCH  19  21
ATOM     21  C   UNL     1      11.743  12.248  17.849  0.00  0.00    +0.000 C 
BRANCH  21  22
ATOM     22  C   UNL     1      11.740  13.671  17.300  0.00  0.00    +0.000 C 
BRANCH  22  23
ATOM     23  O   UNL     1      11.256  13.666  15.962  0.00  0.00    +0.000 OA
ATOM     24  H   UNL     1      11.724  12.960  15.487  0.00  0.00    +0.000 HD
ENDBRANCH  22  23
ENDBRANCH  21  22
ENDBRANCH  19  21
ENDBRANCH  18  19
ENDBRANCH  14  17
ENDBRANCH   1  15
BRANCH   8  25
ATOM     25  O   UNL     1       4.952   3.318  18.603  0.00  0.00    +0.000 OA
ATOM     26  H   UNL     1       4.740   2.448  18.984  0.00  0.00    +0.000 HD
ENDBRANCH   8  25
BRANCH  10  27
ATOM     27  O   UNL     1       5.878   2.946  16.004  0.00  0.00    +0.000 OA
ATOM     28  H   UNL     1       5.486   2.106  16.319  0.00  0.00    +0.000 HD
ENDBRANCH  10  27
TORSDOF 8
ENDMDL
MODEL 3
REMARK VINA RESULT:      -7.5      1.242      1.816
REMARK  Name = 
REMARK  11 active torsions:
REMARK  status: ('A' for Active; 'I' for Inactive)
REMARK    1  A    between atoms: C_1  and  C_2
REMARK    2  A    between atoms: C_2  and  C_3
REMARK    3  A    between atoms: C_4  and  C_5
REMARK    4  A    between atoms: C_12  and  C_13
REMARK    5  A    between atoms: C_12  and  O_14
REMARK    6  A    between atoms: C_15  and  O_16
REMARK    7  A    between atoms: C_20  and  C_21
REMARK    8  A    between atoms: C_21  and  C_22
REMARK    9  A    between atoms: C_21  and  C_23
REMARK   10  A    between atoms: C_23  and  C_24
REMARK   11  A    between atoms: C_24  and  O_25
REMARK                            x       y       z     vdW  Elec       q    Type
REMARK                         _______ _______ _______ _____ _____    ______ ____
ROOT
ATOM      1  C   UNL     1       6.863   7.716  17.297  0.00  0.00    +0.000 C 
ATOM      2  C   UNL     1       5.565   7.589  17.604  0.00  0.00    +0.000 C 
ATOM      3  C   UNL     1       4.808   6.380  17.333  0.00  0.00    +0.000 C 
ATOM      4  C   UNL     1       3.605   6.125  17.880  0.00  0.00    +0.000 C 
ATOM      5 CL   UNL     1       2.733   7.209  18.900  0.00  0.00    +0.000 Cl
ATOM      6  C   UNL     1       3.024   4.765  17.717  0.00  0.00    +0.000 C 
ATOM      7  O   UNL     1       1.811   4.579  17.762  0.00  0.00    +0.000 OA
ATOM      8  C   UNL     1       4.055   3.637  17.527  0.00  0.00    +0.000 C 
ATOM      9  C   UNL     1       3.341   2.299  17.321  0.00  0.00    +0.000 C 
ATOM     10  C   UNL     1       4.914   4.008  16.302  0.00  0.00    +0.000 C 
ATOM     11  C   UNL     1       5.550   5.416  16.407  0.00  0.00    +0.000 C 
ATOM     12  C   UNL     1       7.036   5.410  16.798  0.00  0.00    +0.000 C 
ATOM     13  O   UNL     1       7.616   6.720  16.706  0.00  0.00    +0.000 OA
ENDROOT
BRANCH   1  15
ATOM     14  C   UNL     1       8.604   9.068  18.461  0.00  0.00    +0.000 C 
ATOM     15  C   UNL     1       7.578   8.938  17.610  0.00  0.00    +0.000 C 
BRANCH  14  17
ATOM     16  C   UNL     1       9.907  11.083  17.596  0.00  0.00    +0.000 C 
ATOM     17  C   UNL     1       9.290  10.331  18.749  0.00  0.00    +0.000 C 
ATOM     18  C   UNL     1       9.369  10.780  20.021  0.00  0.00    +0.000 C 
BRANCH  18  19
ATOM     19  C   UNL     1      10.026  12.078  20.468  0.00  0.00    +0.000 C 
ATOM     20  C   UNL     1       9.548  12.468  21.875  0.00  0.00    +0.000 C 
BRANCH  19  21
ATOM     21  C   UNL     1      11.562  11.986  20.446  0.00  0.00    +0.000 C 
BRANCH  21  22
ATOM     22  C   UNL     1      12.211  12.993  19.502  0.00  0.00    +0.000 C 
BRANCH  22  23
ATOM     23  O   UNL     1      11.848  14.314  19.888  0.00  0.00    +0.000 OA
ATOM     24  H   UNL     1      11.740  14.834  19.074  0.00  0.00    +0.000 HD
ENDBRANCH  22  23
ENDBRANCH  21  22
ENDBRANCH  19  21
ENDBRANCH  18  19
ENDBRANCH  14  17
ENDBRANCH   1  15
BRANCH   8  25
ATOM     25  O   UNL     1       4.924   3.446  18.655  0.00  0.00    +0.000 OA
ATOM     26  H   UNL     1       5.071   4.292  19.113  0.00  0.00    +0.000 HD
ENDBRANCH   8  25
BRANCH  10  27
ATOM     27  O   UNL     1       5.924   3.015  16.092  0.00  0.00    +0.000 OA
ATOM     28  H   UNL     1       6.702   3.472  15.709  0.00  0.00    +0.000 HD
ENDBRANCH  10  27
TORSDOF 8
ENDMDL
MODEL 4
REMARK VINA RESULT:      -7.5      1.013      1.352
REMARK  Name = 
REMARK  11 active torsions:
REMARK  status: ('A' for Active; 'I' for Inactive)
REMARK    1  A    between atoms: C_1  and  C_2
REMARK    2  A    between atoms: C_2  and  C_3
REMARK    3  A    between atoms: C_4  and  C_5
REMARK    4  A    between atoms: C_12  and  C_13
REMARK    5  A    between atoms: C_12  and  O_14
REMARK    6  A    between atoms: C_15  and  O_16
REMARK    7  A    between atoms: C_20  and  C_21
REMARK    8  A    between atoms: C_21  and  C_22
REMARK    9  A    between atoms: C_21  and  C_23
REMARK   10  A    between atoms: C_23  and  C_24
REMARK   11  A    between atoms: C_24  and  O_25
REMARK                            x       y       z     vdW  Elec       q    Type
REMARK                         _______ _______ _______ _____ _____    ______ ____
ROOT
ATOM      1  C   UNL     1       7.050   7.642  17.304  0.00  0.00    +0.000 C 
ATOM      2  C   UNL     1       5.750   7.577  17.621  0.00  0.00    +0.000 C 
ATOM      3  C   UNL     1       4.935   6.405  17.353  0.00  0.00    +0.000 C 
ATOM      4  C   UNL     1       3.725   6.207  17.909  0.00  0.00    +0.000 C 
ATOM      5 CL   UNL     1       2.914   7.327  18.940  0.00  0.00    +0.000 Cl
ATOM      6  C   UNL     1       3.079   4.876  17.748  0.00  0.00    +0.000 C 
ATOM      7  O   UNL     1       1.859   4.748  17.802  0.00  0.00    +0.000 OA
ATOM      8  C   UNL     1       4.054   3.701  17.546  0.00  0.00    +0.000 C 
ATOM      9  C   UNL     1       3.276   2.398  17.343  0.00  0.00    +0.000 C 
ATOM     10  C   UNL     1       4.919   4.034  16.315  0.00  0.00    +0.000 C 
ATOM     11  C   UNL     1       5.622   5.410  16.419  0.00  0.00    +0.000 C 
ATOM     12  C   UNL     1       7.110   5.332  16.797  0.00  0.00    +0.000 C 
ATOM     13  O   UNL     1       7.750   6.614  16.704  0.00  0.00    +0.000 OA
ENDROOT
BRANCH   1  15
ATOM     14  C   UNL     1       8.569   9.033  18.709  0.00  0.00    +0.000 C 
ATOM     15  C   UNL     1       7.825   8.829  17.614  0.00  0.00    +0.000 C 
BRANCH  14  17
ATOM     16  C   UNL     1       9.905  11.009  17.806  0.00  0.00    +0.000 C 
ATOM     17  C   UNL     1       9.330  10.256  18.980  0.00  0.00    +0.000 C 
ATOM     18  C   UNL     1       9.512  10.668  20.254  0.00  0.00    +0.000 C 
BRANCH  18  19
ATOM     19  C   UNL     1      10.256  11.923  20.686  0.00  0.00    +0.000 C 
ATOM     20  C   UNL     1      11.671  11.946  20.089  0.00  0.00    +0.000 C 
BRANCH  19  21
ATOM     21  C   UNL     1       9.502  13.206  20.292  0.00  0.00    +0.000 C 
BRANCH  21  22
ATOM     22  C   UNL     1      10.372  14.207  19.539  0.00  0.00    +0.000 C 
BRANCH  22  23
ATOM     23  O   UNL     1       9.742  14.563  18.313  0.00  0.00    +0.000 OA
ATOM     24  H   UNL     1       8.936  15.057  18.534  0.00  0.00    +0.000 HD
ENDBRANCH  22  23
ENDBRANCH  21  22
ENDBRANCH  19  21
ENDBRANCH  18  19
ENDBRANCH  14  17
ENDBRANCH   1  15
BRANCH   8  25
ATOM     25  O   UNL     1       4.922   3.466  18.666  0.00  0.00    +0.000 OA
ATOM     26  H   UNL     1       4.852   2.540  18.959  0.00  0.00    +0.000 HD
ENDBRANCH   8  25
BRANCH  10  27
ATOM     27  O   UNL     1       5.879   2.996  16.093  0.00  0.00    +0.000 OA
ATOM     28  H   UNL     1       6.633   3.397  15.614  0.00  0.00    +0.000 HD
ENDBRANCH  10  27
TORSDOF 8
ENDMDL
MODEL 5
REMARK VINA RESULT:      -7.3      1.750      2.043
REMARK  Name = 
REMARK  11 active torsions:
REMARK  status: ('A' for Active; 'I' for Inactive)
REMARK    1  A    between atoms: C_1  and  C_2
REMARK    2  A    between atoms: C_2  and  C_3
REMARK    3  A    between atoms: C_4  and  C_5
REMARK    4  A    between atoms: C_12  and  C_13
REMARK    5  A    between atoms: C_12  and  O_14
REMARK    6  A    between atoms: C_15  and  O_16
REMARK    7  A    between atoms: C_20  and  C_21
REMARK    8  A    between atoms: C_21  and  C_22
REMARK    9  A    between atoms: C_21  and  C_23
REMARK   10  A    between atoms: C_23  and  C_24
REMARK   11  A    between atoms: C_24  and  O_25
REMARK                            x       y       z     vdW  Elec       q    Type
REMARK                         _______ _______ _______ _____ _____    ______ ____
ROOT
ATOM      1  C   UNL     1       7.050   7.647  17.278  0.00  0.00    +0.000 C 
ATOM      2  C   UNL     1       5.750   7.584  17.598  0.00  0.00    +0.000 C 
ATOM      3  C   UNL     1       4.934   6.411  17.338  0.00  0.00    +0.000 C 
ATOM      4  C   UNL     1       3.725   6.217  17.897  0.00  0.00    +0.000 C 
ATOM      5 CL   UNL     1       2.916   7.344  18.921  0.00  0.00    +0.000 Cl
ATOM      6  C   UNL     1       3.078   4.886  17.745  0.00  0.00    +0.000 C 
ATOM      7  O   UNL     1       1.858   4.759  17.801  0.00  0.00    +0.000 OA
ATOM      8  C   UNL     1       4.051   3.709  17.549  0.00  0.00    +0.000 C 
ATOM      9  C   UNL     1       3.272   2.406  17.354  0.00  0.00    +0.000 C 
ATOM     10  C   UNL     1       4.916   4.034  16.315  0.00  0.00    +0.000 C 
ATOM     11  C   UNL     1       5.619   5.411  16.409  0.00  0.00    +0.000 C 
ATOM     12  C   UNL     1       7.107   5.334  16.786  0.00  0.00    +0.000 C 
ATOM     13  O   UNL     1       7.749   6.615  16.684  0.00  0.00    +0.000 OA
ENDROOT
BRANCH   1  15
ATOM     14  C   UNL     1       8.513   9.075  18.705  0.00  0.00    +0.000 C 
ATOM     15  C   UNL     1       7.826   8.834  17.581  0.00  0.00    +0.000 C 
BRANCH  14  17
ATOM     16  C   UNL     1       9.628  11.180  17.793  0.00  0.00    +0.000 C 
ATOM     17  C   UNL     1       9.278  10.298  18.965  0.00  0.00    +0.000 C 
ATOM     18  C   UNL     1       9.662  10.597  20.226  0.00  0.00    +0.000 C 
BRANCH  18  19
ATOM     19  C   UNL     1      10.436  11.836  20.652  0.00  0.00    +0.000 C 
ATOM     20  C   UNL     1      11.839  11.837  20.027  0.00  0.00    +0.000 C 
BRANCH  19  21
ATOM     21  C   UNL     1       9.697  13.135  20.279  0.00  0.00    +0.000 C 
BRANCH  21  22
ATOM     22  C   UNL     1       8.637  13.537  21.299  0.00  0.00    +0.000 C 
BRANCH  22  23
ATOM     23  O   UNL     1       9.070  13.178  22.606  0.00  0.00    +0.000 OA
ATOM     24  H   UNL     1       8.906  13.940  23.186  0.00  0.00    +0.000 HD
ENDBRANCH  22  23
ENDBRANCH  21  22
ENDBRANCH  19  21
ENDBRANCH  18  19
ENDBRANCH  14  17
ENDBRANCH   1  15
BRANCH   8  25
ATOM     25  O   UNL     1       4.921   3.480  18.669  0.00  0.00    +0.000 OA
ATOM     26  H   UNL     1       4.524   2.831  19.276  0.00  0.00    +0.000 HD
ENDBRANCH   8  25
BRANCH  10  27
ATOM     27  O   UNL     1       5.875   2.994  16.098  0.00  0.00    +0.000 OA
ATOM     28  H   UNL     1       5.374   2.184  15.868  0.00  0.00    +0.000 HD
ENDBRANCH  10  27
TORSDOF 8
ENDMDL
MODEL 6
REMARK VINA RESULT:      -7.2      2.910      9.830
REMARK  Name = 
REMARK  11 active torsions:
REMARK  status: ('A' for Active; 'I' for Inactive)
REMARK    1  A    between atoms: C_1  and  C_2
REMARK    2  A    between atoms: C_2  and  C_3
REMARK    3  A    between atoms: C_4  and  C_5
REMARK    4  A    between atoms: C_12  and  C_13
REMARK    5  A    between atoms: C_12  and  O_14
REMARK    6  A    between atoms: C_15  and  O_16
REMARK    7  A    between atoms: C_20  and  C_21
REMARK    8  A    between atoms: C_21  and  C_22
REMARK    9  A    between atoms: C_21  and  C_23
REMARK   10  A    between atoms: C_23  and  C_24
REMARK   11  A    between atoms: C_24  and  O_25
REMARK                            x       y       z     vdW  Elec       q    Type
REMARK                         _______ _______ _______ _____ _____    ______ ____
ROOT
ATOM      1  C   UNL     1       9.421  10.404  18.947  0.00  0.00    +0.000 C 
ATOM      2  C   UNL     1       9.433  11.158  20.056  0.00  0.00    +0.000 C 
ATOM      3  C   UNL     1      10.130  12.429  20.133  0.00  0.00    +0.000 C 
ATOM      4  C   UNL     1       9.923  13.324  21.117  0.00  0.00    +0.000 C 
ATOM      5 CL   UNL     1       8.888  13.079  22.475  0.00  0.00    +0.000 Cl
ATOM      6  C   UNL     1      10.514  14.682  20.978  0.00  0.00    +0.000 C 
ATOM      7  O   UNL     1      10.771  15.370  21.962  0.00  0.00    +0.000 OA
ATOM      8  C   UNL     1      10.737  15.148  19.528  0.00  0.00    +0.000 C 
ATOM      9  C   UNL     1      11.393  16.531  19.512  0.00  0.00    +0.000 C 
ATOM     10  C   UNL     1      11.634  14.096  18.845  0.00  0.00    +0.000 C 
ATOM     11  C   UNL     1      11.075  12.656  18.954  0.00  0.00    +0.000 C 
ATOM     12  C   UNL     1      10.391  12.147  17.675  0.00  0.00    +0.000 C 
ATOM     13  O   UNL     1      10.053  10.754  17.770  0.00  0.00    +0.000 OA
ENDROOT
BRANCH   1  15
ATOM     14  C   UNL     1       8.198   8.541  17.831  0.00  0.00    +0.000 C 
ATOM     15  C   UNL     1       8.690   9.152  18.916  0.00  0.00    +0.000 C 
BRANCH  14  17
ATOM     16  C   UNL     1       7.929   6.194  18.794  0.00  0.00    +0.000 C 
ATOM     17  C   UNL     1       7.458   7.275  17.854  0.00  0.00    +0.000 C 
ATOM     18  C   UNL     1       6.397   7.100  17.035  0.00  0.00    +0.000 C 
BRANCH  18  19
ATOM     19  C   UNL     1       5.522   5.857  16.964  0.00  0.00    +0.000 C 
ATOM     20  C   UNL     1       4.091   6.178  17.419  0.00  0.00    +0.000 C 
BRANCH  19  21
ATOM     21  C   UNL     1       5.497   5.249  15.550  0.00  0.00    +0.000 C 
BRANCH  21  22
ATOM     22  C   UNL     1       6.394   4.024  15.407  0.00  0.00    +0.000 C 
BRANCH  22  23
ATOM     23  O   UNL     1       6.333   3.539  14.070  0.00  0.00    +0.000 OA
ATOM     24  H   UNL     1       5.910   2.665  14.098  0.00  0.00    +0.000 HD
ENDBRANCH  22  23
ENDBRANCH  21  22
ENDBRANCH  19  21
ENDBRANCH  18  19
ENDBRANCH  14  17
ENDBRANCH   1  15
BRANCH   8  25
ATOM     25  O   UNL     1       9.527  15.281  18.766  0.00  0.00    +0.000 OA
ATOM     26  H   UNL     1       9.540  14.675  18.004  0.00  0.00    +0.000 HD
ENDBRANCH   8  25
BRANCH  10  27
ATOM     27  O   UNL     1      11.850  14.449  17.474  0.00  0.00    +0.000 OA
ATOM     28  H   UNL     1      10.969  14.606  17.075  0.00  0.00    +0.000 HD
ENDBRANCH  10  27
TORSDOF 8
ENDMDL
MODEL 7
REMARK VINA RESULT:      -7.1      2.983      9.732
REMARK  Name = 
REMARK  11 active torsions:
REMARK  status: ('A' for Active; 'I' for Inactive)
REMARK    1  A    between atoms: C_1  and  C_2
REMARK    2  A    between atoms: C_2  and  C_3
REMARK    3  A    between atoms: C_4  and  C_5
REMARK    4  A    between atoms: C_12  and  C_13
REMARK    5  A    between atoms: C_12  and  O_14
REMARK    6  A    between atoms: C_15  and  O_16
REMARK    7  A    between atoms: C_20  and  C_21
REMARK    8  A    between atoms: C_21  and  C_22
REMARK    9  A    between atoms: C_21  and  C_23
REMARK   10  A    between atoms: C_23  and  C_24
REMARK   11  A    between atoms: C_24  and  O_25
REMARK                            x       y       z     vdW  Elec       q    Type
REMARK                         _______ _______ _______ _____ _____    ______ ____
ROOT
ATOM      1  C   UNL     1       9.504  11.014  18.545  0.00  0.00    +0.000 C 
ATOM      2  C   UNL     1       9.094  11.975  19.385  0.00  0.00    +0.000 C 
ATOM      3  C   UNL     1       9.562  13.346  19.297  0.00  0.00    +0.000 C 
ATOM      4  C   UNL     1       8.962  14.371  19.930  0.00  0.00    +0.000 C 
ATOM      5 CL   UNL     1       7.621  14.222  21.005  0.00  0.00    +0.000 Cl
ATOM      6  C   UNL     1       9.380  15.759  19.591  0.00  0.00    +0.000 C 
ATOM      7  O   UNL     1       9.247  16.679  20.392  0.00  0.00    +0.000 OA
ATOM      8  C   UNL     1       9.948  15.937  18.171  0.00  0.00    +0.000 C 
ATOM      9  C   UNL     1      10.388  17.387  17.956  0.00  0.00    +0.000 C 
ATOM     10  C   UNL     1      11.136  14.964  18.031  0.00  0.00    +0.000 C 
ATOM     11  C   UNL     1      10.768  13.499  18.371  0.00  0.00    +0.000 C 
ATOM     12  C   UNL     1      10.557  12.600  17.142  0.00  0.00    +0.000 C 
ATOM     13  O   UNL     1      10.396  11.222  17.512  0.00  0.00    +0.000 OA
ENDROOT
BRANCH   1  15
ATOM     14  C   UNL     1       8.241   9.012  17.763  0.00  0.00    +0.000 C 
ATOM     15  C   UNL     1       8.988   9.663  18.663  0.00  0.00    +0.000 C 
BRANCH  14  17
ATOM     16  C   UNL     1       8.296   6.819  19.064  0.00  0.00    +0.000 C 
ATOM     17  C   UNL     1       7.737   7.646  17.933  0.00  0.00    +0.000 C 
ATOM     18  C   UNL     1       6.811   7.158  17.079  0.00  0.00    +0.000 C 
BRANCH  18  19
ATOM     19  C   UNL     1       6.180   5.775  17.143  0.00  0.00    +0.000 C 
ATOM     20  C   UNL     1       4.781   5.789  16.511  0.00  0.00    +0.000 C 
BRANCH  19  21
ATOM     21  C   UNL     1       7.053   4.710  16.455  0.00  0.00    +0.000 C 
BRANCH  21  22
ATOM     22  C   UNL     1       6.829   4.631  14.948  0.00  0.00    +0.000 C 
BRANCH  22  23
ATOM     23  O   UNL     1       7.747   5.490  14.282  0.00  0.00    +0.000 OA
ATOM     24  H   UNL     1       8.510   5.611  14.870  0.00  0.00    +0.000 HD
ENDBRANCH  22  23
ENDBRANCH  21  22
ENDBRANCH  19  21
ENDBRANCH  18  19
ENDBRANCH  14  17
ENDBRANCH   1  15
BRANCH   8  25
ATOM     25  O   UNL     1       9.003  15.658  17.126  0.00  0.00    +0.000 OA
ATOM     26  H   UNL     1       8.736  14.722  17.155  0.00  0.00    +0.000 HD
ENDBRANCH   8  25
BRANCH  10  27
ATOM     27  O   UNL     1      11.689  15.051  16.713  0.00  0.00    +0.000 OA
ATOM     28  H   UNL     1      11.364  14.274  16.213  0.00  0.00    +0.000 HD
ENDBRANCH  10  27
TORSDOF 8
ENDMDL
MODEL 8
REMARK VINA RESULT:      -7.1      1.140      1.208
REMARK  Name = 
REMARK  11 active torsions:
REMARK  status: ('A' for Active; 'I' for Inactive)
REMARK    1  A    between atoms: C_1  and  C_2
REMARK    2  A    between atoms: C_2  and  C_3
REMARK    3  A    between atoms: C_4  and  C_5
REMARK    4  A    between atoms: C_12  and  C_13
REMARK    5  A    between atoms: C_12  and  O_14
REMARK    6  A    between atoms: C_15  and  O_16
REMARK    7  A    between atoms: C_20  and  C_21
REMARK    8  A    between atoms: C_21  and  C_22
REMARK    9  A    between atoms: C_21  and  C_23
REMARK   10  A    between atoms: C_23  and  C_24
REMARK   11  A    between atoms: C_24  and  O_25
REMARK                            x       y       z     vdW  Elec       q    Type
REMARK                         _______ _______ _______ _____ _____    ______ ____
ROOT
ATOM      1  C   UNL     1       7.280   7.245  17.429  0.00  0.00    +0.000 C 
ATOM      2  C   UNL     1       5.977   7.279  17.742  0.00  0.00    +0.000 C 
ATOM      3  C   UNL     1       5.057   6.214  17.387  0.00  0.00    +0.000 C 
ATOM      4  C   UNL     1       3.831   6.089  17.928  0.00  0.00    +0.000 C 
ATOM      5 CL   UNL     1       3.123   7.201  19.041  0.00  0.00    +0.000 Cl
ATOM      6  C   UNL     1       3.063   4.842  17.668  0.00  0.00    +0.000 C 
ATOM      7  O   UNL     1       1.836   4.826  17.713  0.00  0.00    +0.000 OA
ATOM      8  C   UNL     1       3.923   3.598  17.377  0.00  0.00    +0.000 C 
ATOM      9  C   UNL     1       3.026   2.394  17.076  0.00  0.00    +0.000 C 
ATOM     10  C   UNL     1       4.824   3.940  16.173  0.00  0.00    +0.000 C 
ATOM     11  C   UNL     1       5.653   5.231  16.379  0.00  0.00    +0.000 C 
ATOM     12  C   UNL     1       7.124   4.984  16.749  0.00  0.00    +0.000 C 
ATOM     13  O   UNL     1       7.884   6.203  16.752  0.00  0.00    +0.000 OA
ENDROOT
BRANCH   1  15
ATOM     14  C   UNL     1       7.835   9.618  17.955  0.00  0.00    +0.000 C 
ATOM     15  C   UNL     1       8.162   8.325  17.827  0.00  0.00    +0.000 C 
BRANCH  14  17
ATOM     16  C   UNL     1       9.724  10.388  19.486  0.00  0.00    +0.000 C 
ATOM     17  C   UNL     1       8.768  10.675  18.355  0.00  0.00    +0.000 C 
ATOM     18  C   UNL     1       8.742  11.871  17.725  0.00  0.00    +0.000 C 
BRANCH  18  19
ATOM     19  C   UNL     1       9.659  13.050  18.013  0.00  0.00    +0.000 C 
ATOM     20  C   UNL     1      10.824  13.085  17.012  0.00  0.00    +0.000 C 
BRANCH  19  21
ATOM     21  C   UNL     1       8.904  14.391  17.983  0.00  0.00    +0.000 C 
BRANCH  21  22
ATOM     22  C   UNL     1       9.397  15.383  19.031  0.00  0.00    +0.000 C 
BRANCH  22  23
ATOM     23  O   UNL     1       9.988  14.678  20.117  0.00  0.00    +0.000 OA
ATOM     24  H   UNL     1      10.802  15.149  20.360  0.00  0.00    +0.000 HD
ENDBRANCH  22  23
ENDBRANCH  21  22
ENDBRANCH  19  21
ENDBRANCH  18  19
ENDBRANCH  14  17
ENDBRANCH   1  15
BRANCH   8  25
ATOM     25  O   UNL     1       4.758   3.198  18.474  0.00  0.00    +0.000 OA
ATOM     26  H   UNL     1       5.645   3.588  18.381  0.00  0.00    +0.000 HD
ENDBRANCH   8  25
BRANCH  10  27
ATOM     27  O   UNL     1       5.682   2.834  15.873  0.00  0.00    +0.000 OA
ATOM     28  H   UNL     1       6.132   3.040  15.027  0.00  0.00    +0.000 HD
ENDBRANCH  10  27
TORSDOF 8
ENDMDL
MODEL 9
REMARK VINA RESULT:      -7.1      5.960      7.502
REMARK  Name = 
REMARK  11 active torsions:
REMARK  status: ('A' for Active; 'I' for Inactive)
REMARK    1  A    between atoms: C_1  and  C_2
REMARK    2  A    between atoms: C_2  and  C_3
REMARK    3  A    between atoms: C_4  and  C_5
REMARK    4  A    between atoms: C_12  and  C_13
REMARK    5  A    between atoms: C_12  and  O_14
REMARK    6  A    between atoms: C_15  and  O_16
REMARK    7  A    between atoms: C_20  and  C_21
REMARK    8  A    between atoms: C_21  and  C_22
REMARK    9  A    between atoms: C_21  and  C_23
REMARK   10  A    between atoms: C_23  and  C_24
REMARK   11  A    between atoms: C_24  and  O_25
REMARK                            x       y       z     vdW  Elec       q    Type
REMARK                         _______ _______ _______ _____ _____    ______ ____
ROOT
ATOM      1  C   UNL     1       1.741   7.344  20.301  0.00  0.00    +0.000 C 
ATOM      2  C   UNL     1       2.657   7.124  19.348  0.00  0.00    +0.000 C 
ATOM      3  C   UNL     1       3.185   5.804  19.056  0.00  0.00    +0.000 C 
ATOM      4  C   UNL     1       3.876   5.518  17.936  0.00  0.00    +0.000 C 
ATOM      5 CL   UNL     1       4.324   6.667  16.730  0.00  0.00    +0.000 Cl
ATOM      6  C   UNL     1       4.170   4.093  17.627  0.00  0.00    +0.000 C 
ATOM      7  O   UNL     1       5.133   3.775  16.935  0.00  0.00    +0.000 OA
ATOM      8  C   UNL     1       3.166   3.081  18.210  0.00  0.00    +0.000 C 
ATOM      9  C   UNL     1       3.598   1.653  17.871  0.00  0.00    +0.000 C 
ATOM     10  C   UNL     1       3.126   3.307  19.734  0.00  0.00    +0.000 C 
ATOM     11  C   UNL     1       2.824   4.774  20.126  0.00  0.00    +0.000 C 
ATOM     12  C   UNL     1       1.374   5.022  20.573  0.00  0.00    +0.000 C 
ATOM     13  O   UNL     1       1.197   6.350  21.092  0.00  0.00    +0.000 OA
ENDROOT
BRANCH   1  15
ATOM     14  C   UNL     1       0.374   9.050  21.500  0.00  0.00    +0.000 C 
ATOM     15  C   UNL     1       1.230   8.680  20.539  0.00  0.00    +0.000 C 
BRANCH  14  17
ATOM     16  C   UNL     1      -0.910  10.716  22.942  0.00  0.00    +0.000 C 
ATOM     17  C   UNL     1      -0.118  10.417  21.694  0.00  0.00    +0.000 C 
ATOM     18  C   UNL     1       0.130  11.361  20.759  0.00  0.00    +0.000 C 
BRANCH  18  19
ATOM     19  C   UNL     1      -0.295  12.820  20.833  0.00  0.00    +0.000 C 
ATOM     20  C   UNL     1       0.850  13.689  21.374  0.00  0.00    +0.000 C 
BRANCH  19  21
ATOM     21  C   UNL     1      -0.757  13.357  19.466  0.00  0.00    +0.000 C 
BRANCH  21  22
ATOM     22  C   UNL     1      -1.494  12.317  18.630  0.00  0.00    +0.000 C 
BRANCH  22  23
ATOM     23  O   UNL     1      -1.307  12.593  17.247  0.00  0.00    +0.000 OA
ATOM     24  H   UNL     1      -2.186  12.725  16.856  0.00  0.00    +0.000 HD
ENDBRANCH  22  23
ENDBRANCH  21  22
ENDBRANCH  19  21
ENDBRANCH  18  19
ENDBRANCH  14  17
ENDBRANCH   1  15
BRANCH   8  25
ATOM     25  O   UNL     1       1.834   3.219  17.692  0.00  0.00    +0.000 OA
ATOM     26  H   UNL     1       1.183   3.135  18.411  0.00  0.00    +0.000 HD
ENDBRANCH   8  25
BRANCH  10  27
ATOM     27  O   UNL     1       2.177   2.421  20.338  0.00  0.00    +0.000 OA
ATOM     28  H   UNL     1       2.339   2.439  21.304  0.00  0.00    +0.000 HD
ENDBRANCH  10  27
TORSDOF 8
ENDMDL
