MODEL 1
REMARK VINA RESULT:      -8.4      0.000      0.000
REMARK  Name = 
REMARK  5 active torsions:
REMARK  status: ('A' for Active; 'I' for Inactive)
REMARK    1  A    between atoms: C_1  and  N_2
REMARK    2  A    between atoms: C_13  and  C_14
REMARK    3  A    between atoms: C_13  and  C_15
REMARK    4  A    between atoms: C_17  and  C_18
REMARK    5  A    between atoms: N_25  and  C_26
REMARK                            x       y       z     vdW  Elec       q    Type
REMARK                         _______ _______ _______ _____ _____    ______ ____
ROOT
ATOM      1  C   UNL     1       4.616   6.081  17.390  0.00  0.00    +0.000 C 
ATOM      2  N   UNL     1       3.514   5.932  18.305  0.00  0.00    +0.000 N 
ATOM      3  C   UNL     1       2.825   6.948  18.940  0.00  0.00    +0.000 A 
ATOM      4  C   UNL     1       2.567   8.228  18.491  0.00  0.00    +0.000 A 
ATOM      5  C   UNL     1       1.736   9.086  19.244  0.00  0.00    +0.000 A 
ATOM      6  C   UNL     1       1.194   8.653  20.490  0.00  0.00    +0.000 A 
ATOM      7  C   UNL     1       1.490   7.356  20.928  0.00  0.00    +0.000 A 
ATOM      8  C   UNL     1       2.273   6.525  20.144  0.00  0.00    +0.000 A 
ATOM      9  C   UNL     1       2.752   5.130  20.437  0.00  0.00    +0.000 C 
ATOM     10  C   UNL     1       1.796   4.211  21.184  0.00  0.00    +0.000 C 
ATOM     11  C   UNL     1       0.685   3.666  20.308  0.00  0.00    +0.000 C 
ATOM     12  C   UNL     1       1.286   2.934  19.117  0.00  0.00    +0.000 C 
ATOM     13  C   UNL     1       2.116   3.854  18.191  0.00  0.00    +0.000 C 
ATOM     14  C   UNL     1       2.841   2.949  17.170  0.00  0.00    +0.000 C 
ATOM     15  C   UNL     1       1.135   4.745  17.385  0.00  0.00    +0.000 C 
ATOM     16  C   UNL     1       3.191   4.673  19.006  0.00  0.00    +0.000 C 
ATOM     17  C   UNL     1       0.357   9.578  21.281  0.00  0.00    +0.000 A 
ATOM     18  C   UNL     1       0.175  10.822  20.811  0.00  0.00    +0.000 A 
ATOM     19  C   UNL     1       0.683  11.295  19.515  0.00  0.00    +0.000 A 
ATOM     20  O   UNL     1       0.408  12.438  19.169  0.00  0.00    +0.000 OA
ATOM     21  N   UNL     1       1.424  10.398  18.764  0.00  0.00    +0.000 N 
ATOM     22  C   UNL     1       1.878  10.826  17.449  0.00  0.00    +0.000 C 
ENDROOT
BRANCH  17  23
ATOM     23  C   UNL     1      -0.318   9.237  22.581  0.00  0.00    +0.000 C 
ATOM     24  F   UNL     1       0.490   9.067  23.653  0.00  0.00    +0.000 F 
ATOM     25  F   UNL     1      -1.216  10.196  22.931  0.00  0.00    +0.000 F 
ATOM     26  F   UNL     1      -1.024   8.079  22.468  0.00  0.00    +0.000 F 
ENDBRANCH  17  23
TORSDOF 1
ENDMDL
MODEL 2
REMARK VINA RESULT:      -7.5      8.792     10.126
REMARK  Name = 
REMARK  5 active torsions:
REMARK  status: ('A' for Active; 'I' for Inactive)
REMARK    1  A    between atoms: C_1  and  N_2
REMARK    2  A    between atoms: C_13  and  C_14
REMARK    3  A    between atoms: C_13  and  C_15
REMARK    4  A    between atoms: C_17  and  C_18
REMARK    5  A    between atoms: N_25  and  C_26
REMARK                            x       y       z     vdW  Elec       q    Type
REMARK                         _______ _______ _______ _____ _____    ______ ____
ROOT
ATOM      1  C   UNL     1       9.796  16.365  18.185  0.00  0.00    +0.000 C 
ATOM      2  N   UNL     1       9.872  15.101  18.873  0.00  0.00    +0.000 N 
ATOM      3  C   UNL     1       9.115  14.707  19.960  0.00  0.00    +0.000 A 
ATOM      4  C   UNL     1       7.819  15.056  20.282  0.00  0.00    +0.000 A 
ATOM      5  C   UNL     1       7.177  14.448  21.383  0.00  0.00    +0.000 A 
ATOM      6  C   UNL     1       7.875  13.502  22.192  0.00  0.00    +0.000 A 
ATOM      7  C   UNL     1       9.196  13.183  21.851  0.00  0.00    +0.000 A 
ATOM      8  C   UNL     1       9.781  13.767  20.739  0.00  0.00    +0.000 A 
ATOM      9  C   UNL     1      11.185  13.611  20.223  0.00  0.00    +0.000 C 
ATOM     10  C   UNL     1      11.821  12.234  20.350  0.00  0.00    +0.000 C 
ATOM     11  C   UNL     1      11.312  11.244  19.320  0.00  0.00    +0.000 C 
ATOM     12  C   UNL     1      11.543  11.797  17.921  0.00  0.00    +0.000 C 
ATOM     13  C   UNL     1      10.763  13.104  17.646  0.00  0.00    +0.000 C 
ATOM     14  C   UNL     1      11.262  13.664  16.296  0.00  0.00    +0.000 C 
ATOM     15  C   UNL     1       9.265  12.746  17.458  0.00  0.00    +0.000 C 
ATOM     16  C   UNL     1      11.020  14.177  18.774  0.00  0.00    +0.000 C 
ATOM     17  C   UNL     1       7.198  12.905  23.361  0.00  0.00    +0.000 A 
ATOM     18  C   UNL     1       5.952  13.314  23.646  0.00  0.00    +0.000 A 
ATOM     19  C   UNL     1       5.185  14.254  22.817  0.00  0.00    +0.000 A 
ATOM     20  O   UNL     1       4.034  14.513  23.151  0.00  0.00    +0.000 OA
ATOM     21  N   UNL     1       5.818  14.767  21.697  0.00  0.00    +0.000 N 
ATOM     22  C   UNL     1       5.050  15.647  20.827  0.00  0.00    +0.000 C 
ENDROOT
BRANCH  17  23
ATOM     23  C   UNL     1       7.795  11.862  24.266  0.00  0.00    +0.000 C 
ATOM     24  F   UNL     1       8.818  12.264  25.055  0.00  0.00    +0.000 F 
ATOM     25  F   UNL     1       6.855  11.342  25.099  0.00  0.00    +0.000 F 
ATOM     26  F   UNL     1       8.280  10.816  23.542  0.00  0.00    +0.000 F 
ENDBRANCH  17  23
TORSDOF 1
ENDMDL
MODEL 3
REMARK VINA RESULT:      -7.2      6.069      8.239
REMARK  Name = 
REMARK  5 active torsions:
REMARK  status: ('A' for Active; 'I' for Inactive)
REMARK    1  A    between atoms: C_1  and  N_2
REMARK    2  A    between atoms: C_13  and  C_14
REMARK    3  A    between atoms: C_13  and  C_15
REMARK    4  A    between atoms: C_17  and  C_18
REMARK    5  A    between atoms: N_25  and  C_26
REMARK                            x       y       z     vdW  Elec       q    Type
REMARK                         _______ _______ _______ _____ _____    ______ ____
ROOT
ATOM      1  C   UNL     1      -0.912  12.991  22.909  0.00  0.00    +0.000 C 
ATOM      2  N   UNL     1      -0.655  12.805  21.503  0.00  0.00    +0.000 N 
ATOM      3  C   UNL     1      -1.568  12.411  20.543  0.00  0.00    +0.000 A 
ATOM      4  C   UNL     1      -2.925  12.657  20.489  0.00  0.00    +0.000 A 
ATOM      5  C   UNL     1      -3.668  12.267  19.353  0.00  0.00    +0.000 A 
ATOM      6  C   UNL     1      -3.032  11.581  18.277  0.00  0.00    +0.000 A 
ATOM      7  C   UNL     1      -1.658  11.328  18.370  0.00  0.00    +0.000 A 
ATOM      8  C   UNL     1      -0.950  11.763  19.479  0.00  0.00    +0.000 A 
ATOM      9  C   UNL     1       0.503  11.559  19.808  0.00  0.00    +0.000 C 
ATOM     10  C   UNL     1       1.488  11.600  18.648  0.00  0.00    +0.000 C 
ATOM     11  C   UNL     1       1.776  13.005  18.157  0.00  0.00    +0.000 C 
ATOM     12  C   UNL     1       2.295  13.853  19.309  0.00  0.00    +0.000 C 
ATOM     13  C   UNL     1       1.264  14.026  20.449  0.00  0.00    +0.000 C 
ATOM     14  C   UNL     1       1.993  14.704  21.631  0.00  0.00    +0.000 C 
ATOM     15  C   UNL     1       0.169  15.015  19.970  0.00  0.00    +0.000 C 
ATOM     16  C   UNL     1       0.694  12.635  20.928  0.00  0.00    +0.000 C 
ATOM     17  C   UNL     1      -3.834  11.148  17.114  0.00  0.00    +0.000 A 
ATOM     18  C   UNL     1      -5.156  11.381  17.138  0.00  0.00    +0.000 A 
ATOM     19  C   UNL     1      -5.843  12.119  18.207  0.00  0.00    +0.000 A 
ATOM     20  O   UNL     1      -7.047  12.315  18.093  0.00  0.00    +0.000 OA
ATOM     21  N   UNL     1      -5.066  12.561  19.266  0.00  0.00    +0.000 N 
ATOM     22  C   UNL     1      -5.717  13.351  20.301  0.00  0.00    +0.000 C 
ENDROOT
BRANCH  17  23
ATOM     23  C   UNL     1      -3.286  10.464  15.892  0.00  0.00    +0.000 C 
ATOM     24  F   UNL     1      -2.608   9.311  16.100  0.00  0.00    +0.000 F 
ATOM     25  F   UNL     1      -4.279  10.166  15.012  0.00  0.00    +0.000 F 
ATOM     26  F   UNL     1      -2.424  11.282  15.228  0.00  0.00    +0.000 F 
ENDBRANCH  17  23
TORSDOF 1
ENDMDL
MODEL 4
REMARK VINA RESULT:      -6.9      5.784      9.555
REMARK  Name = 
REMARK  5 active torsions:
REMARK  status: ('A' for Active; 'I' for Inactive)
REMARK    1  A    between atoms: C_1  and  N_2
REMARK    2  A    between atoms: C_13  and  C_14
REMARK    3  A    between atoms: C_13  and  C_15
REMARK    4  A    between atoms: C_17  and  C_18
REMARK    5  A    between atoms: N_25  and  C_26
REMARK                            x       y       z     vdW  Elec       q    Type
REMARK                         _______ _______ _______ _____ _____    ______ ____
ROOT
ATOM      1  C   UNL     1      -4.515  15.886  22.219  0.00  0.00    +0.000 C 
ATOM      2  N   UNL     1      -4.898  14.622  21.643  0.00  0.00    +0.000 N 
ATOM      3  C   UNL     1      -4.118  13.812  20.841  0.00  0.00    +0.000 A 
ATOM      4  C   UNL     1      -2.748  13.641  20.857  0.00  0.00    +0.000 A 
ATOM      5  C   UNL     1      -2.148  12.668  20.027  0.00  0.00    +0.000 A 
ATOM      6  C   UNL     1      -2.945  11.887  19.140  0.00  0.00    +0.000 A 
ATOM      7  C   UNL     1      -4.330  12.097  19.132  0.00  0.00    +0.000 A 
ATOM      8  C   UNL     1      -4.891  13.029  19.989  0.00  0.00    +0.000 A 
ATOM      9  C   UNL     1      -6.330  13.449  20.113  0.00  0.00    +0.000 C 
ATOM     10  C   UNL     1      -7.386  12.367  19.932  0.00  0.00    +0.000 C 
ATOM     11  C   UNL     1      -7.526  11.462  21.139  0.00  0.00    +0.000 C 
ATOM     12  C   UNL     1      -7.844  12.297  22.371  0.00  0.00    +0.000 C 
ATOM     13  C   UNL     1      -6.717  13.291  22.740  0.00  0.00    +0.000 C 
ATOM     14  C   UNL     1      -7.263  14.215  23.852  0.00  0.00    +0.000 C 
ATOM     15  C   UNL     1      -5.543  12.488  23.359  0.00  0.00    +0.000 C 
ATOM     16  C   UNL     1      -6.297  14.172  21.500  0.00  0.00    +0.000 C 
ATOM     17  C   UNL     1      -2.294  10.901  18.253  0.00  0.00    +0.000 A 
ATOM     18  C   UNL     1      -0.956  10.809  18.287  0.00  0.00    +0.000 A 
ATOM     19  C   UNL     1      -0.102  11.565  19.214  0.00  0.00    +0.000 A 
ATOM     20  O   UNL     1       1.106  11.359  19.187  0.00  0.00    +0.000 OA
ATOM     21  N   UNL     1      -0.734  12.450  20.072  0.00  0.00    +0.000 N 
ATOM     22  C   UNL     1       0.088  13.158  21.043  0.00  0.00    +0.000 C 
ENDROOT
BRANCH  17  23
ATOM     23  C   UNL     1      -3.015   9.978  17.309  0.00  0.00    +0.000 C 
ATOM     24  F   UNL     1      -2.250   9.322  16.406  0.00  0.00    +0.000 F 
ATOM     25  F   UNL     1      -3.703   9.022  17.990  0.00  0.00    +0.000 F 
ATOM     26  F   UNL     1      -3.939  10.662  16.579  0.00  0.00    +0.000 F 
ENDBRANCH  17  23
TORSDOF 1
ENDMDL
MODEL 5
REMARK VINA RESULT:      -6.9      9.048     10.508
REMARK  Name = 
REMARK  5 active torsions:
REMARK  status: ('A' for Active; 'I' for Inactive)
REMARK    1  A    between atoms: C_1  and  N_2
REMARK    2  A    between atoms: C_13  and  C_14
REMARK    3  A    between atoms: C_13  and  C_15
REMARK    4  A    between atoms: C_17  and  C_18
REMARK    5  A    between atoms: N_25  and  C_26
REMARK                            x       y       z     vdW  Elec       q    Type
REMARK                         _______ _______ _______ _____ _____    ______ ____
ROOT
ATOM      1  C   UNL     1      12.329  15.475  19.792  0.00  0.00    +0.000 C 
ATOM      2  N   UNL     1      11.336  14.452  19.992  0.00  0.00    +0.000 N 
ATOM      3  C   UNL     1      10.429  14.374  21.031  0.00  0.00    +0.000 A 
ATOM      4  C   UNL     1       9.832  15.400  21.736  0.00  0.00    +0.000 A 
ATOM      5  C   UNL     1       8.834  15.113  22.693  0.00  0.00    +0.000 A 
ATOM      6  C   UNL     1       8.465  13.762  22.965  0.00  0.00    +0.000 A 
ATOM      7  C   UNL     1       9.101  12.742  22.248  0.00  0.00    +0.000 A 
ATOM      8  C   UNL     1      10.046  13.061  21.286  0.00  0.00    +0.000 A 
ATOM      9  C   UNL     1      10.881  12.137  20.443  0.00  0.00    +0.000 C 
ATOM     10  C   UNL     1      10.221  10.852  19.962  0.00  0.00    +0.000 C 
ATOM     11  C   UNL     1       9.260  11.068  18.810  0.00  0.00    +0.000 C 
ATOM     12  C   UNL     1       9.990  11.741  17.656  0.00  0.00    +0.000 C 
ATOM     13  C   UNL     1      10.520  13.150  18.010  0.00  0.00    +0.000 C 
ATOM     14  C   UNL     1      11.420  13.611  16.841  0.00  0.00    +0.000 C 
ATOM     15  C   UNL     1       9.315  14.126  18.060  0.00  0.00    +0.000 C 
ATOM     16  C   UNL     1      11.373  13.128  19.337  0.00  0.00    +0.000 C 
ATOM     17  C   UNL     1       7.444  13.480  23.996  0.00  0.00    +0.000 A 
ATOM     18  C   UNL     1       6.930  14.518  24.674  0.00  0.00    +0.000 A 
ATOM     19  C   UNL     1       7.253  15.925  24.397  0.00  0.00    +0.000 A 
ATOM     20  O   UNL     1       6.680  16.789  25.050  0.00  0.00    +0.000 OA
ATOM     21  N   UNL     1       8.175  16.172  23.394  0.00  0.00    +0.000 N 
ATOM     22  C   UNL     1       8.458  17.561  23.060  0.00  0.00    +0.000 C 
ENDROOT
BRANCH  17  23
ATOM     23  C   UNL     1       6.925  12.114  24.348  0.00  0.00    +0.000 C 
ATOM     24  F   UNL     1       6.280  11.443  23.365  0.00  0.00    +0.000 F 
ATOM     25  F   UNL     1       7.933  11.300  24.763  0.00  0.00    +0.000 F 
ATOM     26  F   UNL     1       6.044  12.184  25.383  0.00  0.00    +0.000 F 
ENDBRANCH  17  23
TORSDOF 1
ENDMDL
MODEL 6
REMARK VINA RESULT:      -6.8      5.093      9.068
REMARK  Name = 
REMARK  5 active torsions:
REMARK  status: ('A' for Active; 'I' for Inactive)
REMARK    1  A    between atoms: C_1  and  N_2
REMARK    2  A    between atoms: C_13  and  C_14
REMARK    3  A    between atoms: C_13  and  C_15
REMARK    4  A    between atoms: C_17  and  C_18
REMARK    5  A    between atoms: N_25  and  C_26
REMARK                            x       y       z     vdW  Elec       q    Type
REMARK                         _______ _______ _______ _____ _____    ______ ____
ROOT
ATOM      1  C   UNL     1      -5.882  13.752  21.864  0.00  0.00    +0.000 C 
ATOM      2  N   UNL     1      -4.457  13.677  21.664  0.00  0.00    +0.000 N 
ATOM      3  C   UNL     1      -3.792  12.858  20.772  0.00  0.00    +0.000 A 
ATOM      4  C   UNL     1      -4.212  12.403  19.538  0.00  0.00    +0.000 A 
ATOM      5  C   UNL     1      -3.329  11.665  18.719  0.00  0.00    +0.000 A 
ATOM      6  C   UNL     1      -2.015  11.351  19.177  0.00  0.00    +0.000 A 
ATOM      7  C   UNL     1      -1.625  11.810  20.441  0.00  0.00    +0.000 A 
ATOM      8  C   UNL     1      -2.501  12.567  21.201  0.00  0.00    +0.000 A 
ATOM      9  C   UNL     1      -2.313  13.115  22.589  0.00  0.00    +0.000 C 
ATOM     10  C   UNL     1      -0.919  13.602  22.959  0.00  0.00    +0.000 C 
ATOM     11  C   UNL     1      -0.579  14.952  22.359  0.00  0.00    +0.000 C 
ATOM     12  C   UNL     1      -1.618  15.978  22.787  0.00  0.00    +0.000 C 
ATOM     13  C   UNL     1      -3.041  15.654  22.273  0.00  0.00    +0.000 C 
ATOM     14  C   UNL     1      -4.014  16.637  22.962  0.00  0.00    +0.000 C 
ATOM     15  C   UNL     1      -3.091  15.962  20.753  0.00  0.00    +0.000 C 
ATOM     16  C   UNL     1      -3.461  14.177  22.634  0.00  0.00    +0.000 C 
ATOM     17  C   UNL     1      -1.120  10.546  18.321  0.00  0.00    +0.000 A 
ATOM     18  C   UNL     1      -1.600  10.099  17.150  0.00  0.00    +0.000 A 
ATOM     19  C   UNL     1      -2.931  10.434  16.624  0.00  0.00    +0.000 A 
ATOM     20  O   UNL     1      -3.239  10.009  15.517  0.00  0.00    +0.000 OA
ATOM     21  N   UNL     1      -3.739  11.230  17.419  0.00  0.00    +0.000 N 
ATOM     22  C   UNL     1      -5.035  11.627  16.886  0.00  0.00    +0.000 C 
ENDROOT
BRANCH  17  23
ATOM     23  C   UNL     1       0.302  10.186  18.655  0.00  0.00    +0.000 C 
ATOM     24  F   UNL     1       0.497   9.518  19.816  0.00  0.00    +0.000 F 
ATOM     25  F   UNL     1       0.854   9.417  17.678  0.00  0.00    +0.000 F 
ATOM     26  F   UNL     1       1.075  11.303  18.740  0.00  0.00    +0.000 F 
ENDBRANCH  17  23
TORSDOF 1
ENDMDL
MODEL 7
REMARK VINA RESULT:      -6.7      6.300      8.452
REMARK  Name = 
REMARK  5 active torsions:
REMARK  status: ('A' for Active; 'I' for Inactive)
REMARK    1  A    between atoms: C_1  and  N_2
REMARK    2  A    between atoms: C_13  and  C_14
REMARK    3  A    between atoms: C_13  and  C_15
REMARK    4  A    between atoms: C_17  and  C_18
REMARK    5  A    between atoms: N_25  and  C_26
REMARK                            x       y       z     vdW  Elec       q    Type
REMARK                         _______ _______ _______ _____ _____    ______ ____
ROOT
ATOM      1  C   UNL     1      -1.000  13.804  23.023  0.00  0.00    +0.000 C 
ATOM      2  N   UNL     1      -0.678  13.499  21.653  0.00  0.00    +0.000 N 
ATOM      3  C   UNL     1      -1.504  12.890  20.727  0.00  0.00    +0.000 A 
ATOM      4  C   UNL     1      -2.879  12.956  20.621  0.00  0.00    +0.000 A 
ATOM      5  C   UNL     1      -3.532  12.352  19.524  0.00  0.00    +0.000 A 
ATOM      6  C   UNL     1      -2.782  11.638  18.544  0.00  0.00    +0.000 A 
ATOM      7  C   UNL     1      -1.390  11.572  18.689  0.00  0.00    +0.000 A 
ATOM      8  C   UNL     1      -0.778  12.212  19.754  0.00  0.00    +0.000 A 
ATOM      9  C   UNL     1       0.679  12.231  20.130  0.00  0.00    +0.000 C 
ATOM     10  C   UNL     1       1.688  12.267  18.991  0.00  0.00    +0.000 C 
ATOM     11  C   UNL     1       1.815  13.635  18.349  0.00  0.00    +0.000 C 
ATOM     12  C   UNL     1       2.188  14.663  19.407  0.00  0.00    +0.000 C 
ATOM     13  C   UNL     1       1.108  14.829  20.502  0.00  0.00    +0.000 C 
ATOM     14  C   UNL     1       1.711  15.720  21.612  0.00  0.00    +0.000 C 
ATOM     15  C   UNL     1      -0.084  15.614  19.894  0.00  0.00    +0.000 C 
ATOM     16  C   UNL     1       0.700  13.438  21.124  0.00  0.00    +0.000 C 
ATOM     17  C   UNL     1      -3.487  10.981  17.424  0.00  0.00    +0.000 A 
ATOM     18  C   UNL     1      -4.827  11.047  17.397  0.00  0.00    +0.000 A 
ATOM     19  C   UNL     1      -5.634  11.806  18.364  0.00  0.00    +0.000 A 
ATOM     20  O   UNL     1      -6.849  11.834  18.207  0.00  0.00    +0.000 OA
ATOM     21  N   UNL     1      -4.952  12.455  19.380  0.00  0.00    +0.000 N 
ATOM     22  C   UNL     1      -5.728  13.266  20.307  0.00  0.00    +0.000 C 
ENDROOT
BRANCH  17  23
ATOM     23  C   UNL     1      -2.821  10.242  16.297  0.00  0.00    +0.000 C 
ATOM     24  F   UNL     1      -2.296  10.999  15.306  0.00  0.00    +0.000 F 
ATOM     25  F   UNL     1      -1.806   9.462  16.756  0.00  0.00    +0.000 F 
ATOM     26  F   UNL     1      -3.699   9.399  15.686  0.00  0.00    +0.000 F 
ENDBRANCH  17  23
TORSDOF 1
ENDMDL
MODEL 8
REMARK VINA RESULT:      -6.7      9.531     11.307
REMARK  Name = 
REMARK  5 active torsions:
REMARK  status: ('A' for Active; 'I' for Inactive)
REMARK    1  A    between atoms: C_1  and  N_2
REMARK    2  A    between atoms: C_13  and  C_14
REMARK    3  A    between atoms: C_13  and  C_15
REMARK    4  A    between atoms: C_17  and  C_18
REMARK    5  A    between atoms: N_25  and  C_26
REMARK                            x       y       z     vdW  Elec       q    Type
REMARK                         _______ _______ _______ _____ _____    ______ ____
ROOT
ATOM      1  C   UNL     1       5.253  15.708  22.440  0.00  0.00    +0.000 C 
ATOM      2  N   UNL     1       6.366  14.808  22.601  0.00  0.00    +0.000 N 
ATOM      3  C   UNL     1       7.318  14.494  21.649  0.00  0.00    +0.000 A 
ATOM      4  C   UNL     1       7.818  15.285  20.634  0.00  0.00    +0.000 A 
ATOM      5  C   UNL     1       8.881  14.816  19.832  0.00  0.00    +0.000 A 
ATOM      6  C   UNL     1       9.416  13.510  20.038  0.00  0.00    +0.000 A 
ATOM      7  C   UNL     1       8.875  12.724  21.062  0.00  0.00    +0.000 A 
ATOM      8  C   UNL     1       7.861  13.231  21.858  0.00  0.00    +0.000 A 
ATOM      9  C   UNL     1       7.107  12.553  22.969  0.00  0.00    +0.000 C 
ATOM     10  C   UNL     1       7.892  11.600  23.859  0.00  0.00    +0.000 C 
ATOM     11  C   UNL     1       8.773  12.312  24.866  0.00  0.00    +0.000 C 
ATOM     12  C   UNL     1       7.924  13.242  25.721  0.00  0.00    +0.000 C 
ATOM     13  C   UNL     1       7.247  14.369  24.907  0.00  0.00    +0.000 C 
ATOM     14  C   UNL     1       6.253  15.085  25.849  0.00  0.00    +0.000 C 
ATOM     15  C   UNL     1       8.332  15.411  24.523  0.00  0.00    +0.000 C 
ATOM     16  C   UNL     1       6.457  13.792  23.669  0.00  0.00    +0.000 C 
ATOM     17  C   UNL     1      10.504  13.023  19.164  0.00  0.00    +0.000 A 
ATOM     18  C   UNL     1      10.920  13.823  18.170  0.00  0.00    +0.000 A 
ATOM     19  C   UNL     1      10.424  15.189  17.950  0.00  0.00    +0.000 A 
ATOM     20  O   UNL     1      10.918  15.844  17.039  0.00  0.00    +0.000 OA
ATOM     21  N   UNL     1       9.439  15.647  18.809  0.00  0.00    +0.000 N 
ATOM     22  C   UNL     1       8.983  17.020  18.648  0.00  0.00    +0.000 C 
ENDROOT
BRANCH  17  23
ATOM     23  C   UNL     1      11.192  11.693  19.300  0.00  0.00    +0.000 C 
ATOM     24  F   UNL     1      12.087  11.377  18.335  0.00  0.00    +0.000 F 
ATOM     25  F   UNL     1      11.861  11.608  20.481  0.00  0.00    +0.000 F 
ATOM     26  F   UNL     1      10.284  10.678  19.304  0.00  0.00    +0.000 F 
ENDBRANCH  17  23
TORSDOF 1
ENDMDL
MODEL 9
REMARK VINA RESULT:      -6.6      5.084      8.876
REMARK  Name = 
REMARK  5 active torsions:
REMARK  status: ('A' for Active; 'I' for Inactive)
REMARK    1  A    between atoms: C_1  and  N_2
REMARK    2  A    between atoms: C_13  and  C_14
REMARK    3  A    between atoms: C_13  and  C_15
REMARK    4  A    between atoms: C_17  and  C_18
REMARK    5  A    between atoms: N_25  and  C_26
REMARK                            x       y       z     vdW  Elec       q    Type
REMARK                         _______ _______ _______ _____ _____    ______ ____
ROOT
ATOM      1  C   UNL     1      -0.949  15.138  22.780  0.00  0.00    +0.000 C 
ATOM      2  N   UNL     1      -2.007  14.333  22.224  0.00  0.00    +0.000 N 
ATOM      3  C   UNL     1      -1.904  13.454  21.164  0.00  0.00    +0.000 A 
ATOM      4  C   UNL     1      -0.820  12.692  20.775  0.00  0.00    +0.000 A 
ATOM      5  C   UNL     1      -0.953  11.758  19.725  0.00  0.00    +0.000 A 
ATOM      6  C   UNL     1      -2.193  11.624  19.033  0.00  0.00    +0.000 A 
ATOM      7  C   UNL     1      -3.269  12.425  19.437  0.00  0.00    +0.000 A 
ATOM      8  C   UNL     1      -3.116  13.301  20.499  0.00  0.00    +0.000 A 
ATOM      9  C   UNL     1      -4.109  14.280  21.064  0.00  0.00    +0.000 C 
ATOM     10  C   UNL     1      -5.568  13.848  21.092  0.00  0.00    +0.000 C 
ATOM     11  C   UNL     1      -5.878  12.863  22.202  0.00  0.00    +0.000 C 
ATOM     12  C   UNL     1      -5.489  13.467  23.544  0.00  0.00    +0.000 C 
ATOM     13  C   UNL     1      -3.973  13.750  23.667  0.00  0.00    +0.000 C 
ATOM     14  C   UNL     1      -3.759  14.557  24.967  0.00  0.00    +0.000 C 
ATOM     15  C   UNL     1      -3.238  12.396  23.852  0.00  0.00    +0.000 C 
ATOM     16  C   UNL     1      -3.444  14.595  22.444  0.00  0.00    +0.000 C 
ATOM     17  C   UNL     1      -2.302  10.668  17.912  0.00  0.00    +0.000 A 
ATOM     18  C   UNL     1      -1.203   9.985  17.557  0.00  0.00    +0.000 A 
ATOM     19  C   UNL     1       0.081  10.064  18.268  0.00  0.00    +0.000 A 
ATOM     20  O   UNL     1       1.001   9.352  17.881  0.00  0.00    +0.000 OA
ATOM     21  N   UNL     1       0.151  10.929  19.347  0.00  0.00    +0.000 N 
ATOM     22  C   UNL     1       1.394  10.971  20.104  0.00  0.00    +0.000 C 
ENDROOT
BRANCH  17  23
ATOM     23  C   UNL     1      -3.557  10.390  17.132  0.00  0.00    +0.000 C 
ATOM     24  F   UNL     1      -4.631   9.978  17.845  0.00  0.00    +0.000 F 
ATOM     25  F   UNL     1      -3.959  11.491  16.443  0.00  0.00    +0.000 F 
ATOM     26  F   UNL     1      -3.341   9.419  16.202  0.00  0.00    +0.000 F 
ENDBRANCH  17  23
TORSDOF 1
ENDMDL
