MODEL 1
REMARK VINA RESULT:      -8.1      0.000      0.000
REMARK  Name = 
REMARK  15 active torsions:
REMARK  status: ('A' for Active; 'I' for Inactive)
REMARK    1  A    between atoms: C_1  and  C_2
REMARK    2  A    between atoms: C_2  and  C_3
REMARK    3  A    between atoms: C_2  and  C_4
REMARK    4  A    between atoms: C_4  and  O_5
REMARK    5  A    between atoms: O_5  and  C_6
REMARK    6  A    between atoms: C_8  and  C_9
REMARK    7  A    between atoms: N_11  and  CA_12
REMARK    8  A    between atoms: CA_12  and  C_13
REMARK    9  A    between atoms: CA_12  and  C_24
REMARK   10  A    between atoms: C_13  and  C_14
REMARK   11  A    between atoms: C_24  and  OXT_26
REMARK   12  A    between atoms: C_29  and  N_30
REMARK   13  A    between atoms: C_31  and  C_33
REMARK   14  A    between atoms: C_33  and  C_34
REMARK   15  A    between atoms: C_33  and  N_35
REMARK                            x       y       z     vdW  Elec       q    Type
REMARK                         _______ _______ _______ _____ _____    ______ ____
ROOT
ATOM      1  C   UNL     1       3.368   6.179  19.063  0.00  0.00    +0.000 A 
ATOM      2  C   UNL     1       2.499   6.937  19.870  0.00  0.00    +0.000 A 
ATOM      3  C   UNL     1       1.934   8.133  19.403  0.00  0.00    +0.000 A 
ATOM      4  C   UNL     1       2.242   8.562  18.110  0.00  0.00    +0.000 A 
ATOM      5  C   UNL     1       3.111   7.821  17.305  0.00  0.00    +0.000 A 
ATOM      6  C   UNL     1       3.667   6.617  17.761  0.00  0.00    +0.000 A 
ENDROOT
BRANCH   3   7
ATOM      7  C   UNL     1       0.958   8.946  20.195  0.00  0.00    +0.000 C 
ATOM      8  O   UNL     1       0.855   8.782  21.406  0.00  0.00    +0.000 OA
ATOM      9  N   UNL     1       0.212   9.866  19.505  0.00  0.00    +0.000 N 
ATOM     10  H   UNL     1       0.186   9.831  18.491  0.00  0.00    +0.000 HD
BRANCH   9  11
ATOM     11  CA  UNL     1      -0.730  10.819  20.113  0.00  0.00    +0.000 C 
BRANCH  11  12
ATOM     12  C   UNL     1      -1.683  11.248  18.972  0.00  0.00    +0.000 C 
ATOM     13  O   UNL     1      -2.775  11.762  19.161  0.00  0.00    +0.000 OA
BRANCH  12  14
ATOM     14  OXT UNL     1      -1.191  11.076  17.723  0.00  0.00    +0.000 OA
ATOM     15  HXT UNL     1      -0.220  11.079  17.646  0.00  0.00    +0.000 HD
ENDBRANCH  12  14
ENDBRANCH  11  12
BRANCH  11  16
ATOM     16  C   UNL     1      -0.090  12.023  20.852  0.00  0.00    +0.000 C 
BRANCH  16  17
ATOM     17  C   UNL     1       0.372  13.144  19.950  0.00  0.00    +0.000 A 
ATOM     18  C   UNL     1      -0.393  14.310  19.849  0.00  0.00    +0.000 A 
ATOM     19  C   UNL     1       0.140  15.453  19.256  0.00  0.00    +0.000 A 
ATOM     20  C   UNL     1       1.443  15.441  18.736  0.00  0.00    +0.000 A 
ATOM     21  C   UNL     1       2.071  16.618  18.309  0.00  0.00    +0.000 A 
ATOM     22  C   UNL     1       3.364  16.585  17.785  0.00  0.00    +0.000 A 
ATOM     23  C   UNL     1       4.014  15.366  17.618  0.00  0.00    +0.000 A 
ATOM     24  C   UNL     1       3.409  14.188  18.057  0.00  0.00    +0.000 A 
ATOM     25  C   UNL     1       2.148  14.220  18.673  0.00  0.00    +0.000 A 
ATOM     26  C   UNL     1       1.600  13.079  19.279  0.00  0.00    +0.000 A 
ENDBRANCH  16  17
ENDBRANCH  11  16
ENDBRANCH   9  11
ENDBRANCH   3   7
BRANCH   6  27
ATOM     27  N   UNL     1       4.411   5.818  16.870  0.00  0.00    +0.000 N 
ATOM     28  C   UNL     1       5.658   6.156  16.370  0.00  0.00    +0.000 C 
ATOM     29  O   UNL     1       6.320   7.129  16.730  0.00  0.00    +0.000 OA
ATOM     30  H   UNL     1       4.060   4.887  16.692  0.00  0.00    +0.000 HD
BRANCH  28  31
ATOM     31  C   UNL     1       6.196   5.166  15.312  0.00  0.00    +0.000 C 
ATOM     32  C   UNL     1       5.988   3.719  15.739  0.00  0.00    +0.000 C 
BRANCH  31  33
ATOM     33  N   UNL     1       7.637   5.407  15.098  0.00  0.00    +0.000 NA
ATOM     34  H   UNL     1       7.739   5.923  14.219  0.00  0.00    +0.000 HD
ATOM     35  H   UNL     1       8.074   4.506  14.882  0.00  0.00    +0.000 HD
ENDBRANCH  31  33
ENDBRANCH  28  31
ENDBRANCH   6  27
BRANCH   1  36
ATOM     36  O   UNL     1       3.821   5.034  19.668  0.00  0.00    +0.000 OA
BRANCH  36  37
ATOM     37  C   UNL     1       3.110   3.821  19.403  0.00  0.00    +0.000 C 
BRANCH  37  39
ATOM     38  C   UNL     1       0.707   3.049  19.711  0.00  0.00    +0.000 C 
ATOM     39  C   UNL     1       1.940   3.654  20.387  0.00  0.00    +0.000 C 
ATOM     40  C   UNL     1       2.380   2.798  21.576  0.00  0.00    +0.000 C 
ENDBRANCH  37  39
ENDBRANCH  36  37
ENDBRANCH   1  36
TORSDOF 12
ENDMDL
MODEL 2
REMARK VINA RESULT:      -8.1      1.531      2.460
REMARK  Name = 
REMARK  15 active torsions:
REMARK  status: ('A' for Active; 'I' for Inactive)
REMARK    1  A    between atoms: C_1  and  C_2
REMARK    2  A    between atoms: C_2  and  C_3
REMARK    3  A    between atoms: C_2  and  C_4
REMARK    4  A    between atoms: C_4  and  O_5
REMARK    5  A    between atoms: O_5  and  C_6
REMARK    6  A    between atoms: C_8  and  C_9
REMARK    7  A    between atoms: N_11  and  CA_12
REMARK    8  A    between atoms: CA_12  and  C_13
REMARK    9  A    between atoms: CA_12  and  C_24
REMARK   10  A    between atoms: C_13  and  C_14
REMARK   11  A    between atoms: C_24  and  OXT_26
REMARK   12  A    between atoms: C_29  and  N_30
REMARK   13  A    between atoms: C_31  and  C_33
REMARK   14  A    between atoms: C_33  and  C_34
REMARK   15  A    between atoms: C_33  and  N_35
REMARK                            x       y       z     vdW  Elec       q    Type
REMARK                         _______ _______ _______ _____ _____    ______ ____
ROOT
ATOM      1  C   UNL     1       2.459   6.741  19.556  0.00  0.00    +0.000 A 
ATOM      2  C   UNL     1       1.644   7.776  20.051  0.00  0.00    +0.000 A 
ATOM      3  C   UNL     1       1.391   8.927  19.290  0.00  0.00    +0.000 A 
ATOM      4  C   UNL     1       1.959   9.029  18.017  0.00  0.00    +0.000 A 
ATOM      5  C   UNL     1       2.777   8.010  17.522  0.00  0.00    +0.000 A 
ATOM      6  C   UNL     1       3.021   6.851  18.273  0.00  0.00    +0.000 A 
ENDROOT
BRANCH   3   7
ATOM      7  C   UNL     1       0.484  10.029  19.740  0.00  0.00    +0.000 C 
ATOM      8  O   UNL     1      -0.670  10.088  19.330  0.00  0.00    +0.000 OA
ATOM      9  N   UNL     1       1.004  10.939  20.623  0.00  0.00    +0.000 N 
ATOM     10  H   UNL     1       2.006  10.968  20.781  0.00  0.00    +0.000 HD
BRANCH   9  11
ATOM     11  CA  UNL     1       0.251  12.036  21.251  0.00  0.00    +0.000 C 
BRANCH  11  12
ATOM     12  C   UNL     1      -0.598  11.376  22.363  0.00  0.00    +0.000 C 
ATOM     13  O   UNL     1      -1.788  11.598  22.527  0.00  0.00    +0.000 OA
BRANCH  12  14
ATOM     14  OXT UNL     1       0.061  10.466  23.119  0.00  0.00    +0.000 OA
ATOM     15  HXT UNL     1       0.801  10.812  23.650  0.00  0.00    +0.000 HD
ENDBRANCH  12  14
ENDBRANCH  11  12
BRANCH  11  16
ATOM     16  C   UNL     1      -0.591  12.914  20.289  0.00  0.00    +0.000 C 
BRANCH  16  17
ATOM     17  C   UNL     1       0.090  14.186  19.839  0.00  0.00    +0.000 A 
ATOM     18  C   UNL     1       1.483  14.289  19.911  0.00  0.00    +0.000 A 
ATOM     19  C   UNL     1       2.148  15.321  19.252  0.00  0.00    +0.000 A 
ATOM     20  C   UNL     1       1.427  16.280  18.527  0.00  0.00    +0.000 A 
ATOM     21  C   UNL     1       2.073  17.212  17.703  0.00  0.00    +0.000 A 
ATOM     22  C   UNL     1       1.340  18.166  16.996  0.00  0.00    +0.000 A 
ATOM     23  C   UNL     1      -0.039  18.242  17.161  0.00  0.00    +0.000 A 
ATOM     24  C   UNL     1      -0.698  17.309  17.962  0.00  0.00    +0.000 A 
ATOM     25  C   UNL     1       0.018  16.286  18.602  0.00  0.00    +0.000 A 
ATOM     26  C   UNL     1      -0.638  15.237  19.265  0.00  0.00    +0.000 A 
ENDBRANCH  16  17
ENDBRANCH  11  16
ENDBRANCH   9  11
ENDBRANCH   3   7
BRANCH   6  27
ATOM     27  N   UNL     1       3.720   5.780  17.681  0.00  0.00    +0.000 N 
ATOM     28  C   UNL     1       5.083   5.774  17.436  0.00  0.00    +0.000 C 
ATOM     29  O   UNL     1       5.868   6.646  17.807  0.00  0.00    +0.000 OA
ATOM     30  H   UNL     1       3.206   4.919  17.550  0.00  0.00    +0.000 HD
BRANCH  28  31
ATOM     31  C   UNL     1       5.573   4.529  16.662  0.00  0.00    +0.000 C 
ATOM     32  C   UNL     1       5.412   4.703  15.157  0.00  0.00    +0.000 C 
BRANCH  31  33
ATOM     33  N   UNL     1       4.808   3.344  17.098  0.00  0.00    +0.000 NA
ATOM     34  H   UNL     1       3.826   3.621  17.179  0.00  0.00    +0.000 HD
ATOM     35  H   UNL     1       5.068   3.147  18.069  0.00  0.00    +0.000 HD
ENDBRANCH  31  33
ENDBRANCH  28  31
ENDBRANCH   6  27
BRANCH   1  36
ATOM     36  O   UNL     1       2.594   5.685  20.422  0.00  0.00    +0.000 OA
BRANCH  36  37
ATOM     37  C   UNL     1       1.439   4.874  20.659  0.00  0.00    +0.000 C 
BRANCH  37  39
ATOM     38  C   UNL     1       1.524   2.540  21.664  0.00  0.00    +0.000 C 
ATOM     39  C   UNL     1       1.761   3.391  20.414  0.00  0.00    +0.000 C 
ATOM     40  C   UNL     1       0.933   2.868  19.238  0.00  0.00    +0.000 C 
ENDBRANCH  37  39
ENDBRANCH  36  37
ENDBRANCH   1  36
TORSDOF 12
ENDMDL
MODEL 3
REMARK VINA RESULT:      -8.0      0.858      1.065
REMARK  Name = 
REMARK  15 active torsions:
REMARK  status: ('A' for Active; 'I' for Inactive)
REMARK    1  A    between atoms: C_1  and  C_2
REMARK    2  A    between atoms: C_2  and  C_3
REMARK    3  A    between atoms: C_2  and  C_4
REMARK    4  A    between atoms: C_4  and  O_5
REMARK    5  A    between atoms: O_5  and  C_6
REMARK    6  A    between atoms: C_8  and  C_9
REMARK    7  A    between atoms: N_11  and  CA_12
REMARK    8  A    between atoms: CA_12  and  C_13
REMARK    9  A    between atoms: CA_12  and  C_24
REMARK   10  A    between atoms: C_13  and  C_14
REMARK   11  A    between atoms: C_24  and  OXT_26
REMARK   12  A    between atoms: C_29  and  N_30
REMARK   13  A    between atoms: C_31  and  C_33
REMARK   14  A    between atoms: C_33  and  C_34
REMARK   15  A    between atoms: C_33  and  N_35
REMARK                            x       y       z     vdW  Elec       q    Type
REMARK                         _______ _______ _______ _____ _____    ______ ____
ROOT
ATOM      1  C   UNL     1       2.931   6.354  19.392  0.00  0.00    +0.000 A 
ATOM      2  C   UNL     1       2.046   7.171  20.119  0.00  0.00    +0.000 A 
ATOM      3  C   UNL     1       1.589   8.391  19.596  0.00  0.00    +0.000 A 
ATOM      4  C   UNL     1       2.024   8.783  18.327  0.00  0.00    +0.000 A 
ATOM      5  C   UNL     1       2.910   7.982  17.603  0.00  0.00    +0.000 A 
ATOM      6  C   UNL     1       3.358   6.755  18.114  0.00  0.00    +0.000 A 
ENDROOT
BRANCH   3   7
ATOM      7  C   UNL     1       0.601   9.269  20.299  0.00  0.00    +0.000 C 
ATOM      8  O   UNL     1       0.463   9.195  21.515  0.00  0.00    +0.000 OA
ATOM      9  N   UNL     1      -0.115  10.143  19.523  0.00  0.00    +0.000 N 
ATOM     10  H   UNL     1      -0.113  10.034  18.514  0.00  0.00    +0.000 HD
BRANCH   9  11
ATOM     11  CA  UNL     1      -1.062  11.147  20.032  0.00  0.00    +0.000 C 
BRANCH  11  12
ATOM     12  C   UNL     1      -1.928  11.557  18.818  0.00  0.00    +0.000 C 
ATOM     13  O   UNL     1      -3.052  12.026  18.917  0.00  0.00    +0.000 OA
BRANCH  12  14
ATOM     14  OXT UNL     1      -1.323  11.423  17.614  0.00  0.00    +0.000 OA
ATOM     15  HXT UNL     1      -0.353  11.336  17.635  0.00  0.00    +0.000 HD
ENDBRANCH  12  14
ENDBRANCH  11  12
BRANCH  11  16
ATOM     16  C   UNL     1      -0.431  12.360  20.763  0.00  0.00    +0.000 C 
BRANCH  16  17
ATOM     17  C   UNL     1       0.129  13.426  19.849  0.00  0.00    +0.000 A 
ATOM     18  C   UNL     1      -0.572  14.623  19.672  0.00  0.00    +0.000 A 
ATOM     19  C   UNL     1       0.046  15.718  19.070  0.00  0.00    +0.000 A 
ATOM     20  C   UNL     1       1.370  15.625  18.616  0.00  0.00    +0.000 A 
ATOM     21  C   UNL     1       2.076  16.755  18.183  0.00  0.00    +0.000 A 
ATOM     22  C   UNL     1       3.389  16.642  17.726  0.00  0.00    +0.000 A 
ATOM     23  C   UNL     1       3.985  15.388  17.632  0.00  0.00    +0.000 A 
ATOM     24  C   UNL     1       3.302  14.257  18.078  0.00  0.00    +0.000 A 
ATOM     25  C   UNL     1       2.016  14.370  18.628  0.00  0.00    +0.000 A 
ATOM     26  C   UNL     1       1.383  13.279  19.243  0.00  0.00    +0.000 A 
ENDBRANCH  16  17
ENDBRANCH  11  16
ENDBRANCH   9  11
ENDBRANCH   3   7
BRANCH   6  27
ATOM     27  N   UNL     1       4.124   5.903  17.294  0.00  0.00    +0.000 N 
ATOM     28  C   UNL     1       5.491   5.716  17.419  0.00  0.00    +0.000 C 
ATOM     29  O   UNL     1       6.182   6.173  18.328  0.00  0.00    +0.000 OA
ATOM     30  H   UNL     1       3.614   5.300  16.662  0.00  0.00    +0.000 HD
BRANCH  28  31
ATOM     31  C   UNL     1       6.103   4.829  16.311  0.00  0.00    +0.000 C 
ATOM     32  C   UNL     1       5.658   5.273  14.925  0.00  0.00    +0.000 C 
BRANCH  31  33
ATOM     33  N   UNL     1       5.700   3.424  16.524  0.00  0.00    +0.000 NA
ATOM     34  H   UNL     1       6.533   2.902  16.810  0.00  0.00    +0.000 HD
ATOM     35  H   UNL     1       5.484   3.021  15.608  0.00  0.00    +0.000 HD
ENDBRANCH  31  33
ENDBRANCH  28  31
ENDBRANCH   6  27
BRANCH   1  36
ATOM     36  O   UNL     1       3.268   5.194  20.043  0.00  0.00    +0.000 OA
BRANCH  36  37
ATOM     37  C   UNL     1       2.335   4.676  20.995  0.00  0.00    +0.000 C 
BRANCH  37  39
ATOM     38  C   UNL     1       1.459   2.452  21.862  0.00  0.00    +0.000 C 
ATOM     39  C   UNL     1       1.944   3.232  20.638  0.00  0.00    +0.000 C 
ATOM     40  C   UNL     1       0.875   3.239  19.543  0.00  0.00    +0.000 C 
ENDBRANCH  37  39
ENDBRANCH  36  37
ENDBRANCH   1  36
TORSDOF 12
ENDMDL
MODEL 4
REMARK VINA RESULT:      -8.0      3.154      5.128
REMARK  Name = 
REMARK  15 active torsions:
REMARK  status: ('A' for Active; 'I' for Inactive)
REMARK    1  A    between atoms: C_1  and  C_2
REMARK    2  A    between atoms: C_2  and  C_3
REMARK    3  A    between atoms: C_2  and  C_4
REMARK    4  A    between atoms: C_4  and  O_5
REMARK    5  A    between atoms: O_5  and  C_6
REMARK    6  A    between atoms: C_8  and  C_9
REMARK    7  A    between atoms: N_11  and  CA_12
REMARK    8  A    between atoms: CA_12  and  C_13
REMARK    9  A    between atoms: CA_12  and  C_24
REMARK   10  A    between atoms: C_13  and  C_14
REMARK   11  A    between atoms: C_24  and  OXT_26
REMARK   12  A    between atoms: C_29  and  N_30
REMARK   13  A    between atoms: C_31  and  C_33
REMARK   14  A    between atoms: C_33  and  C_34
REMARK   15  A    between atoms: C_33  and  N_35
REMARK                            x       y       z     vdW  Elec       q    Type
REMARK                         _______ _______ _______ _____ _____    ______ ____
ROOT
ATOM      1  C   UNL     1       2.374   6.714  19.754  0.00  0.00    +0.000 A 
ATOM      2  C   UNL     1       1.620   7.827  20.169  0.00  0.00    +0.000 A 
ATOM      3  C   UNL     1       1.498   8.964  19.355  0.00  0.00    +0.000 A 
ATOM      4  C   UNL     1       2.135   8.972  18.111  0.00  0.00    +0.000 A 
ATOM      5  C   UNL     1       2.893   7.874  17.696  0.00  0.00    +0.000 A 
ATOM      6  C   UNL     1       3.006   6.730  18.499  0.00  0.00    +0.000 A 
ENDROOT
BRANCH   3   7
ATOM      7  C   UNL     1       0.660  10.150  19.719  0.00  0.00    +0.000 C 
ATOM      8  O   UNL     1       1.032  10.926  20.592  0.00  0.00    +0.000 OA
ATOM      9  N   UNL     1      -0.512  10.318  19.029  0.00  0.00    +0.000 N 
ATOM     10  H   UNL     1      -0.873   9.557  18.462  0.00  0.00    +0.000 HD
BRANCH   9  11
ATOM     11  CA  UNL     1      -1.424  11.463  19.174  0.00  0.00    +0.000 C 
BRANCH  11  12
ATOM     12  C   UNL     1      -0.883  12.551  18.216  0.00  0.00    +0.000 C 
ATOM     13  O   UNL     1      -0.016  13.353  18.526  0.00  0.00    +0.000 OA
BRANCH  12  14
ATOM     14  OXT UNL     1      -1.396  12.514  16.964  0.00  0.00    +0.000 OA
ATOM     15  HXT UNL     1      -2.128  11.886  16.824  0.00  0.00    +0.000 HD
ENDBRANCH  12  14
ENDBRANCH  11  12
BRANCH  11  16
ATOM     16  C   UNL     1      -1.632  11.981  20.621  0.00  0.00    +0.000 C 
BRANCH  16  17
ATOM     17  C   UNL     1      -3.041  12.431  20.933  0.00  0.00    +0.000 A 
ATOM     18  C   UNL     1      -3.976  12.545  19.899  0.00  0.00    +0.000 A 
ATOM     19  C   UNL     1      -5.332  12.681  20.188  0.00  0.00    +0.000 A 
ATOM     20  C   UNL     1      -5.773  12.727  21.518  0.00  0.00    +0.000 A 
ATOM     21  C   UNL     1      -7.136  12.672  21.840  0.00  0.00    +0.000 A 
ATOM     22  C   UNL     1      -7.557  12.728  23.169  0.00  0.00    +0.000 A 
ATOM     23  C   UNL     1      -6.624  12.909  24.185  0.00  0.00    +0.000 A 
ATOM     24  C   UNL     1      -5.262  12.945  23.882  0.00  0.00    +0.000 A 
ATOM     25  C   UNL     1      -4.822  12.795  22.559  0.00  0.00    +0.000 A 
ATOM     26  C   UNL     1      -3.460  12.650  22.252  0.00  0.00    +0.000 A 
ENDBRANCH  16  17
ENDBRANCH  11  16
ENDBRANCH   9  11
ENDBRANCH   3   7
BRANCH   6  27
ATOM     27  N   UNL     1       3.646   5.585  17.984  0.00  0.00    +0.000 N 
ATOM     28  C   UNL     1       2.984   4.491  17.450  0.00  0.00    +0.000 C 
ATOM     29  O   UNL     1       1.771   4.432  17.252  0.00  0.00    +0.000 OA
ATOM     30  H   UNL     1       4.651   5.631  17.885  0.00  0.00    +0.000 HD
BRANCH  28  31
ATOM     31  C   UNL     1       3.918   3.318  17.074  0.00  0.00    +0.000 C 
ATOM     32  C   UNL     1       3.598   2.065  17.879  0.00  0.00    +0.000 C 
BRANCH  31  33
ATOM     33  N   UNL     1       5.321   3.707  17.319  0.00  0.00    +0.000 NA
ATOM     34  H   UNL     1       5.634   3.225  18.167  0.00  0.00    +0.000 HD
ATOM     35  H   UNL     1       5.326   4.690  17.604  0.00  0.00    +0.000 HD
ENDBRANCH  31  33
ENDBRANCH  28  31
ENDBRANCH   6  27
BRANCH   1  36
ATOM     36  O   UNL     1       2.380   5.686  20.663  0.00  0.00    +0.000 OA
BRANCH  36  37
ATOM     37  C   UNL     1       1.215   4.857  20.731  0.00  0.00    +0.000 C 
BRANCH  37  39
ATOM     38  C   UNL     1       1.745   2.673  21.919  0.00  0.00    +0.000 C 
ATOM     39  C   UNL     1       1.595   3.376  20.568  0.00  0.00    +0.000 C 
ATOM     40  C   UNL     1       0.553   2.666  19.701  0.00  0.00    +0.000 C 
ENDBRANCH  37  39
ENDBRANCH  36  37
ENDBRANCH   1  36
TORSDOF 12
ENDMDL
MODEL 5
REMARK VINA RESULT:      -7.9      2.159      3.758
REMARK  Name = 
REMARK  15 active torsions:
REMARK  status: ('A' for Active; 'I' for Inactive)
REMARK    1  A    between atoms: C_1  and  C_2
REMARK    2  A    between atoms: C_2  and  C_3
REMARK    3  A    between atoms: C_2  and  C_4
REMARK    4  A    between atoms: C_4  and  O_5
REMARK    5  A    between atoms: O_5  and  C_6
REMARK    6  A    between atoms: C_8  and  C_9
REMARK    7  A    between atoms: N_11  and  CA_12
REMARK    8  A    between atoms: CA_12  and  C_13
REMARK    9  A    between atoms: CA_12  and  C_24
REMARK   10  A    between atoms: C_13  and  C_14
REMARK   11  A    between atoms: C_24  and  OXT_26
REMARK   12  A    between atoms: C_29  and  N_30
REMARK   13  A    between atoms: C_31  and  C_33
REMARK   14  A    between atoms: C_33  and  C_34
REMARK   15  A    between atoms: C_33  and  N_35
REMARK                            x       y       z     vdW  Elec       q    Type
REMARK                         _______ _______ _______ _____ _____    ______ ____
ROOT
ATOM      1  C   UNL     1       3.006   6.630  19.288  0.00  0.00    +0.000 A 
ATOM      2  C   UNL     1       2.006   7.497  19.766  0.00  0.00    +0.000 A 
ATOM      3  C   UNL     1       1.639   8.645  19.047  0.00  0.00    +0.000 A 
ATOM      4  C   UNL     1       2.281   8.914  17.835  0.00  0.00    +0.000 A 
ATOM      5  C   UNL     1       3.281   8.063  17.359  0.00  0.00    +0.000 A 
ATOM      6  C   UNL     1       3.642   6.906  18.066  0.00  0.00    +0.000 A 
ENDROOT
BRANCH   3   7
ATOM      7  C   UNL     1       0.541   9.569  19.476  0.00  0.00    +0.000 C 
ATOM      8  O   UNL     1       0.361   9.804  20.666  0.00  0.00    +0.000 OA
ATOM      9  N   UNL     1      -0.224  10.127  18.486  0.00  0.00    +0.000 N 
ATOM     10  H   UNL     1      -0.169   9.757  17.542  0.00  0.00    +0.000 HD
BRANCH   9  11
ATOM     11  CA  UNL     1      -1.284  11.125  18.695  0.00  0.00    +0.000 C 
BRANCH  11  12
ATOM     12  C   UNL     1      -2.192  11.038  17.446  0.00  0.00    +0.000 C 
ATOM     13  O   UNL     1      -2.099  10.159  16.603  0.00  0.00    +0.000 OA
BRANCH  12  14
ATOM     14  OXT UNL     1      -3.160  11.981  17.378  0.00  0.00    +0.000 OA
ATOM     15  HXT UNL     1      -3.181  12.622  18.112  0.00  0.00    +0.000 HD
ENDBRANCH  12  14
ENDBRANCH  11  12
BRANCH  11  16
ATOM     16  C   UNL     1      -0.804  12.568  18.996  0.00  0.00    +0.000 C 
BRANCH  16  17
ATOM     17  C   UNL     1      -1.033  13.026  20.417  0.00  0.00    +0.000 A 
ATOM     18  C   UNL     1      -0.412  14.193  20.877  0.00  0.00    +0.000 A 
ATOM     19  C   UNL     1      -0.821  14.784  22.071  0.00  0.00    +0.000 A 
ATOM     20  C   UNL     1      -1.844  14.205  22.836  0.00  0.00    +0.000 A 
ATOM     21  C   UNL     1      -2.403  14.871  23.934  0.00  0.00    +0.000 A 
ATOM     22  C   UNL     1      -3.414  14.277  24.690  0.00  0.00    +0.000 A 
ATOM     23  C   UNL     1      -3.827  12.981  24.396  0.00  0.00    +0.000 A 
ATOM     24  C   UNL     1      -3.294  12.312  23.294  0.00  0.00    +0.000 A 
ATOM     25  C   UNL     1      -2.345  12.937  22.471  0.00  0.00    +0.000 A 
ATOM     26  C   UNL     1      -1.928  12.357  21.262  0.00  0.00    +0.000 A 
ENDBRANCH  16  17
ENDBRANCH  11  16
ENDBRANCH   9  11
ENDBRANCH   3   7
BRANCH   6  27
ATOM     27  N   UNL     1       4.540   5.992  17.481  0.00  0.00    +0.000 N 
ATOM     28  C   UNL     1       5.876   6.258  17.228  0.00  0.00    +0.000 C 
ATOM     29  O   UNL     1       6.470   7.274  17.587  0.00  0.00    +0.000 OA
ATOM     30  H   UNL     1       4.210   5.043  17.360  0.00  0.00    +0.000 HD
BRANCH  28  31
ATOM     31  C   UNL     1       6.604   5.130  16.463  0.00  0.00    +0.000 C 
ATOM     32  C   UNL     1       7.609   4.407  17.350  0.00  0.00    +0.000 C 
BRANCH  31  33
ATOM     33  N   UNL     1       7.308   5.699  15.296  0.00  0.00    +0.000 NA
ATOM     34  H   UNL     1       6.940   5.239  14.458  0.00  0.00    +0.000 HD
ATOM     35  H   UNL     1       8.277   5.369  15.326  0.00  0.00    +0.000 HD
ENDBRANCH  31  33
ENDBRANCH  28  31
ENDBRANCH   6  27
BRANCH   1  36
ATOM     36  O   UNL     1       3.234   5.552  20.106  0.00  0.00    +0.000 OA
BRANCH  36  37
ATOM     37  C   UNL     1       2.099   4.949  20.735  0.00  0.00    +0.000 C 
BRANCH  37  39
ATOM     38  C   UNL     1       2.105   2.624  21.765  0.00  0.00    +0.000 C 
ATOM     39  C   UNL     1       2.073   3.435  20.467  0.00  0.00    +0.000 C 
ATOM     40  C   UNL     1       0.840   3.075  19.636  0.00  0.00    +0.000 C 
ENDBRANCH  37  39
ENDBRANCH  36  37
ENDBRANCH   1  36
TORSDOF 12
ENDMDL
MODEL 6
REMARK VINA RESULT:      -7.9      2.569      3.712
REMARK  Name = 
REMARK  15 active torsions:
REMARK  status: ('A' for Active; 'I' for Inactive)
REMARK    1  A    between atoms: C_1  and  C_2
REMARK    2  A    between atoms: C_2  and  C_3
REMARK    3  A    between atoms: C_2  and  C_4
REMARK    4  A    between atoms: C_4  and  O_5
REMARK    5  A    between atoms: O_5  and  C_6
REMARK    6  A    between atoms: C_8  and  C_9
REMARK    7  A    between atoms: N_11  and  CA_12
REMARK    8  A    between atoms: CA_12  and  C_13
REMARK    9  A    between atoms: CA_12  and  C_24
REMARK   10  A    between atoms: C_13  and  C_14
REMARK   11  A    between atoms: C_24  and  OXT_26
REMARK   12  A    between atoms: C_29  and  N_30
REMARK   13  A    between atoms: C_31  and  C_33
REMARK   14  A    between atoms: C_33  and  C_34
REMARK   15  A    between atoms: C_33  and  N_35
REMARK                            x       y       z     vdW  Elec       q    Type
REMARK                         _______ _______ _______ _____ _____    ______ ____
ROOT
ATOM      1  C   UNL     1       3.390   5.833  19.053  0.00  0.00    +0.000 A 
ATOM      2  C   UNL     1       2.515   6.566  19.875  0.00  0.00    +0.000 A 
ATOM      3  C   UNL     1       2.031   7.823  19.481  0.00  0.00    +0.000 A 
ATOM      4  C   UNL     1       2.428   8.337  18.244  0.00  0.00    +0.000 A 
ATOM      5  C   UNL     1       3.304   7.620  17.425  0.00  0.00    +0.000 A 
ATOM      6  C   UNL     1       3.779   6.357  17.809  0.00  0.00    +0.000 A 
ENDROOT
BRANCH   3   7
ATOM      7  C   UNL     1       1.051   8.618  20.286  0.00  0.00    +0.000 C 
ATOM      8  O   UNL     1       0.803   8.303  21.445  0.00  0.00    +0.000 OA
ATOM      9  N   UNL     1       0.470   9.696  19.670  0.00  0.00    +0.000 N 
ATOM     10  H   UNL     1       0.552   9.802  18.664  0.00  0.00    +0.000 HD
BRANCH   9  11
ATOM     11  CA  UNL     1      -0.443  10.650  20.318  0.00  0.00    +0.000 C 
BRANCH  11  12
ATOM     12  C   UNL     1      -1.095  11.451  19.167  0.00  0.00    +0.000 C 
ATOM     13  O   UNL     1      -2.295  11.660  19.084  0.00  0.00    +0.000 OA
BRANCH  12  14
ATOM     14  OXT UNL     1      -0.224  11.975  18.272  0.00  0.00    +0.000 OA
ATOM     15  HXT UNL     1       0.521  12.478  18.650  0.00  0.00    +0.000 HD
ENDBRANCH  12  14
ENDBRANCH  11  12
BRANCH  11  16
ATOM     16  C   UNL     1       0.190  11.558  21.405  0.00  0.00    +0.000 C 
BRANCH  16  17
ATOM     17  C   UNL     1      -0.789  12.456  22.125  0.00  0.00    +0.000 A 
ATOM     18  C   UNL     1      -1.996  11.927  22.596  0.00  0.00    +0.000 A 
ATOM     19  C   UNL     1      -2.778  12.649  23.495  0.00  0.00    +0.000 A 
ATOM     20  C   UNL     1      -2.375  13.922  23.922  0.00  0.00    +0.000 A 
ATOM     21  C   UNL     1      -3.037  14.588  24.963  0.00  0.00    +0.000 A 
ATOM     22  C   UNL     1      -2.628  15.859  25.369  0.00  0.00    +0.000 A 
ATOM     23  C   UNL     1      -1.599  16.505  24.692  0.00  0.00    +0.000 A 
ATOM     24  C   UNL     1      -0.917  15.847  23.667  0.00  0.00    +0.000 A 
ATOM     25  C   UNL     1      -1.257  14.533  23.314  0.00  0.00    +0.000 A 
ATOM     26  C   UNL     1      -0.476  13.790  22.414  0.00  0.00    +0.000 A 
ENDBRANCH  16  17
ENDBRANCH  11  16
ENDBRANCH   9  11
ENDBRANCH   3   7
BRANCH   6  27
ATOM     27  N   UNL     1       4.533   5.596  16.893  0.00  0.00    +0.000 N 
ATOM     28  C   UNL     1       5.736   6.003  16.339  0.00  0.00    +0.000 C 
ATOM     29  O   UNL     1       6.351   7.018  16.663  0.00  0.00    +0.000 OA
ATOM     30  H   UNL     1       4.233   4.643  16.737  0.00  0.00    +0.000 HD
BRANCH  28  31
ATOM     31  C   UNL     1       6.289   5.037  15.267  0.00  0.00    +0.000 C 
ATOM     32  C   UNL     1       5.569   3.695  15.296  0.00  0.00    +0.000 C 
BRANCH  31  33
ATOM     33  N   UNL     1       7.732   4.819  15.496  0.00  0.00    +0.000 NA
ATOM     34  H   UNL     1       7.827   4.067  16.184  0.00  0.00    +0.000 HD
ATOM     35  H   UNL     1       8.092   5.634  16.001  0.00  0.00    +0.000 HD
ENDBRANCH  31  33
ENDBRANCH  28  31
ENDBRANCH   6  27
BRANCH   1  36
ATOM     36  O   UNL     1       3.757   4.622  19.584  0.00  0.00    +0.000 OA
BRANCH  36  37
ATOM     37  C   UNL     1       2.717   3.678  19.859  0.00  0.00    +0.000 C 
BRANCH  37  39
ATOM     38  C   UNL     1       3.028   2.233  17.790  0.00  0.00    +0.000 C 
ATOM     39  C   UNL     1       2.088   3.171  18.551  0.00  0.00    +0.000 C 
ATOM     40  C   UNL     1       0.757   2.478  18.850  0.00  0.00    +0.000 C 
ENDBRANCH  37  39
ENDBRANCH  36  37
ENDBRANCH   1  36
TORSDOF 12
ENDMDL
MODEL 7
REMARK VINA RESULT:      -7.8      1.543      2.122
REMARK  Name = 
REMARK  15 active torsions:
REMARK  status: ('A' for Active; 'I' for Inactive)
REMARK    1  A    between atoms: C_1  and  C_2
REMARK    2  A    between atoms: C_2  and  C_3
REMARK    3  A    between atoms: C_2  and  C_4
REMARK    4  A    between atoms: C_4  and  O_5
REMARK    5  A    between atoms: O_5  and  C_6
REMARK    6  A    between atoms: C_8  and  C_9
REMARK    7  A    between atoms: N_11  and  CA_12
REMARK    8  A    between atoms: CA_12  and  C_13
REMARK    9  A    between atoms: CA_12  and  C_24
REMARK   10  A    between atoms: C_13  and  C_14
REMARK   11  A    between atoms: C_24  and  OXT_26
REMARK   12  A    between atoms: C_29  and  N_30
REMARK   13  A    between atoms: C_31  and  C_33
REMARK   14  A    between atoms: C_33  and  C_34
REMARK   15  A    between atoms: C_33  and  N_35
REMARK                            x       y       z     vdW  Elec       q    Type
REMARK                         _______ _______ _______ _____ _____    ______ ____
ROOT
ATOM      1  C   UNL     1       2.618   6.730  19.465  0.00  0.00    +0.000 A 
ATOM      2  C   UNL     1       1.827   7.802  19.916  0.00  0.00    +0.000 A 
ATOM      3  C   UNL     1       1.573   8.911  19.095  0.00  0.00    +0.000 A 
ATOM      4  C   UNL     1       2.116   8.933  17.808  0.00  0.00    +0.000 A 
ATOM      5  C   UNL     1       2.911   7.877  17.356  0.00  0.00    +0.000 A 
ATOM      6  C   UNL     1       3.155   6.759  18.167  0.00  0.00    +0.000 A 
ENDROOT
BRANCH   3   7
ATOM      7  C   UNL     1       0.689  10.050  19.500  0.00  0.00    +0.000 C 
ATOM      8  O   UNL     1       0.181  10.072  20.616  0.00  0.00    +0.000 OA
ATOM      9  N   UNL     1       0.495  11.044  18.577  0.00  0.00    +0.000 N 
ATOM     10  H   UNL     1       0.769  10.892  17.611  0.00  0.00    +0.000 HD
BRANCH   9  11
ATOM     11  CA  UNL     1      -0.260  12.284  18.814  0.00  0.00    +0.000 C 
BRANCH  11  12
ATOM     12  C   UNL     1      -1.690  12.009  18.293  0.00  0.00    +0.000 C 
ATOM     13  O   UNL     1      -2.663  11.888  19.021  0.00  0.00    +0.000 OA
BRANCH  12  14
ATOM     14  OXT UNL     1      -1.809  11.974  16.945  0.00  0.00    +0.000 OA
ATOM     15  HXT UNL     1      -1.826  11.087  16.543  0.00  0.00    +0.000 HD
ENDBRANCH  12  14
ENDBRANCH  11  12
BRANCH  11  16
ATOM     16  C   UNL     1       0.361  13.576  18.222  0.00  0.00    +0.000 C 
BRANCH  16  17
ATOM     17  C   UNL     1       1.506  14.150  19.024  0.00  0.00    +0.000 A 
ATOM     18  C   UNL     1       1.831  13.590  20.264  0.00  0.00    +0.000 A 
ATOM     19  C   UNL     1       3.038  13.909  20.886  0.00  0.00    +0.000 A 
ATOM     20  C   UNL     1       3.929  14.810  20.285  0.00  0.00    +0.000 A 
ATOM     21  C   UNL     1       5.223  15.003  20.788  0.00  0.00    +0.000 A 
ATOM     22  C   UNL     1       6.093  15.910  20.184  0.00  0.00    +0.000 A 
ATOM     23  C   UNL     1       5.655  16.685  19.114  0.00  0.00    +0.000 A 
ATOM     24  C   UNL     1       4.376  16.489  18.590  0.00  0.00    +0.000 A 
ATOM     25  C   UNL     1       3.526  15.512  19.130  0.00  0.00    +0.000 A 
ATOM     26  C   UNL     1       2.311  15.176  18.512  0.00  0.00    +0.000 A 
ENDBRANCH  16  17
ENDBRANCH  11  16
ENDBRANCH   9  11
ENDBRANCH   3   7
BRANCH   6  27
ATOM     27  N   UNL     1       3.828   5.646  17.624  0.00  0.00    +0.000 N 
ATOM     28  C   UNL     1       5.192   5.593  17.389  0.00  0.00    +0.000 C 
ATOM     29  O   UNL     1       5.998   6.458  17.732  0.00  0.00    +0.000 OA
ATOM     30  H   UNL     1       3.292   4.794  17.523  0.00  0.00    +0.000 HD
BRANCH  28  31
ATOM     31  C   UNL     1       5.653   4.305  16.669  0.00  0.00    +0.000 C 
ATOM     32  C   UNL     1       5.530   4.432  15.157  0.00  0.00    +0.000 C 
BRANCH  31  33
ATOM     33  N   UNL     1       4.836   3.164  17.129  0.00  0.00    +0.000 NA
ATOM     34  H   UNL     1       4.132   2.976  16.409  0.00  0.00    +0.000 HD
ATOM     35  H   UNL     1       4.270   3.485  17.919  0.00  0.00    +0.000 HD
ENDBRANCH  31  33
ENDBRANCH  28  31
ENDBRANCH   6  27
BRANCH   1  36
ATOM     36  O   UNL     1       2.757   5.723  20.388  0.00  0.00    +0.000 OA
BRANCH  36  37
ATOM     37  C   UNL     1       1.597   4.942  20.692  0.00  0.00    +0.000 C 
BRANCH  37  39
ATOM     38  C   UNL     1       1.508   2.568  21.599  0.00  0.00    +0.000 C 
ATOM     39  C   UNL     1       1.856   3.454  20.400  0.00  0.00    +0.000 C 
ATOM     40  C   UNL     1       1.067   3.023  19.162  0.00  0.00    +0.000 C 
ENDBRANCH  37  39
ENDBRANCH  36  37
ENDBRANCH   1  36
TORSDOF 12
ENDMDL
MODEL 8
REMARK VINA RESULT:      -7.8      1.510      2.036
REMARK  Name = 
REMARK  15 active torsions:
REMARK  status: ('A' for Active; 'I' for Inactive)
REMARK    1  A    between atoms: C_1  and  C_2
REMARK    2  A    between atoms: C_2  and  C_3
REMARK    3  A    between atoms: C_2  and  C_4
REMARK    4  A    between atoms: C_4  and  O_5
REMARK    5  A    between atoms: O_5  and  C_6
REMARK    6  A    between atoms: C_8  and  C_9
REMARK    7  A    between atoms: N_11  and  CA_12
REMARK    8  A    between atoms: CA_12  and  C_13
REMARK    9  A    between atoms: CA_12  and  C_24
REMARK   10  A    between atoms: C_13  and  C_14
REMARK   11  A    between atoms: C_24  and  OXT_26
REMARK   12  A    between atoms: C_29  and  N_30
REMARK   13  A    between atoms: C_31  and  C_33
REMARK   14  A    between atoms: C_33  and  C_34
REMARK   15  A    between atoms: C_33  and  N_35
REMARK                            x       y       z     vdW  Elec       q    Type
REMARK                         _______ _______ _______ _____ _____    ______ ____
ROOT
ATOM      1  C   UNL     1       3.081   6.462  19.192  0.00  0.00    +0.000 A 
ATOM      2  C   UNL     1       2.132   7.352  19.730  0.00  0.00    +0.000 A 
ATOM      3  C   UNL     1       1.770   8.524  19.049  0.00  0.00    +0.000 A 
ATOM      4  C   UNL     1       2.364   8.795  17.814  0.00  0.00    +0.000 A 
ATOM      5  C   UNL     1       3.314   7.922  17.277  0.00  0.00    +0.000 A 
ATOM      6  C   UNL     1       3.669   6.741  17.946  0.00  0.00    +0.000 A 
ENDROOT
BRANCH   3   7
ATOM      7  C   UNL     1       0.723   9.473  19.544  0.00  0.00    +0.000 C 
ATOM      8  O   UNL     1       0.313   9.395  20.697  0.00  0.00    +0.000 OA
ATOM      9  N   UNL     1       0.270  10.416  18.658  0.00  0.00    +0.000 N 
ATOM     10  H   UNL     1       0.488  10.321  17.671  0.00  0.00    +0.000 HD
BRANCH   9  11
ATOM     11  CA  UNL     1      -0.683  11.489  18.978  0.00  0.00    +0.000 C 
BRANCH  11  12
ATOM     12  C   UNL     1      -2.032  11.047  18.363  0.00  0.00    +0.000 C 
ATOM     13  O   UNL     1      -2.227   9.938  17.890  0.00  0.00    +0.000 OA
BRANCH  12  14
ATOM     14  OXT UNL     1      -3.024  11.964  18.444  0.00  0.00    +0.000 OA
ATOM     15  HXT UNL     1      -3.117  12.414  19.304  0.00  0.00    +0.000 HD
ENDBRANCH  12  14
ENDBRANCH  11  12
BRANCH  11  16
ATOM     16  C   UNL     1      -0.261  12.918  18.546  0.00  0.00    +0.000 C 
BRANCH  16  17
ATOM     17  C   UNL     1       1.124  13.327  18.991  0.00  0.00    +0.000 A 
ATOM     18  C   UNL     1       2.176  13.324  18.069  0.00  0.00    +0.000 A 
ATOM     19  C   UNL     1       3.381  13.955  18.373  0.00  0.00    +0.000 A 
ATOM     20  C   UNL     1       3.559  14.583  19.615  0.00  0.00    +0.000 A 
ATOM     21  C   UNL     1       4.680  15.384  19.875  0.00  0.00    +0.000 A 
ATOM     22  C   UNL     1       4.846  15.993  21.119  0.00  0.00    +0.000 A 
ATOM     23  C   UNL     1       3.929  15.752  22.137  0.00  0.00    +0.000 A 
ATOM     24  C   UNL     1       2.798  14.973  21.887  0.00  0.00    +0.000 A 
ATOM     25  C   UNL     1       2.572  14.433  20.612  0.00  0.00    +0.000 A 
ATOM     26  C   UNL     1       1.362  13.800  20.289  0.00  0.00    +0.000 A 
ENDBRANCH  16  17
ENDBRANCH  11  16
ENDBRANCH   9  11
ENDBRANCH   3   7
BRANCH   6  27
ATOM     27  N   UNL     1       4.509   5.810  17.305  0.00  0.00    +0.000 N 
ATOM     28  C   UNL     1       5.878   5.964  17.154  0.00  0.00    +0.000 C 
ATOM     29  O   UNL     1       6.544   6.867  17.661  0.00  0.00    +0.000 OA
ATOM     30  H   UNL     1       4.098   4.921  17.056  0.00  0.00    +0.000 HD
BRANCH  28  31
ATOM     31  C   UNL     1       6.541   4.859  16.300  0.00  0.00    +0.000 C 
ATOM     32  C   UNL     1       5.571   3.724  16.000  0.00  0.00    +0.000 C 
BRANCH  31  33
ATOM     33  N   UNL     1       7.714   4.319  17.015  0.00  0.00    +0.000 NA
ATOM     34  H   UNL     1       7.393   3.534  17.590  0.00  0.00    +0.000 HD
ATOM     35  H   UNL     1       7.996   5.011  17.716  0.00  0.00    +0.000 HD
ENDBRANCH  31  33
ENDBRANCH  28  31
ENDBRANCH   6  27
BRANCH   1  36
ATOM     36  O   UNL     1       3.310   5.362  19.979  0.00  0.00    +0.000 OA
BRANCH  36  37
ATOM     37  C   UNL     1       2.215   4.864  20.753  0.00  0.00    +0.000 C 
BRANCH  37  39
ATOM     38  C   UNL     1       1.621   2.593  21.730  0.00  0.00    +0.000 C 
ATOM     39  C   UNL     1       1.982   3.372  20.463  0.00  0.00    +0.000 C 
ATOM     40  C   UNL     1       0.892   3.213  19.401  0.00  0.00    +0.000 C 
ENDBRANCH  37  39
ENDBRANCH  36  37
ENDBRANCH   1  36
TORSDOF 12
ENDMDL
MODEL 9
REMARK VINA RESULT:      -7.8      1.477      1.998
REMARK  Name = 
REMARK  15 active torsions:
REMARK  status: ('A' for Active; 'I' for Inactive)
REMARK    1  A    between atoms: C_1  and  C_2
REMARK    2  A    between atoms: C_2  and  C_3
REMARK    3  A    between atoms: C_2  and  C_4
REMARK    4  A    between atoms: C_4  and  O_5
REMARK    5  A    between atoms: O_5  and  C_6
REMARK    6  A    between atoms: C_8  and  C_9
REMARK    7  A    between atoms: N_11  and  CA_12
REMARK    8  A    between atoms: CA_12  and  C_13
REMARK    9  A    between atoms: CA_12  and  C_24
REMARK   10  A    between atoms: C_13  and  C_14
REMARK   11  A    between atoms: C_24  and  OXT_26
REMARK   12  A    between atoms: C_29  and  N_30
REMARK   13  A    between atoms: C_31  and  C_33
REMARK   14  A    between atoms: C_33  and  C_34
REMARK   15  A    between atoms: C_33  and  N_35
REMARK                            x       y       z     vdW  Elec       q    Type
REMARK                         _______ _______ _______ _____ _____    ______ ____
ROOT
ATOM      1  C   UNL     1       2.380   6.516  19.667  0.00  0.00    +0.000 A 
ATOM      2  C   UNL     1       1.524   7.507  20.181  0.00  0.00    +0.000 A 
ATOM      3  C   UNL     1       1.361   8.736  19.524  0.00  0.00    +0.000 A 
ATOM      4  C   UNL     1       2.062   8.962  18.336  0.00  0.00    +0.000 A 
ATOM      5  C   UNL     1       2.921   7.986  17.824  0.00  0.00    +0.000 A 
ATOM      6  C   UNL     1       3.077   6.750  18.470  0.00  0.00    +0.000 A 
ENDROOT
BRANCH   3   7
ATOM      7  C   UNL     1       0.418   9.801  19.991  0.00  0.00    +0.000 C 
ATOM      8  O   UNL     1      -0.728   9.847  19.557  0.00  0.00    +0.000 OA
ATOM      9  N   UNL     1       0.898  10.693  20.915  0.00  0.00    +0.000 N 
ATOM     10  H   UNL     1       1.895  10.739  21.096  0.00  0.00    +0.000 HD
BRANCH   9  11
ATOM     11  CA  UNL     1       0.105  11.749  21.563  0.00  0.00    +0.000 C 
BRANCH  11  12
ATOM     12  C   UNL     1      -0.638  11.058  22.730  0.00  0.00    +0.000 C 
ATOM     13  O   UNL     1      -0.121  10.230  23.464  0.00  0.00    +0.000 OA
BRANCH  12  14
ATOM     14  OXT UNL     1      -1.906  11.486  22.932  0.00  0.00    +0.000 OA
ATOM     15  HXT UNL     1      -2.274  12.065  22.240  0.00  0.00    +0.000 HD
ENDBRANCH  12  14
ENDBRANCH  11  12
BRANCH  11  16
ATOM     16  C   UNL     1      -0.843  12.549  20.631  0.00  0.00    +0.000 C 
BRANCH  16  17
ATOM     17  C   UNL     1      -0.157  13.592  19.779  0.00  0.00    +0.000 A 
ATOM     18  C   UNL     1      -0.734  14.858  19.638  0.00  0.00    +0.000 A 
ATOM     19  C   UNL     1       0.003  15.912  19.100  0.00  0.00    +0.000 A 
ATOM     20  C   UNL     1       1.325  15.709  18.675  0.00  0.00    +0.000 A 
ATOM     21  C   UNL     1       2.148  16.782  18.310  0.00  0.00    +0.000 A 
ATOM     22  C   UNL     1       3.457  16.561  17.880  0.00  0.00    +0.000 A 
ATOM     23  C   UNL     1       3.932  15.260  17.746  0.00  0.00    +0.000 A 
ATOM     24  C   UNL     1       3.130  14.182  18.125  0.00  0.00    +0.000 A 
ATOM     25  C   UNL     1       1.847  14.398  18.647  0.00  0.00    +0.000 A 
ATOM     26  C   UNL     1       1.094  13.349  19.198  0.00  0.00    +0.000 A 
ENDBRANCH  16  17
ENDBRANCH  11  16
ENDBRANCH   9  11
ENDBRANCH   3   7
BRANCH   6  27
ATOM     27  N   UNL     1       3.827   5.735  17.845  0.00  0.00    +0.000 N 
ATOM     28  C   UNL     1       5.060   5.284  18.290  0.00  0.00    +0.000 C 
ATOM     29  O   UNL     1       5.594   5.627  19.344  0.00  0.00    +0.000 OA
ATOM     30  H   UNL     1       3.371   5.223  17.101  0.00  0.00    +0.000 HD
BRANCH  28  31
ATOM     31  C   UNL     1       5.726   4.254  17.349  0.00  0.00    +0.000 C 
ATOM     32  C   UNL     1       7.142   4.670  16.973  0.00  0.00    +0.000 C 
BRANCH  31  33
ATOM     33  N   UNL     1       4.918   4.114  16.121  0.00  0.00    +0.000 NA
ATOM     34  H   UNL     1       4.996   4.990  15.597  0.00  0.00    +0.000 HD
ATOM     35  H   UNL     1       3.932   4.103  16.397  0.00  0.00    +0.000 HD
ENDBRANCH  31  33
ENDBRANCH  28  31
ENDBRANCH   6  27
BRANCH   1  36
ATOM     36  O   UNL     1       2.415   5.373  20.426  0.00  0.00    +0.000 OA
BRANCH  36  37
ATOM     37  C   UNL     1       1.202   4.623  20.545  0.00  0.00    +0.000 C 
BRANCH  37  39
ATOM     38  C   UNL     1       2.110   2.709  19.139  0.00  0.00    +0.000 C 
ATOM     39  C   UNL     1       1.491   3.114  20.479  0.00  0.00    +0.000 C 
ATOM     40  C   UNL     1       2.403   2.709  21.640  0.00  0.00    +0.000 C 
ENDBRANCH  37  39
ENDBRANCH  36  37
ENDBRANCH   1  36
TORSDOF 12
ENDMDL
