MODEL 1
REMARK VINA RESULT:      -7.3      0.000      0.000
REMARK  Name = 
REMARK  7 active torsions:
REMARK  status: ('A' for Active; 'I' for Inactive)
REMARK    1  A    between atoms: C_1  and  C_2
REMARK    2  A    between atoms: C_8  and  C_9
REMARK    3  A    between atoms: C_13  and  C_14
REMARK    4  A    between atoms: C_17  and  C_18
REMARK    5  A    between atoms: C_22  and  C_23
REMARK    6  A    between atoms: C_25  and  C_26
REMARK    7  A    between atoms: C_29  and  C_30
REMARK                            x       y       z     vdW  Elec       q    Type
REMARK                         _______ _______ _______ _____ _____    ______ ____
ROOT
ATOM      1  C   UNL     1       2.439   4.299  21.144  0.00  0.00    +0.000 C 
ATOM      2  C   UNL     1       1.960   5.526  20.422  0.00  0.00    +0.000 C 
ATOM      3  O   UNL     1       1.787   5.508  19.207  0.00  0.00    +0.000 OA
ATOM      4  N   UNL     1       1.713   6.596  21.267  0.00  0.00    +0.000 N 
ATOM      5  C   UNL     1       1.432   7.851  20.828  0.00  0.00    +0.000 C 
ATOM      6  N   UNL     1       1.266   8.194  19.602  0.00  0.00    +0.000 NA
ATOM      7  N   UNL     1       1.137   9.557  19.463  0.00  0.00    +0.000 N 
ATOM      8  C   UNL     1       1.777  10.106  18.344  0.00  0.00    +0.000 C 
ATOM      9  C   UNL     1       2.426   9.099  17.418  0.00  0.00    +0.000 C 
ATOM     10  O   UNL     1       1.904  11.305  18.127  0.00  0.00    +0.000 OA
ATOM     11  C   UNL     1       0.696  10.283  20.684  0.00  0.00    +0.000 C 
ATOM     12  C   UNL     1       1.244  11.687  20.912  0.00  0.00    +0.000 C 
ATOM     13  C   UNL     1       0.446  12.798  20.166  0.00  0.00    +0.000 C 
ATOM     14  N   UNL     1      -1.016  12.694  20.429  0.00  0.00    +0.000 N 
ATOM     15  C   UNL     1      -1.812  13.841  20.533  0.00  0.00    +0.000 C 
ATOM     16  C   UNL     1      -3.289  13.712  20.854  0.00  0.00    +0.000 C 
ATOM     17  O   UNL     1      -1.383  14.992  20.444  0.00  0.00    +0.000 OA
ATOM     18  C   UNL     1      -1.585  11.352  20.133  0.00  0.00    +0.000 C 
ATOM     19  C   UNL     1      -0.821  10.284  20.934  0.00  0.00    +0.000 C 
ATOM     20  S   UNL     1       1.369   9.109  22.021  0.00  0.00    +0.000 S 
ATOM     21  H   UNL     1       1.901   6.497  22.252  0.00  0.00    +0.000 HD
ENDROOT
BRANCH  13  22
ATOM     22  C   UNL     1       1.167  14.121  20.430  0.00  0.00    +0.000 A 
ATOM     23  C   UNL     1       1.558  14.905  19.331  0.00  0.00    +0.000 A 
ATOM     24  C   UNL     1       2.295  16.076  19.502  0.00  0.00    +0.000 A 
ATOM     25  C   UNL     1       2.671  16.494  20.784  0.00  0.00    +0.000 A 
ATOM     26  C   UNL     1       3.497  17.730  20.973  0.00  0.00    +0.000 C 
ATOM     27  C   UNL     1       2.261  15.737  21.886  0.00  0.00    +0.000 A 
ATOM     28  C   UNL     1       1.513  14.566  21.715  0.00  0.00    +0.000 A 
ENDBRANCH  13  22
BRANCH  18  29
ATOM     29  C   UNL     1      -1.827  11.020  18.649  0.00  0.00    +0.000 A 
ATOM     30  C   UNL     1      -2.299   9.747  18.270  0.00  0.00    +0.000 A 
ATOM     31  C   UNL     1      -2.726   9.465  16.972  0.00  0.00    +0.000 A 
ATOM     32  C   UNL     1      -2.739  10.461  16.002  0.00  0.00    +0.000 A 
ATOM     33  C   UNL     1      -3.309  10.163  14.647  0.00  0.00    +0.000 C 
ATOM     34  C   UNL     1      -2.210  11.713  16.329  0.00  0.00    +0.000 A 
ATOM     35  C   UNL     1      -1.763  11.991  17.635  0.00  0.00    +0.000 A 
ENDBRANCH  18  29
TORSDOF 2
ENDMDL
MODEL 2
REMARK VINA RESULT:      -6.6      3.274      7.265
REMARK  Name = 
REMARK  7 active torsions:
REMARK  status: ('A' for Active; 'I' for Inactive)
REMARK    1  A    between atoms: C_1  and  C_2
REMARK    2  A    between atoms: C_8  and  C_9
REMARK    3  A    between atoms: C_13  and  C_14
REMARK    4  A    between atoms: C_17  and  C_18
REMARK    5  A    between atoms: C_22  and  C_23
REMARK    6  A    between atoms: C_25  and  C_26
REMARK    7  A    between atoms: C_29  and  C_30
REMARK                            x       y       z     vdW  Elec       q    Type
REMARK                         _______ _______ _______ _____ _____    ______ ____
ROOT
ATOM      1  C   UNL     1      -7.685  13.756  24.754  0.00  0.00    +0.000 C 
ATOM      2  C   UNL     1      -6.659  13.915  23.668  0.00  0.00    +0.000 C 
ATOM      3  O   UNL     1      -6.904  14.591  22.673  0.00  0.00    +0.000 OA
ATOM      4  N   UNL     1      -5.463  13.275  23.948  0.00  0.00    +0.000 N 
ATOM      5  C   UNL     1      -4.453  13.143  23.049  0.00  0.00    +0.000 C 
ATOM      6  N   UNL     1      -4.427  13.661  21.874  0.00  0.00    +0.000 NA
ATOM      7  N   UNL     1      -3.340  13.230  21.149  0.00  0.00    +0.000 N 
ATOM      8  C   UNL     1      -3.589  12.977  19.793  0.00  0.00    +0.000 C 
ATOM      9  C   UNL     1      -4.991  13.310  19.326  0.00  0.00    +0.000 C 
ATOM     10  O   UNL     1      -2.797  12.452  19.021  0.00  0.00    +0.000 OA
ATOM     11  C   UNL     1      -2.195  12.728  21.953  0.00  0.00    +0.000 C 
ATOM     12  C   UNL     1      -1.366  11.587  21.374  0.00  0.00    +0.000 C 
ATOM     13  C   UNL     1      -0.253  12.059  20.392  0.00  0.00    +0.000 C 
ATOM     14  N   UNL     1       0.582  13.140  20.986  0.00  0.00    +0.000 N 
ATOM     15  C   UNL     1       1.953  13.223  20.715  0.00  0.00    +0.000 C 
ATOM     16  C   UNL     1       2.791  14.301  21.373  0.00  0.00    +0.000 C 
ATOM     17  O   UNL     1       2.568  12.424  20.008  0.00  0.00    +0.000 OA
ATOM     18  C   UNL     1      -0.205  14.300  21.482  0.00  0.00    +0.000 C 
ATOM     19  C   UNL     1      -1.251  13.813  22.499  0.00  0.00    +0.000 C 
ATOM     20  S   UNL     1      -3.124  12.124  23.499  0.00  0.00    +0.000 S 
ATOM     21  H   UNL     1      -5.380  12.739  24.798  0.00  0.00    +0.000 HD
ENDROOT
BRANCH  13  22
ATOM     22  C   UNL     1       0.423  10.801  19.843  0.00  0.00    +0.000 A 
ATOM     23  C   UNL     1       0.763   9.774  20.740  0.00  0.00    +0.000 A 
ATOM     24  C   UNL     1       1.458   8.642  20.316  0.00  0.00    +0.000 A 
ATOM     25  C   UNL     1       1.844   8.509  18.977  0.00  0.00    +0.000 A 
ATOM     26  C   UNL     1       2.627   7.315  18.522  0.00  0.00    +0.000 C 
ATOM     27  C   UNL     1       1.485   9.512  18.070  0.00  0.00    +0.000 A 
ATOM     28  C   UNL     1       0.778  10.644  18.494  0.00  0.00    +0.000 A 
ENDBRANCH  13  22
BRANCH  18  29
ATOM     29  C   UNL     1      -0.724  15.284  20.418  0.00  0.00    +0.000 A 
ATOM     30  C   UNL     1      -1.770  16.179  20.722  0.00  0.00    +0.000 A 
ATOM     31  C   UNL     1      -2.135  17.220  19.868  0.00  0.00    +0.000 A 
ATOM     32  C   UNL     1      -1.438  17.438  18.685  0.00  0.00    +0.000 A 
ATOM     33  C   UNL     1      -1.775  18.630  17.840  0.00  0.00    +0.000 C 
ATOM     34  C   UNL     1      -0.444  16.525  18.322  0.00  0.00    +0.000 A 
ATOM     35  C   UNL     1      -0.089  15.464  19.178  0.00  0.00    +0.000 A 
ENDBRANCH  18  29
TORSDOF 2
ENDMDL
MODEL 3
REMARK VINA RESULT:      -5.9      3.890      6.250
REMARK  Name = 
REMARK  7 active torsions:
REMARK  status: ('A' for Active; 'I' for Inactive)
REMARK    1  A    between atoms: C_1  and  C_2
REMARK    2  A    between atoms: C_8  and  C_9
REMARK    3  A    between atoms: C_13  and  C_14
REMARK    4  A    between atoms: C_17  and  C_18
REMARK    5  A    between atoms: C_22  and  C_23
REMARK    6  A    between atoms: C_25  and  C_26
REMARK    7  A    between atoms: C_29  and  C_30
REMARK                            x       y       z     vdW  Elec       q    Type
REMARK                         _______ _______ _______ _____ _____    ______ ____
ROOT
ATOM      1  C   UNL     1      -7.076  13.585  22.587  0.00  0.00    +0.000 C 
ATOM      2  C   UNL     1      -5.642  13.401  22.177  0.00  0.00    +0.000 C 
ATOM      3  O   UNL     1      -5.195  12.279  21.960  0.00  0.00    +0.000 OA
ATOM      4  N   UNL     1      -4.954  14.596  22.044  0.00  0.00    +0.000 N 
ATOM      5  C   UNL     1      -3.612  14.671  21.844  0.00  0.00    +0.000 C 
ATOM      6  N   UNL     1      -2.827  13.672  21.661  0.00  0.00    +0.000 NA
ATOM      7  N   UNL     1      -1.506  14.057  21.631  0.00  0.00    +0.000 N 
ATOM      8  C   UNL     1      -0.615  13.183  22.270  0.00  0.00    +0.000 C 
ATOM      9  C   UNL     1      -1.238  11.911  22.806  0.00  0.00    +0.000 C 
ATOM     10  O   UNL     1       0.568  13.419  22.480  0.00  0.00    +0.000 OA
ATOM     11  C   UNL     1      -1.265  15.484  21.291  0.00  0.00    +0.000 C 
ATOM     12  C   UNL     1      -0.082  16.182  21.952  0.00  0.00    +0.000 C 
ATOM     13  C   UNL     1       1.271  15.952  21.215  0.00  0.00    +0.000 C 
ATOM     14  N   UNL     1       1.161  16.248  19.759  0.00  0.00    +0.000 N 
ATOM     15  C   UNL     1       2.229  16.818  19.058  0.00  0.00    +0.000 C 
ATOM     16  C   UNL     1       2.074  17.159  17.588  0.00  0.00    +0.000 C 
ATOM     17  O   UNL     1       3.303  17.136  19.570  0.00  0.00    +0.000 OA
ATOM     18  C   UNL     1       0.061  15.511  19.080  0.00  0.00    +0.000 C 
ATOM     19  C   UNL     1      -1.270  15.811  19.788  0.00  0.00    +0.000 C 
ATOM     20  S   UNL     1      -2.890  16.246  21.920  0.00  0.00    +0.000 S 
ATOM     21  H   UNL     1      -5.425  15.460  22.259  0.00  0.00    +0.000 HD
ENDROOT
BRANCH  13  22
ATOM     22  C   UNL     1       2.356  16.641  22.044  0.00  0.00    +0.000 A 
ATOM     23  C   UNL     1       3.468  15.888  22.458  0.00  0.00    +0.000 A 
ATOM     24  C   UNL     1       4.446  16.435  23.287  0.00  0.00    +0.000 A 
ATOM     25  C   UNL     1       4.334  17.756  23.736  0.00  0.00    +0.000 A 
ATOM     26  C   UNL     1       5.359  18.338  24.661  0.00  0.00    +0.000 C 
ATOM     27  C   UNL     1       3.246  18.524  23.306  0.00  0.00    +0.000 A 
ATOM     28  C   UNL     1       2.270  17.978  22.465  0.00  0.00    +0.000 A 
ENDBRANCH  13  22
BRANCH  18  29
ATOM     29  C   UNL     1       0.323  14.029  18.759  0.00  0.00    +0.000 A 
ATOM     30  C   UNL     1       1.632  13.507  18.811  0.00  0.00    +0.000 A 
ATOM     31  C   UNL     1       1.894  12.139  18.731  0.00  0.00    +0.000 A 
ATOM     32  C   UNL     1       0.850  11.225  18.638  0.00  0.00    +0.000 A 
ATOM     33  C   UNL     1       1.152   9.756  18.668  0.00  0.00    +0.000 C 
ATOM     34  C   UNL     1      -0.452  11.716  18.512  0.00  0.00    +0.000 A 
ATOM     35  C   UNL     1      -0.714  13.098  18.575  0.00  0.00    +0.000 A 
ENDBRANCH  18  29
TORSDOF 2
ENDMDL
MODEL 4
REMARK VINA RESULT:      -5.7      3.890      6.188
REMARK  Name = 
REMARK  7 active torsions:
REMARK  status: ('A' for Active; 'I' for Inactive)
REMARK    1  A    between atoms: C_1  and  C_2
REMARK    2  A    between atoms: C_8  and  C_9
REMARK    3  A    between atoms: C_13  and  C_14
REMARK    4  A    between atoms: C_17  and  C_18
REMARK    5  A    between atoms: C_22  and  C_23
REMARK    6  A    between atoms: C_25  and  C_26
REMARK    7  A    between atoms: C_29  and  C_30
REMARK                            x       y       z     vdW  Elec       q    Type
REMARK                         _______ _______ _______ _____ _____    ______ ____
ROOT
ATOM      1  C   UNL     1      -7.231  13.607  23.630  0.00  0.00    +0.000 C 
ATOM      2  C   UNL     1      -5.863  13.377  23.054  0.00  0.00    +0.000 C 
ATOM      3  O   UNL     1      -5.517  12.256  22.695  0.00  0.00    +0.000 OA
ATOM      4  N   UNL     1      -5.113  14.537  22.949  0.00  0.00    +0.000 N 
ATOM      5  C   UNL     1      -3.796  14.552  22.611  0.00  0.00    +0.000 C 
ATOM      6  N   UNL     1      -3.104  13.529  22.261  0.00  0.00    +0.000 NA
ATOM      7  N   UNL     1      -1.770  13.837  22.121  0.00  0.00    +0.000 N 
ATOM      8  C   UNL     1      -0.879  12.859  22.584  0.00  0.00    +0.000 C 
ATOM      9  C   UNL     1      -1.529  11.582  23.075  0.00  0.00    +0.000 C 
ATOM     10  O   UNL     1       0.332  13.005  22.684  0.00  0.00    +0.000 OA
ATOM     11  C   UNL     1      -1.469  15.273  21.879  0.00  0.00    +0.000 C 
ATOM     12  C   UNL     1      -0.180  15.838  22.465  0.00  0.00    +0.000 C 
ATOM     13  C   UNL     1       1.072  15.597  21.569  0.00  0.00    +0.000 C 
ATOM     14  N   UNL     1       0.833  16.031  20.164  0.00  0.00    +0.000 N 
ATOM     15  C   UNL     1       1.860  16.600  19.402  0.00  0.00    +0.000 C 
ATOM     16  C   UNL     1       1.579  17.082  17.992  0.00  0.00    +0.000 C 
ATOM     17  O   UNL     1       3.000  16.805  19.820  0.00  0.00    +0.000 OA
ATOM     18  C   UNL     1      -0.378  15.425  19.548  0.00  0.00    +0.000 C 
ATOM     19  C   UNL     1      -1.606  15.736  20.419  0.00  0.00    +0.000 C 
ATOM     20  S   UNL     1      -2.966  16.068  22.742  0.00  0.00    +0.000 S 
ATOM     21  H   UNL     1      -5.499  15.404  23.286  0.00  0.00    +0.000 HD
ENDROOT
BRANCH  13  22
ATOM     22  C   UNL     1       2.280  16.144  22.331  0.00  0.00    +0.000 A 
ATOM     23  C   UNL     1       2.196  17.429  22.894  0.00  0.00    +0.000 A 
ATOM     24  C   UNL     1       3.292  18.017  23.524  0.00  0.00    +0.000 A 
ATOM     25  C   UNL     1       4.513  17.336  23.602  0.00  0.00    +0.000 A 
ATOM     26  C   UNL     1       5.706  17.978  24.241  0.00  0.00    +0.000 C 
ATOM     27  C   UNL     1       4.599  16.045  23.070  0.00  0.00    +0.000 A 
ATOM     28  C   UNL     1       3.496  15.451  22.446  0.00  0.00    +0.000 A 
ENDBRANCH  13  22
BRANCH  18  29
ATOM     29  C   UNL     1      -0.251  13.965  19.076  0.00  0.00    +0.000 A 
ATOM     30  C   UNL     1       1.018  13.366  18.939  0.00  0.00    +0.000 A 
ATOM     31  C   UNL     1       1.178  11.998  18.716  0.00  0.00    +0.000 A 
ATOM     32  C   UNL     1       0.072  11.158  18.662  0.00  0.00    +0.000 A 
ATOM     33  C   UNL     1       0.276   9.678  18.535  0.00  0.00    +0.000 C 
ATOM     34  C   UNL     1      -1.201  11.733  18.723  0.00  0.00    +0.000 A 
ATOM     35  C   UNL     1      -1.361  13.116  18.930  0.00  0.00    +0.000 A 
ENDBRANCH  18  29
TORSDOF 2
ENDMDL
MODEL 5
REMARK VINA RESULT:      -5.6      3.461      5.771
REMARK  Name = 
REMARK  7 active torsions:
REMARK  status: ('A' for Active; 'I' for Inactive)
REMARK    1  A    between atoms: C_1  and  C_2
REMARK    2  A    between atoms: C_8  and  C_9
REMARK    3  A    between atoms: C_13  and  C_14
REMARK    4  A    between atoms: C_17  and  C_18
REMARK    5  A    between atoms: C_22  and  C_23
REMARK    6  A    between atoms: C_25  and  C_26
REMARK    7  A    between atoms: C_29  and  C_30
REMARK                            x       y       z     vdW  Elec       q    Type
REMARK                         _______ _______ _______ _____ _____    ______ ____
ROOT
ATOM      1  C   UNL     1       6.661  15.578  18.074  0.00  0.00    +0.000 C 
ATOM      2  C   UNL     1       5.222  15.161  18.184  0.00  0.00    +0.000 C 
ATOM      3  O   UNL     1       4.548  14.974  17.176  0.00  0.00    +0.000 OA
ATOM      4  N   UNL     1       4.803  14.983  19.493  0.00  0.00    +0.000 N 
ATOM      5  C   UNL     1       3.508  14.767  19.844  0.00  0.00    +0.000 C 
ATOM      6  N   UNL     1       2.530  14.608  19.028  0.00  0.00    +0.000 NA
ATOM      7  N   UNL     1       1.321  14.553  19.682  0.00  0.00    +0.000 N 
ATOM      8  C   UNL     1       0.263  15.211  19.039  0.00  0.00    +0.000 C 
ATOM      9  C   UNL     1       0.601  15.792  17.681  0.00  0.00    +0.000 C 
ATOM     10  O   UNL     1      -0.844  15.401  19.526  0.00  0.00    +0.000 OA
ATOM     11  C   UNL     1       1.388  14.167  21.116  0.00  0.00    +0.000 C 
ATOM     12  C   UNL     1       0.378  14.794  22.070  0.00  0.00    +0.000 C 
ATOM     13  C   UNL     1      -0.991  14.051  22.107  0.00  0.00    +0.000 C 
ATOM     14  N   UNL     1      -0.816  12.588  22.326  0.00  0.00    +0.000 N 
ATOM     15  C   UNL     1      -1.737  11.858  23.086  0.00  0.00    +0.000 C 
ATOM     16  C   UNL     1      -1.509  10.381  23.338  0.00  0.00    +0.000 C 
ATOM     17  O   UNL     1      -2.721  12.350  23.640  0.00  0.00    +0.000 OA
ATOM     18  C   UNL     1       0.105  11.942  21.352  0.00  0.00    +0.000 C 
ATOM     19  C   UNL     1       1.467  12.655  21.385  0.00  0.00    +0.000 C 
ATOM     20  S   UNL     1       3.136  14.788  21.537  0.00  0.00    +0.000 S 
ATOM     21  H   UNL     1       5.446  15.176  20.244  0.00  0.00    +0.000 HD
ENDROOT
BRANCH  13  22
ATOM     22  C   UNL     1      -1.908  14.847  23.038  0.00  0.00    +0.000 A 
ATOM     23  C   UNL     1      -3.067  15.433  22.501  0.00  0.00    +0.000 A 
ATOM     24  C   UNL     1      -3.895  16.243  23.276  0.00  0.00    +0.000 A 
ATOM     25  C   UNL     1      -3.582  16.498  24.617  0.00  0.00    +0.000 A 
ATOM     26  C   UNL     1      -4.445  17.399  25.445  0.00  0.00    +0.000 C 
ATOM     27  C   UNL     1      -2.446  15.895  25.169  0.00  0.00    +0.000 A 
ATOM     28  C   UNL     1      -1.619  15.075  24.393  0.00  0.00    +0.000 A 
ENDBRANCH  13  22
BRANCH  18  29
ATOM     29  C   UNL     1      -0.464  11.666  19.948  0.00  0.00    +0.000 A 
ATOM     30  C   UNL     1       0.102  10.666  19.132  0.00  0.00    +0.000 A 
ATOM     31  C   UNL     1      -0.498  10.240  17.947  0.00  0.00    +0.000 A 
ATOM     32  C   UNL     1      -1.720  10.769  17.546  0.00  0.00    +0.000 A 
ATOM     33  C   UNL     1      -2.399  10.214  16.329  0.00  0.00    +0.000 C 
ATOM     34  C   UNL     1      -2.270  11.812  18.296  0.00  0.00    +0.000 A 
ATOM     35  C   UNL     1      -1.653  12.253  19.483  0.00  0.00    +0.000 A 
ENDBRANCH  18  29
TORSDOF 2
ENDMDL
MODEL 6
REMARK VINA RESULT:      -5.6      4.301      6.628
REMARK  Name = 
REMARK  7 active torsions:
REMARK  status: ('A' for Active; 'I' for Inactive)
REMARK    1  A    between atoms: C_1  and  C_2
REMARK    2  A    between atoms: C_8  and  C_9
REMARK    3  A    between atoms: C_13  and  C_14
REMARK    4  A    between atoms: C_17  and  C_18
REMARK    5  A    between atoms: C_22  and  C_23
REMARK    6  A    between atoms: C_25  and  C_26
REMARK    7  A    between atoms: C_29  and  C_30
REMARK                            x       y       z     vdW  Elec       q    Type
REMARK                         _______ _______ _______ _____ _____    ______ ____
ROOT
ATOM      1  C   UNL     1       5.690  16.460  18.555  0.00  0.00    +0.000 C 
ATOM      2  C   UNL     1       4.235  16.094  18.634  0.00  0.00    +0.000 C 
ATOM      3  O   UNL     1       3.594  15.858  17.615  0.00  0.00    +0.000 OA
ATOM      4  N   UNL     1       3.761  16.020  19.934  0.00  0.00    +0.000 N 
ATOM      5  C   UNL     1       2.447  15.867  20.247  0.00  0.00    +0.000 C 
ATOM      6  N   UNL     1       1.495  15.682  19.405  0.00  0.00    +0.000 NA
ATOM      7  N   UNL     1       0.261  15.709  20.012  0.00  0.00    +0.000 N 
ATOM      8  C   UNL     1      -0.749  16.352  19.283  0.00  0.00    +0.000 C 
ATOM      9  C   UNL     1      -0.341  16.828  17.905  0.00  0.00    +0.000 C 
ATOM     10  O   UNL     1      -1.867  16.608  19.712  0.00  0.00    +0.000 OA
ATOM     11  C   UNL     1       0.261  15.419  21.470  0.00  0.00    +0.000 C 
ATOM     12  C   UNL     1      -0.764  16.141  22.338  0.00  0.00    +0.000 C 
ATOM     13  C   UNL     1      -2.156  15.443  22.370  0.00  0.00    +0.000 C 
ATOM     14  N   UNL     1      -2.038  13.995  22.694  0.00  0.00    +0.000 N 
ATOM     15  C   UNL     1      -3.011  13.347  23.464  0.00  0.00    +0.000 C 
ATOM     16  C   UNL     1      -2.841  11.884  23.825  0.00  0.00    +0.000 C 
ATOM     17  O   UNL     1      -3.998  13.904  23.944  0.00  0.00    +0.000 OA
ATOM     18  C   UNL     1      -1.102  13.256  21.804  0.00  0.00    +0.000 C 
ATOM     19  C   UNL     1       0.280  13.928  21.844  0.00  0.00    +0.000 C 
ATOM     20  S   UNL     1       2.011  16.015  21.919  0.00  0.00    +0.000 S 
ATOM     21  H   UNL     1       4.380  16.244  20.696  0.00  0.00    +0.000 HD
ENDROOT
BRANCH  13  22
ATOM     22  C   UNL     1      -3.081  16.329  23.207  0.00  0.00    +0.000 A 
ATOM     23  C   UNL     1      -2.636  16.767  24.466  0.00  0.00    +0.000 A 
ATOM     24  C   UNL     1      -3.465  17.502  25.313  0.00  0.00    +0.000 A 
ATOM     25  C   UNL     1      -4.774  17.814  24.925  0.00  0.00    +0.000 A 
ATOM     26  C   UNL     1      -5.684  18.569  25.846  0.00  0.00    +0.000 C 
ATOM     27  C   UNL     1      -5.217  17.408  23.662  0.00  0.00    +0.000 A 
ATOM     28  C   UNL     1      -4.381  16.678  22.808  0.00  0.00    +0.000 A 
ENDBRANCH  13  22
BRANCH  18  29
ATOM     29  C   UNL     1      -1.626  12.901  20.400  0.00  0.00    +0.000 A 
ATOM     30  C   UNL     1      -0.726  12.647  19.345  0.00  0.00    +0.000 A 
ATOM     31  C   UNL     1      -1.141  12.126  18.119  0.00  0.00    +0.000 A 
ATOM     32  C   UNL     1      -2.475  11.794  17.908  0.00  0.00    +0.000 A 
ATOM     33  C   UNL     1      -2.875  11.131  16.625  0.00  0.00    +0.000 C 
ATOM     34  C   UNL     1      -3.400  12.102  18.910  0.00  0.00    +0.000 A 
ATOM     35  C   UNL     1      -2.983  12.644  20.140  0.00  0.00    +0.000 A 
ENDBRANCH  18  29
TORSDOF 2
ENDMDL
MODEL 7
REMARK VINA RESULT:      -5.3      3.788      6.102
REMARK  Name = 
REMARK  7 active torsions:
REMARK  status: ('A' for Active; 'I' for Inactive)
REMARK    1  A    between atoms: C_1  and  C_2
REMARK    2  A    between atoms: C_8  and  C_9
REMARK    3  A    between atoms: C_13  and  C_14
REMARK    4  A    between atoms: C_17  and  C_18
REMARK    5  A    between atoms: C_22  and  C_23
REMARK    6  A    between atoms: C_25  and  C_26
REMARK    7  A    between atoms: C_29  and  C_30
REMARK                            x       y       z     vdW  Elec       q    Type
REMARK                         _______ _______ _______ _____ _____    ______ ____
ROOT
ATOM      1  C   UNL     1      -7.199  13.626  21.438  0.00  0.00    +0.000 C 
ATOM      2  C   UNL     1      -5.730  13.339  21.306  0.00  0.00    +0.000 C 
ATOM      3  O   UNL     1      -5.317  12.183  21.316  0.00  0.00    +0.000 OA
ATOM      4  N   UNL     1      -4.963  14.480  21.135  0.00  0.00    +0.000 N 
ATOM      5  C   UNL     1      -3.604  14.482  21.158  0.00  0.00    +0.000 C 
ATOM      6  N   UNL     1      -2.857  13.441  21.244  0.00  0.00    +0.000 NA
ATOM      7  N   UNL     1      -1.530  13.774  21.389  0.00  0.00    +0.000 N 
ATOM      8  C   UNL     1      -0.806  12.969  22.280  0.00  0.00    +0.000 C 
ATOM      9  C   UNL     1      -1.580  11.805  22.864  0.00  0.00    +0.000 C 
ATOM     10  O   UNL     1       0.338  13.191  22.655  0.00  0.00    +0.000 OA
ATOM     11  C   UNL     1      -1.156  15.131  20.911  0.00  0.00    +0.000 C 
ATOM     12  C   UNL     1      -0.060  15.874  21.666  0.00  0.00    +0.000 C 
ATOM     13  C   UNL     1       1.380  15.498  21.206  0.00  0.00    +0.000 C 
ATOM     14  N   UNL     1       1.527  15.593  19.727  0.00  0.00    +0.000 N 
ATOM     15  C   UNL     1       2.726  16.024  19.148  0.00  0.00    +0.000 C 
ATOM     16  C   UNL     1       2.833  16.162  17.642  0.00  0.00    +0.000 C 
ATOM     17  O   UNL     1       3.717  16.373  19.789  0.00  0.00    +0.000 OA
ATOM     18  C   UNL     1       0.514  14.806  18.973  0.00  0.00    +0.000 C 
ATOM     19  C   UNL     1      -0.897  15.246  19.399  0.00  0.00    +0.000 C 
ATOM     20  S   UNL     1      -2.817  16.027  21.148  0.00  0.00    +0.000 S 
ATOM     21  H   UNL     1      -5.413  15.381  21.152  0.00  0.00    +0.000 HD
ENDROOT
BRANCH  13  22
ATOM     22  C   UNL     1       2.352  16.260  22.109  0.00  0.00    +0.000 A 
ATOM     23  C   UNL     1       2.169  17.643  22.279  0.00  0.00    +0.000 A 
ATOM     24  C   UNL     1       3.071  18.408  23.018  0.00  0.00    +0.000 A 
ATOM     25  C   UNL     1       4.192  17.809  23.604  0.00  0.00    +0.000 A 
ATOM     26  C   UNL     1       5.187  18.630  24.365  0.00  0.00    +0.000 C 
ATOM     27  C   UNL     1       4.367  16.428  23.465  0.00  0.00    +0.000 A 
ATOM     28  C   UNL     1       3.457  15.659  22.732  0.00  0.00    +0.000 A 
ENDBRANCH  13  22
BRANCH  18  29
ATOM     29  C   UNL     1       0.741  13.285  18.899  0.00  0.00    +0.000 A 
ATOM     30  C   UNL     1      -0.344  12.411  18.683  0.00  0.00    +0.000 A 
ATOM     31  C   UNL     1      -0.167  11.055  18.407  0.00  0.00    +0.000 A 
ATOM     32  C   UNL     1       1.112  10.520  18.291  0.00  0.00    +0.000 A 
ATOM     33  C   UNL     1       1.276   9.087  17.882  0.00  0.00    +0.000 C 
ATOM     34  C   UNL     1       2.204  11.346  18.571  0.00  0.00    +0.000 A 
ATOM     35  C   UNL     1       2.023  12.711  18.867  0.00  0.00    +0.000 A 
ENDBRANCH  18  29
TORSDOF 2
ENDMDL
MODEL 8
REMARK VINA RESULT:      -5.3      2.530      7.686
REMARK  Name = 
REMARK  7 active torsions:
REMARK  status: ('A' for Active; 'I' for Inactive)
REMARK    1  A    between atoms: C_1  and  C_2
REMARK    2  A    between atoms: C_8  and  C_9
REMARK    3  A    between atoms: C_13  and  C_14
REMARK    4  A    between atoms: C_17  and  C_18
REMARK    5  A    between atoms: C_22  and  C_23
REMARK    6  A    between atoms: C_25  and  C_26
REMARK    7  A    between atoms: C_29  and  C_30
REMARK                            x       y       z     vdW  Elec       q    Type
REMARK                         _______ _______ _______ _____ _____    ______ ____
ROOT
ATOM      1  C   UNL     1      -2.303  17.345  25.585  0.00  0.00    +0.000 C 
ATOM      2  C   UNL     1      -1.614  16.800  24.367  0.00  0.00    +0.000 C 
ATOM      3  O   UNL     1      -0.782  17.473  23.767  0.00  0.00    +0.000 OA
ATOM      4  N   UNL     1      -1.989  15.501  24.062  0.00  0.00    +0.000 N 
ATOM      5  C   UNL     1      -1.624  14.862  22.920  0.00  0.00    +0.000 C 
ATOM      6  N   UNL     1      -0.824  15.325  22.028  0.00  0.00    +0.000 NA
ATOM      7  N   UNL     1      -0.764  14.510  20.921  0.00  0.00    +0.000 N 
ATOM      8  C   UNL     1      -0.704  15.179  19.690  0.00  0.00    +0.000 C 
ATOM      9  C   UNL     1      -0.618  16.688  19.784  0.00  0.00    +0.000 C 
ATOM     10  O   UNL     1      -0.793  14.639  18.594  0.00  0.00    +0.000 OA
ATOM     11  C   UNL     1      -1.161  13.096  21.148  0.00  0.00    +0.000 C 
ATOM     12  C   UNL     1      -1.867  12.364  20.012  0.00  0.00    +0.000 C 
ATOM     13  C   UNL     1      -0.892  11.747  18.965  0.00  0.00    +0.000 C 
ATOM     14  N   UNL     1       0.166  10.926  19.616  0.00  0.00    +0.000 N 
ATOM     15  C   UNL     1       0.654   9.764  19.006  0.00  0.00    +0.000 C 
ATOM     16  C   UNL     1       1.693   8.916  19.714  0.00  0.00    +0.000 C 
ATOM     17  O   UNL     1       0.248   9.326  17.929  0.00  0.00    +0.000 OA
ATOM     18  C   UNL     1       0.921  11.650  20.674  0.00  0.00    +0.000 C 
ATOM     19  C   UNL     1      -0.061  12.190  21.726  0.00  0.00    +0.000 C 
ATOM     20  S   UNL     1      -2.363  13.326  22.604  0.00  0.00    +0.000 S 
ATOM     21  H   UNL     1      -2.692  15.048  24.624  0.00  0.00    +0.000 HD
ENDROOT
BRANCH  13  22
ATOM     22  C   UNL     1      -1.752  11.130  17.861  0.00  0.00    +0.000 A 
ATOM     23  C   UNL     1      -1.753  11.733  16.591  0.00  0.00    +0.000 A 
ATOM     24  C   UNL     1      -2.582  11.271  15.570  0.00  0.00    +0.000 A 
ATOM     25  C   UNL     1      -3.444  10.191  15.793  0.00  0.00    +0.000 A 
ATOM     26  C   UNL     1      -4.367   9.714  14.713  0.00  0.00    +0.000 C 
ATOM     27  C   UNL     1      -3.430   9.565  17.044  0.00  0.00    +0.000 A 
ATOM     28  C   UNL     1      -2.590  10.023  18.066  0.00  0.00    +0.000 A 
ENDBRANCH  13  22
BRANCH  18  29
ATOM     29  C   UNL     1       1.991  12.647  20.192  0.00  0.00    +0.000 A 
ATOM     30  C   UNL     1       2.259  12.799  18.816  0.00  0.00    +0.000 A 
ATOM     31  C   UNL     1       3.064  13.824  18.321  0.00  0.00    +0.000 A 
ATOM     32  C   UNL     1       3.605  14.774  19.180  0.00  0.00    +0.000 A 
ATOM     33  C   UNL     1       4.372  15.930  18.612  0.00  0.00    +0.000 C 
ATOM     34  C   UNL     1       3.416  14.608  20.555  0.00  0.00    +0.000 A 
ATOM     35  C   UNL     1       2.618  13.562  21.055  0.00  0.00    +0.000 A 
ENDBRANCH  18  29
TORSDOF 2
ENDMDL
MODEL 9
REMARK VINA RESULT:      -5.3      4.340      7.144
REMARK  Name = 
REMARK  7 active torsions:
REMARK  status: ('A' for Active; 'I' for Inactive)
REMARK    1  A    between atoms: C_1  and  C_2
REMARK    2  A    between atoms: C_8  and  C_9
REMARK    3  A    between atoms: C_13  and  C_14
REMARK    4  A    between atoms: C_17  and  C_18
REMARK    5  A    between atoms: C_22  and  C_23
REMARK    6  A    between atoms: C_25  and  C_26
REMARK    7  A    between atoms: C_29  and  C_30
REMARK                            x       y       z     vdW  Elec       q    Type
REMARK                         _______ _______ _______ _____ _____    ______ ____
ROOT
ATOM      1  C   UNL     1      -6.061  16.948  23.013  0.00  0.00    +0.000 C 
ATOM      2  C   UNL     1      -4.800  16.275  22.551  0.00  0.00    +0.000 C 
ATOM      3  O   UNL     1      -4.728  15.051  22.498  0.00  0.00    +0.000 OA
ATOM      4  N   UNL     1      -3.810  17.168  22.174  0.00  0.00    +0.000 N 
ATOM      5  C   UNL     1      -2.536  16.798  21.879  0.00  0.00    +0.000 C 
ATOM      6  N   UNL     1      -2.104  15.590  21.819  0.00  0.00    +0.000 NA
ATOM      7  N   UNL     1      -0.741  15.542  21.641  0.00  0.00    +0.000 N 
ATOM      8  C   UNL     1      -0.080  14.537  22.361  0.00  0.00    +0.000 C 
ATOM      9  C   UNL     1      -0.985  13.608  23.143  0.00  0.00    +0.000 C 
ATOM     10  O   UNL     1       1.136  14.424  22.452  0.00  0.00    +0.000 OA
ATOM     11  C   UNL     1      -0.131  16.762  21.049  0.00  0.00    +0.000 C 
ATOM     12  C   UNL     1       1.271  17.149  21.507  0.00  0.00    +0.000 C 
ATOM     13  C   UNL     1       2.405  16.411  20.735  0.00  0.00    +0.000 C 
ATOM     14  N   UNL     1       2.225  16.516  19.260  0.00  0.00    +0.000 N 
ATOM     15  C   UNL     1       3.329  16.625  18.406  0.00  0.00    +0.000 C 
ATOM     16  C   UNL     1       3.117  16.784  16.912  0.00  0.00    +0.000 C 
ATOM     17  O   UNL     1       4.498  16.666  18.788  0.00  0.00    +0.000 OA
ATOM     18  C   UNL     1       0.889  16.065  18.786  0.00  0.00    +0.000 C 
ATOM     19  C   UNL     1      -0.208  16.857  19.516  0.00  0.00    +0.000 C 
ATOM     20  S   UNL     1      -1.380  18.069  21.642  0.00  0.00    +0.000 S 
ATOM     21  H   UNL     1      -3.979  18.157  22.269  0.00  0.00    +0.000 HD
ENDROOT
BRANCH  13  22
ATOM     22  C   UNL     1       3.730  16.844  21.364  0.00  0.00    +0.000 A 
ATOM     23  C   UNL     1       4.625  15.851  21.801  0.00  0.00    +0.000 A 
ATOM     24  C   UNL     1       5.807  16.181  22.461  0.00  0.00    +0.000 A 
ATOM     25  C   UNL     1       6.127  17.521  22.713  0.00  0.00    +0.000 A 
ATOM     26  C   UNL     1       7.376  17.881  23.458  0.00  0.00    +0.000 C 
ATOM     27  C   UNL     1       5.258  18.518  22.257  0.00  0.00    +0.000 A 
ATOM     28  C   UNL     1       4.076  18.187  21.585  0.00  0.00    +0.000 A 
ENDBRANCH  13  22
BRANCH  18  29
ATOM     29  C   UNL     1       0.667  14.544  18.705  0.00  0.00    +0.000 A 
ATOM     30  C   UNL     1       1.743  13.653  18.898  0.00  0.00    +0.000 A 
ATOM     31  C   UNL     1       1.558  12.278  19.037  0.00  0.00    +0.000 A 
ATOM     32  C   UNL     1       0.278  11.734  19.033  0.00  0.00    +0.000 A 
ATOM     33  C   UNL     1       0.099  10.269  19.299  0.00  0.00    +0.000 C 
ATOM     34  C   UNL     1      -0.802  12.582  18.773  0.00  0.00    +0.000 A 
ATOM     35  C   UNL     1      -0.612  13.968  18.614  0.00  0.00    +0.000 A 
ENDBRANCH  18  29
TORSDOF 2
ENDMDL
