MODEL 1
REMARK VINA RESULT:      -7.7      0.000      0.000
REMARK  Name = 
REMARK  6 active torsions:
REMARK  status: ('A' for Active; 'I' for Inactive)
REMARK    1  A    between atoms: C_6  and  O_7
REMARK    2  A    between atoms: O_7  and  C_8
REMARK    3  A    between atoms: C_8  and  C_9
REMARK    4  A    between atoms: C_15  and  O_16
REMARK    5  A    between atoms: O_16  and  C_17
REMARK    6  A    between atoms: C_17  and  C_18
REMARK                            x       y       z     vdW  Elec       q    Type
REMARK                         _______ _______ _______ _____ _____    ______ ____
ROOT
ATOM      1  O   UNL     1       7.929   5.279  20.396  0.00  0.00    +0.000 OA
ATOM      2  C   UNL     1       7.419   5.731  19.386  0.00  0.00    +0.000 C 
ATOM      3  C   UNL     1       8.153   6.797  18.652  0.00  0.00    +0.000 C 
ATOM      4  C   UNL     1       7.618   7.398  17.582  0.00  0.00    +0.000 C 
ATOM      5  C   UNL     1       6.247   7.118  17.067  0.00  0.00    +0.000 C 
ATOM      6  C   UNL     1       5.341   6.430  18.080  0.00  0.00    +0.000 C 
ATOM      7  C   UNL     1       6.050   5.252  18.794  0.00  0.00    +0.000 C 
ENDROOT
BRANCH   6   8
ATOM      8  O   UNL     1       4.042   6.164  17.524  0.00  0.00    +0.000 OA
BRANCH   8   9
ATOM      9  C   UNL     1       3.182   7.276  17.282  0.00  0.00    +0.000 C 
BRANCH   9  10
ATOM     10  C   UNL     1       2.435   7.619  18.556  0.00  0.00    +0.000 A 
ATOM     11  C   UNL     1       2.342   6.704  19.620  0.00  0.00    +0.000 A 
ATOM     12  C   UNL     1       1.639   7.035  20.790  0.00  0.00    +0.000 A 
ATOM     13  C   UNL     1       1.028   8.277  20.912  0.00  0.00    +0.000 A 
ATOM     14  C   UNL     1       1.120   9.196  19.866  0.00  0.00    +0.000 A 
ATOM     15  C   UNL     1       1.821   8.868  18.699  0.00  0.00    +0.000 A 
ENDBRANCH   9  10
ENDBRANCH   8   9
ENDBRANCH   6   8
BRANCH   7  16
ATOM     16  O   UNL     1       5.190   4.665  19.782  0.00  0.00    +0.000 OA
BRANCH  16  17
ATOM     17  C   UNL     1       4.791   3.330  19.457  0.00  0.00    +0.000 C 
BRANCH  17  18
ATOM     18  C   UNL     1       3.309   3.190  19.590  0.00  0.00    +0.000 A 
ATOM     19  C   UNL     1       2.505   3.141  18.443  0.00  0.00    +0.000 A 
ATOM     20  C   UNL     1       1.119   3.079  18.559  0.00  0.00    +0.000 A 
ATOM     21  C   UNL     1       0.522   3.059  19.819  0.00  0.00    +0.000 A 
ATOM     22  C   UNL     1       1.317   3.078  20.965  0.00  0.00    +0.000 A 
ATOM     23  C   UNL     1       2.703   3.141  20.853  0.00  0.00    +0.000 A 
ENDBRANCH  17  18
ENDBRANCH  16  17
ENDBRANCH   7  16
TORSDOF 6
ENDMDL
MODEL 2
REMARK VINA RESULT:      -7.6      0.164      1.427
REMARK  Name = 
REMARK  6 active torsions:
REMARK  status: ('A' for Active; 'I' for Inactive)
REMARK    1  A    between atoms: C_6  and  O_7
REMARK    2  A    between atoms: O_7  and  C_8
REMARK    3  A    between atoms: C_8  and  C_9
REMARK    4  A    between atoms: C_15  and  O_16
REMARK    5  A    between atoms: O_16  and  C_17
REMARK    6  A    between atoms: C_17  and  C_18
REMARK                            x       y       z     vdW  Elec       q    Type
REMARK                         _______ _______ _______ _____ _____    ______ ____
ROOT
ATOM      1  O   UNL     1       7.982   5.242  20.314  0.00  0.00    +0.000 OA
ATOM      2  C   UNL     1       7.437   5.711  19.330  0.00  0.00    +0.000 C 
ATOM      3  C   UNL     1       8.147   6.788  18.589  0.00  0.00    +0.000 C 
ATOM      4  C   UNL     1       7.577   7.408  17.549  0.00  0.00    +0.000 C 
ATOM      5  C   UNL     1       6.188   7.139  17.077  0.00  0.00    +0.000 C 
ATOM      6  C   UNL     1       5.316   6.437  18.110  0.00  0.00    +0.000 C 
ATOM      7  C   UNL     1       6.048   5.245  18.780  0.00  0.00    +0.000 C 
ENDROOT
BRANCH   6   8
ATOM      8  O   UNL     1       3.998   6.182  17.596  0.00  0.00    +0.000 OA
BRANCH   8   9
ATOM      9  C   UNL     1       3.188   7.307  17.259  0.00  0.00    +0.000 C 
BRANCH   9  10
ATOM     10  C   UNL     1       2.408   7.747  18.482  0.00  0.00    +0.000 A 
ATOM     11  C   UNL     1       1.752   8.991  18.525  0.00  0.00    +0.000 A 
ATOM     12  C   UNL     1       1.040   9.386  19.670  0.00  0.00    +0.000 A 
ATOM     13  C   UNL     1       0.972   8.548  20.776  0.00  0.00    +0.000 A 
ATOM     14  C   UNL     1       1.613   7.308  20.743  0.00  0.00    +0.000 A 
ATOM     15  C   UNL     1       2.321   6.913  19.602  0.00  0.00    +0.000 A 
ENDBRANCH   9  10
ENDBRANCH   8   9
ENDBRANCH   6   8
BRANCH   7  16
ATOM     16  O   UNL     1       5.221   4.644  19.787  0.00  0.00    +0.000 OA
BRANCH  16  17
ATOM     17  C   UNL     1       4.745   3.345  19.420  0.00  0.00    +0.000 C 
BRANCH  17  18
ATOM     18  C   UNL     1       3.256   3.291  19.544  0.00  0.00    +0.000 A 
ATOM     19  C   UNL     1       2.653   3.440  20.800  0.00  0.00    +0.000 A 
ATOM     20  C   UNL     1       1.271   3.324  20.934  0.00  0.00    +0.000 A 
ATOM     21  C   UNL     1       0.479   3.064  19.816  0.00  0.00    +0.000 A 
ATOM     22  C   UNL     1       1.070   2.944  18.558  0.00  0.00    +0.000 A 
ATOM     23  C   UNL     1       2.451   3.059  18.420  0.00  0.00    +0.000 A 
ENDBRANCH  17  18
ENDBRANCH  16  17
ENDBRANCH   7  16
TORSDOF 6
ENDMDL
MODEL 3
REMARK VINA RESULT:      -7.6      1.662      4.348
REMARK  Name = 
REMARK  6 active torsions:
REMARK  status: ('A' for Active; 'I' for Inactive)
REMARK    1  A    between atoms: C_6  and  O_7
REMARK    2  A    between atoms: O_7  and  C_8
REMARK    3  A    between atoms: C_8  and  C_9
REMARK    4  A    between atoms: C_15  and  O_16
REMARK    5  A    between atoms: O_16  and  C_17
REMARK    6  A    between atoms: C_17  and  C_18
REMARK                            x       y       z     vdW  Elec       q    Type
REMARK                         _______ _______ _______ _____ _____    ______ ____
ROOT
ATOM      1  O   UNL     1       6.937   7.122  17.581  0.00  0.00    +0.000 OA
ATOM      2  C   UNL     1       6.563   6.069  17.095  0.00  0.00    +0.000 C 
ATOM      3  C   UNL     1       7.273   5.570  15.886  0.00  0.00    +0.000 C 
ATOM      4  C   UNL     1       6.866   4.465  15.248  0.00  0.00    +0.000 C 
ATOM      5  C   UNL     1       5.659   3.679  15.631  0.00  0.00    +0.000 C 
ATOM      6  C   UNL     1       4.682   4.446  16.512  0.00  0.00    +0.000 C 
ATOM      7  C   UNL     1       5.398   5.194  17.666  0.00  0.00    +0.000 C 
ENDROOT
BRANCH   6   8
ATOM      8  O   UNL     1       3.551   3.634  16.869  0.00  0.00    +0.000 OA
BRANCH   8   9
ATOM      9  C   UNL     1       3.764   2.568  17.793  0.00  0.00    +0.000 C 
BRANCH   9  10
ATOM     10  C   UNL     1       2.924   2.803  19.033  0.00  0.00    +0.000 A 
ATOM     11  C   UNL     1       3.435   2.561  20.321  0.00  0.00    +0.000 A 
ATOM     12  C   UNL     1       2.641   2.777  21.459  0.00  0.00    +0.000 A 
ATOM     13  C   UNL     1       1.338   3.239  21.326  0.00  0.00    +0.000 A 
ATOM     14  C   UNL     1       0.822   3.491  20.054  0.00  0.00    +0.000 A 
ATOM     15  C   UNL     1       1.613   3.277  18.918  0.00  0.00    +0.000 A 
ENDBRANCH   9  10
ENDBRANCH   8   9
ENDBRANCH   6   8
BRANCH   7  16
ATOM     16  O   UNL     1       4.457   5.953  18.440  0.00  0.00    +0.000 OA
BRANCH  16  17
ATOM     17  C   UNL     1       3.375   6.470  17.659  0.00  0.00    +0.000 C 
BRANCH  17  18
ATOM     18  C   UNL     1       2.531   7.380  18.492  0.00  0.00    +0.000 A 
ATOM     19  C   UNL     1       2.040   8.574  17.945  0.00  0.00    +0.000 A 
ATOM     20  C   UNL     1       1.309   9.458  18.734  0.00  0.00    +0.000 A 
ATOM     21  C   UNL     1       1.055   9.159  20.071  0.00  0.00    +0.000 A 
ATOM     22  C   UNL     1       1.516   7.959  20.614  0.00  0.00    +0.000 A 
ATOM     23  C   UNL     1       2.247   7.072  19.829  0.00  0.00    +0.000 A 
ENDBRANCH  17  18
ENDBRANCH  16  17
ENDBRANCH   7  16
TORSDOF 6
ENDMDL
MODEL 4
REMARK VINA RESULT:      -7.5      0.530      1.052
REMARK  Name = 
REMARK  6 active torsions:
REMARK  status: ('A' for Active; 'I' for Inactive)
REMARK    1  A    between atoms: C_6  and  O_7
REMARK    2  A    between atoms: O_7  and  C_8
REMARK    3  A    between atoms: C_8  and  C_9
REMARK    4  A    between atoms: C_15  and  O_16
REMARK    5  A    between atoms: O_16  and  C_17
REMARK    6  A    between atoms: C_17  and  C_18
REMARK                            x       y       z     vdW  Elec       q    Type
REMARK                         _______ _______ _______ _____ _____    ______ ____
ROOT
ATOM      1  O   UNL     1       7.990   5.277  20.365  0.00  0.00    +0.000 OA
ATOM      2  C   UNL     1       7.441   5.739  19.379  0.00  0.00    +0.000 C 
ATOM      3  C   UNL     1       8.132   6.835  18.648  0.00  0.00    +0.000 C 
ATOM      4  C   UNL     1       7.554   7.447  17.606  0.00  0.00    +0.000 C 
ATOM      5  C   UNL     1       6.175   7.149  17.125  0.00  0.00    +0.000 C 
ATOM      6  C   UNL     1       5.312   6.422  18.148  0.00  0.00    +0.000 C 
ATOM      7  C   UNL     1       6.066   5.244  18.817  0.00  0.00    +0.000 C 
ENDROOT
BRANCH   6   8
ATOM      8  O   UNL     1       4.004   6.140  17.624  0.00  0.00    +0.000 OA
BRANCH   8   9
ATOM      9  C   UNL     1       3.264   7.225  17.066  0.00  0.00    +0.000 C 
BRANCH   9  10
ATOM     10  C   UNL     1       2.472   7.909  18.164  0.00  0.00    +0.000 A 
ATOM     11  C   UNL     1       2.328   7.326  19.435  0.00  0.00    +0.000 A 
ATOM     12  C   UNL     1       1.584   7.970  20.438  0.00  0.00    +0.000 A 
ATOM     13  C   UNL     1       0.984   9.197  20.185  0.00  0.00    +0.000 A 
ATOM     14  C   UNL     1       1.126   9.789  18.930  0.00  0.00    +0.000 A 
ATOM     15  C   UNL     1       1.868   9.149  17.930  0.00  0.00    +0.000 A 
ENDBRANCH   9  10
ENDBRANCH   8   9
ENDBRANCH   6   8
BRANCH   7  16
ATOM     16  O   UNL     1       5.247   4.619  19.816  0.00  0.00    +0.000 OA
BRANCH  16  17
ATOM     17  C   UNL     1       4.790   3.319  19.434  0.00  0.00    +0.000 C 
BRANCH  17  18
ATOM     18  C   UNL     1       3.297   3.256  19.511  0.00  0.00    +0.000 A 
ATOM     19  C   UNL     1       2.614   4.025  20.463  0.00  0.00    +0.000 A 
ATOM     20  C   UNL     1       1.230   3.921  20.585  0.00  0.00    +0.000 A 
ATOM     21  C   UNL     1       0.516   3.057  19.756  0.00  0.00    +0.000 A 
ATOM     22  C   UNL     1       1.188   2.311  18.787  0.00  0.00    +0.000 A 
ATOM     23  C   UNL     1       2.570   2.411  18.662  0.00  0.00    +0.000 A 
ENDBRANCH  17  18
ENDBRANCH  16  17
ENDBRANCH   7  16
TORSDOF 6
ENDMDL
MODEL 5
REMARK VINA RESULT:      -7.4      1.725      4.745
REMARK  Name = 
REMARK  6 active torsions:
REMARK  status: ('A' for Active; 'I' for Inactive)
REMARK    1  A    between atoms: C_6  and  O_7
REMARK    2  A    between atoms: O_7  and  C_8
REMARK    3  A    between atoms: C_8  and  C_9
REMARK    4  A    between atoms: C_15  and  O_16
REMARK    5  A    between atoms: O_16  and  C_17
REMARK    6  A    between atoms: C_17  and  C_18
REMARK                            x       y       z     vdW  Elec       q    Type
REMARK                         _______ _______ _______ _____ _____    ______ ____
ROOT
ATOM      1  O   UNL     1       6.450   7.554  16.910  0.00  0.00    +0.000 OA
ATOM      2  C   UNL     1       6.210   6.363  16.805  0.00  0.00    +0.000 C 
ATOM      3  C   UNL     1       7.211   5.510  16.109  0.00  0.00    +0.000 C 
ATOM      4  C   UNL     1       6.978   4.211  15.884  0.00  0.00    +0.000 C 
ATOM      5  C   UNL     1       5.706   3.518  16.235  0.00  0.00    +0.000 C 
ATOM      6  C   UNL     1       4.537   4.466  16.468  0.00  0.00    +0.000 C 
ATOM      7  C   UNL     1       4.927   5.666  17.369  0.00  0.00    +0.000 C 
ENDROOT
BRANCH   6   8
ATOM      8  O   UNL     1       3.344   3.747  16.826  0.00  0.00    +0.000 OA
BRANCH   8   9
ATOM      9  C   UNL     1       3.489   2.586  17.643  0.00  0.00    +0.000 C 
BRANCH   9  10
ATOM     10  C   UNL     1       2.737   2.791  18.943  0.00  0.00    +0.000 A 
ATOM     11  C   UNL     1       1.410   3.258  18.957  0.00  0.00    +0.000 A 
ATOM     12  C   UNL     1       0.732   3.450  20.172  0.00  0.00    +0.000 A 
ATOM     13  C   UNL     1       1.364   3.175  21.378  0.00  0.00    +0.000 A 
ATOM     14  C   UNL     1       2.677   2.704  21.377  0.00  0.00    +0.000 A 
ATOM     15  C   UNL     1       3.355   2.511  20.167  0.00  0.00    +0.000 A 
ENDBRANCH   9  10
ENDBRANCH   8   9
ENDBRANCH   6   8
BRANCH   7  16
ATOM     16  O   UNL     1       3.821   6.568  17.519  0.00  0.00    +0.000 OA
BRANCH  16  17
ATOM     17  C   UNL     1       3.224   6.512  18.818  0.00  0.00    +0.000 C 
BRANCH  17  18
ATOM     18  C   UNL     1       2.323   7.689  19.020  0.00  0.00    +0.000 A 
ATOM     19  C   UNL     1       1.777   7.942  20.286  0.00  0.00    +0.000 A 
ATOM     20  C   UNL     1       0.885   8.996  20.467  0.00  0.00    +0.000 A 
ATOM     21  C   UNL     1       0.535   9.811  19.391  0.00  0.00    +0.000 A 
ATOM     22  C   UNL     1       1.099   9.582  18.134  0.00  0.00    +0.000 A 
ATOM     23  C   UNL     1       1.990   8.529  17.949  0.00  0.00    +0.000 A 
ENDBRANCH  17  18
ENDBRANCH  16  17
ENDBRANCH   7  16
TORSDOF 6
ENDMDL
MODEL 6
REMARK VINA RESULT:      -7.4      1.074      1.889
REMARK  Name = 
REMARK  6 active torsions:
REMARK  status: ('A' for Active; 'I' for Inactive)
REMARK    1  A    between atoms: C_6  and  O_7
REMARK    2  A    between atoms: O_7  and  C_8
REMARK    3  A    between atoms: C_8  and  C_9
REMARK    4  A    between atoms: C_15  and  O_16
REMARK    5  A    between atoms: O_16  and  C_17
REMARK    6  A    between atoms: C_17  and  C_18
REMARK                            x       y       z     vdW  Elec       q    Type
REMARK                         _______ _______ _______ _____ _____    ______ ____
ROOT
ATOM      1  O   UNL     1       7.935   4.317  18.448  0.00  0.00    +0.000 OA
ATOM      2  C   UNL     1       7.004   4.950  17.981  0.00  0.00    +0.000 C 
ATOM      3  C   UNL     1       7.321   6.095  17.086  0.00  0.00    +0.000 C 
ATOM      4  C   UNL     1       6.356   6.886  16.601  0.00  0.00    +0.000 C 
ATOM      5  C   UNL     1       4.912   6.747  16.947  0.00  0.00    +0.000 C 
ATOM      6  C   UNL     1       4.661   5.935  18.211  0.00  0.00    +0.000 C 
ATOM      7  C   UNL     1       5.494   4.628  18.241  0.00  0.00    +0.000 C 
ENDROOT
BRANCH   6   8
ATOM      8  O   UNL     1       3.255   5.813  18.483  0.00  0.00    +0.000 OA
BRANCH   8   9
ATOM      9  C   UNL     1       2.770   6.337  19.719  0.00  0.00    +0.000 C 
BRANCH   9  10
ATOM     10  C   UNL     1       2.060   7.652  19.462  0.00  0.00    +0.000 A 
ATOM     11  C   UNL     1       2.016   8.223  18.177  0.00  0.00    +0.000 A 
ATOM     12  C   UNL     1       1.361   9.446  17.959  0.00  0.00    +0.000 A 
ATOM     13  C   UNL     1       0.742  10.107  19.013  0.00  0.00    +0.000 A 
ATOM     14  C   UNL     1       0.773   9.547  20.291  0.00  0.00    +0.000 A 
ATOM     15  C   UNL     1       1.425   8.327  20.510  0.00  0.00    +0.000 A 
ENDBRANCH   9  10
ENDBRANCH   8   9
ENDBRANCH   6   8
BRANCH   7  16
ATOM     16  O   UNL     1       5.279   3.917  19.468  0.00  0.00    +0.000 OA
BRANCH  16  17
ATOM     17  C   UNL     1       4.666   2.638  19.276  0.00  0.00    +0.000 C 
BRANCH  17  18
ATOM     18  C   UNL     1       3.197   2.728  19.539  0.00  0.00    +0.000 A 
ATOM     19  C   UNL     1       2.732   2.956  20.841  0.00  0.00    +0.000 A 
ATOM     20  C   UNL     1       1.364   2.974  21.105  0.00  0.00    +0.000 A 
ATOM     21  C   UNL     1       0.449   2.772  20.073  0.00  0.00    +0.000 A 
ATOM     22  C   UNL     1       0.905   2.574  18.768  0.00  0.00    +0.000 A 
ATOM     23  C   UNL     1       2.271   2.555  18.501  0.00  0.00    +0.000 A 
ENDBRANCH  17  18
ENDBRANCH  16  17
ENDBRANCH   7  16
TORSDOF 6
ENDMDL
MODEL 7
REMARK VINA RESULT:      -7.4      1.681      4.656
REMARK  Name = 
REMARK  6 active torsions:
REMARK  status: ('A' for Active; 'I' for Inactive)
REMARK    1  A    between atoms: C_6  and  O_7
REMARK    2  A    between atoms: O_7  and  C_8
REMARK    3  A    between atoms: C_8  and  C_9
REMARK    4  A    between atoms: C_15  and  O_16
REMARK    5  A    between atoms: O_16  and  C_17
REMARK    6  A    between atoms: C_17  and  C_18
REMARK                            x       y       z     vdW  Elec       q    Type
REMARK                         _______ _______ _______ _____ _____    ______ ____
ROOT
ATOM      1  O   UNL     1       6.439   7.707  17.109  0.00  0.00    +0.000 OA
ATOM      2  C   UNL     1       6.212   6.517  16.977  0.00  0.00    +0.000 C 
ATOM      3  C   UNL     1       7.243   5.682  16.304  0.00  0.00    +0.000 C 
ATOM      4  C   UNL     1       7.029   4.385  16.050  0.00  0.00    +0.000 C 
ATOM      5  C   UNL     1       5.751   3.677  16.347  0.00  0.00    +0.000 C 
ATOM      6  C   UNL     1       4.566   4.613  16.553  0.00  0.00    +0.000 C 
ATOM      7  C   UNL     1       4.915   5.801  17.484  0.00  0.00    +0.000 C 
ENDROOT
BRANCH   6   8
ATOM      8  O   UNL     1       3.368   3.880  16.857  0.00  0.00    +0.000 OA
BRANCH   8   9
ATOM      9  C   UNL     1       3.497   2.686  17.628  0.00  0.00    +0.000 C 
BRANCH   9  10
ATOM     10  C   UNL     1       2.749   2.850  18.936  0.00  0.00    +0.000 A 
ATOM     11  C   UNL     1       3.374   2.612  20.173  0.00  0.00    +0.000 A 
ATOM     12  C   UNL     1       2.664   2.760  21.375  0.00  0.00    +0.000 A 
ATOM     13  C   UNL     1       1.330   3.151  21.357  0.00  0.00    +0.000 A 
ATOM     14  C   UNL     1       0.701   3.398  20.136  0.00  0.00    +0.000 A 
ATOM     15  C   UNL     1       1.408   3.251  18.937  0.00  0.00    +0.000 A 
ENDBRANCH   9  10
ENDBRANCH   8   9
ENDBRANCH   6   8
BRANCH   7  16
ATOM     16  O   UNL     1       3.798   6.693  17.610  0.00  0.00    +0.000 OA
BRANCH  16  17
ATOM     17  C   UNL     1       3.103   6.552  18.853  0.00  0.00    +0.000 C 
BRANCH  17  18
ATOM     18  C   UNL     1       2.223   7.738  19.087  0.00  0.00    +0.000 A 
ATOM     19  C   UNL     1       1.703   7.981  20.365  0.00  0.00    +0.000 A 
ATOM     20  C   UNL     1       0.829   9.045  20.576  0.00  0.00    +0.000 A 
ATOM     21  C   UNL     1       0.471   9.879  19.517  0.00  0.00    +0.000 A 
ATOM     22  C   UNL     1       1.009   9.660  18.248  0.00  0.00    +0.000 A 
ATOM     23  C   UNL     1       1.883   8.598  18.033  0.00  0.00    +0.000 A 
ENDBRANCH  17  18
ENDBRANCH  16  17
ENDBRANCH   7  16
TORSDOF 6
ENDMDL
MODEL 8
REMARK VINA RESULT:      -7.4      1.717      4.619
REMARK  Name = 
REMARK  6 active torsions:
REMARK  status: ('A' for Active; 'I' for Inactive)
REMARK    1  A    between atoms: C_6  and  O_7
REMARK    2  A    between atoms: O_7  and  C_8
REMARK    3  A    between atoms: C_8  and  C_9
REMARK    4  A    between atoms: C_15  and  O_16
REMARK    5  A    between atoms: O_16  and  C_17
REMARK    6  A    between atoms: C_17  and  C_18
REMARK                            x       y       z     vdW  Elec       q    Type
REMARK                         _______ _______ _______ _____ _____    ______ ____
ROOT
ATOM      1  O   UNL     1       6.168   7.691  17.076  0.00  0.00    +0.000 OA
ATOM      2  C   UNL     1       6.040   6.489  16.923  0.00  0.00    +0.000 C 
ATOM      3  C   UNL     1       7.121   5.759  16.208  0.00  0.00    +0.000 C 
ATOM      4  C   UNL     1       7.013   4.454  15.931  0.00  0.00    +0.000 C 
ATOM      5  C   UNL     1       5.807   3.633  16.242  0.00  0.00    +0.000 C 
ATOM      6  C   UNL     1       4.553   4.459  16.496  0.00  0.00    +0.000 C 
ATOM      7  C   UNL     1       4.822   5.654  17.445  0.00  0.00    +0.000 C 
ENDROOT
BRANCH   6   8
ATOM      8  O   UNL     1       3.429   3.620  16.812  0.00  0.00    +0.000 OA
BRANCH   8   9
ATOM      9  C   UNL     1       3.646   2.528  17.705  0.00  0.00    +0.000 C 
BRANCH   9  10
ATOM     10  C   UNL     1       2.820   2.734  18.960  0.00  0.00    +0.000 A 
ATOM     11  C   UNL     1       1.451   3.048  18.892  0.00  0.00    +0.000 A 
ATOM     12  C   UNL     1       0.703   3.244  20.064  0.00  0.00    +0.000 A 
ATOM     13  C   UNL     1       1.308   3.124  21.309  0.00  0.00    +0.000 A 
ATOM     14  C   UNL     1       2.664   2.805  21.390  0.00  0.00    +0.000 A 
ATOM     15  C   UNL     1       3.411   2.609  20.222  0.00  0.00    +0.000 A 
ENDBRANCH   9  10
ENDBRANCH   8   9
ENDBRANCH   6   8
BRANCH   7  16
ATOM     16  O   UNL     1       3.637   6.444  17.617  0.00  0.00    +0.000 OA
BRANCH  16  17
ATOM     17  C   UNL     1       3.093   6.362  18.938  0.00  0.00    +0.000 C 
BRANCH  17  18
ATOM     18  C   UNL     1       2.229   7.551  19.213  0.00  0.00    +0.000 A 
ATOM     19  C   UNL     1       1.955   8.468  18.189  0.00  0.00    +0.000 A 
ATOM     20  C   UNL     1       1.207   9.612  18.453  0.00  0.00    +0.000 A 
ATOM     21  C   UNL     1       0.721   9.850  19.738  0.00  0.00    +0.000 A 
ATOM     22  C   UNL     1       0.966   8.927  20.756  0.00  0.00    +0.000 A 
ATOM     23  C   UNL     1       1.713   7.782  20.495  0.00  0.00    +0.000 A 
ENDBRANCH  17  18
ENDBRANCH  16  17
ENDBRANCH   7  16
TORSDOF 6
ENDMDL
MODEL 9
REMARK VINA RESULT:      -7.3      1.580      5.788
REMARK  Name = 
REMARK  6 active torsions:
REMARK  status: ('A' for Active; 'I' for Inactive)
REMARK    1  A    between atoms: C_6  and  O_7
REMARK    2  A    between atoms: O_7  and  C_8
REMARK    3  A    between atoms: C_8  and  C_9
REMARK    4  A    between atoms: C_15  and  O_16
REMARK    5  A    between atoms: O_16  and  C_17
REMARK    6  A    between atoms: C_17  and  C_18
REMARK                            x       y       z     vdW  Elec       q    Type
REMARK                         _______ _______ _______ _____ _____    ______ ____
ROOT
ATOM      1  O   UNL     1       2.000   4.671  21.183  0.00  0.00    +0.000 OA
ATOM      2  C   UNL     1       2.139   4.092  20.119  0.00  0.00    +0.000 C 
ATOM      3  C   UNL     1       1.786   2.648  20.061  0.00  0.00    +0.000 C 
ATOM      4  C   UNL     1       1.989   1.928  18.951  0.00  0.00    +0.000 C 
ATOM      5  C   UNL     1       2.630   2.463  17.716  0.00  0.00    +0.000 C 
ATOM      6  C   UNL     1       3.426   3.742  17.943  0.00  0.00    +0.000 C 
ATOM      7  C   UNL     1       2.646   4.770  18.802  0.00  0.00    +0.000 C 
ENDROOT
BRANCH   6   8
ATOM      8  O   UNL     1       4.002   4.225  16.718  0.00  0.00    +0.000 OA
BRANCH   8   9
ATOM      9  C   UNL     1       5.376   3.932  16.470  0.00  0.00    +0.000 C 
BRANCH   9  10
ATOM     10  C   UNL     1       6.241   4.984  17.137  0.00  0.00    +0.000 A 
ATOM     11  C   UNL     1       6.386   6.270  16.589  0.00  0.00    +0.000 A 
ATOM     12  C   UNL     1       7.198   7.229  17.216  0.00  0.00    +0.000 A 
ATOM     13  C   UNL     1       7.866   6.918  18.394  0.00  0.00    +0.000 A 
ATOM     14  C   UNL     1       7.725   5.647  18.952  0.00  0.00    +0.000 A 
ATOM     15  C   UNL     1       6.915   4.690  18.328  0.00  0.00    +0.000 A 
ENDBRANCH   9  10
ENDBRANCH   8   9
ENDBRANCH   6   8
BRANCH   7  16
ATOM     16  O   UNL     1       3.445   5.937  19.047  0.00  0.00    +0.000 OA
BRANCH  16  17
ATOM     17  C   UNL     1       3.200   6.991  18.110  0.00  0.00    +0.000 C 
BRANCH  17  18
ATOM     18  C   UNL     1       2.259   7.992  18.699  0.00  0.00    +0.000 A 
ATOM     19  C   UNL     1       1.921   7.921  20.057  0.00  0.00    +0.000 A 
ATOM     20  C   UNL     1       0.994   8.808  20.598  0.00  0.00    +0.000 A 
ATOM     21  C   UNL     1       0.400   9.779  19.791  0.00  0.00    +0.000 A 
ATOM     22  C   UNL     1       0.754   9.874  18.445  0.00  0.00    +0.000 A 
ATOM     23  C   UNL     1       1.680   8.989  17.901  0.00  0.00    +0.000 A 
ENDBRANCH  17  18
ENDBRANCH  16  17
ENDBRANCH   7  16
TORSDOF 6
ENDMDL
