MODEL 1
REMARK VINA RESULT:      -8.3      0.000      0.000
REMARK  Name = 
REMARK  2 active torsions:
REMARK  status: ('A' for Active; 'I' for Inactive)
REMARK    1  A    between atoms: N_11  and  C_12
REMARK    2  A    between atoms: C_14  and  C_15
REMARK                            x       y       z     vdW  Elec       q    Type
REMARK                         _______ _______ _______ _____ _____    ______ ____
ROOT
ATOM      1  O   UNL     1       4.551   3.129  16.043  0.00  0.00    +0.000 OA
ATOM      2  C   UNL     1       5.427   3.937  15.798  0.00  0.00    +0.000 C 
ATOM      3  C   UNL     1       6.059   4.064  14.491  0.00  0.00    +0.000 A 
ATOM      4  C   UNL     1       5.785   3.416  13.303  0.00  0.00    +0.000 A 
ATOM      5  C   UNL     1       6.533   3.796  12.185  0.00  0.00    +0.000 A 
ATOM      6  C   UNL     1       7.525   4.794  12.285  0.00  0.00    +0.000 A 
ATOM      7  C   UNL     1       7.779   5.438  13.500  0.00  0.00    +0.000 A 
ATOM      8  C   UNL     1       7.019   5.054  14.587  0.00  0.00    +0.000 A 
ATOM      9  C   UNL     1       6.975   5.575  15.952  0.00  0.00    +0.000 C 
ATOM     10  O   UNL     1       7.686   6.476  16.362  0.00  0.00    +0.000 OA
ATOM     11  N   UNL     1       5.980   4.896  16.597  0.00  0.00    +0.000 N 
ENDROOT
BRANCH  11  12
ATOM     12  C   UNL     1       5.626   5.136  17.979  0.00  0.00    +0.000 C 
ATOM     13  C   UNL     1       4.139   5.144  18.256  0.00  0.00    +0.000 C 
ATOM     14  C   UNL     1       4.091   4.152  19.352  0.00  0.00    +0.000 C 
ATOM     15  N   UNL     1       5.217   3.616  19.689  0.00  0.00    +0.000 NA
ATOM     16  O   UNL     1       6.205   4.116  18.808  0.00  0.00    +0.000 OA
BRANCH  14  17
ATOM     17  C   UNL     1       2.873   3.785  20.032  0.00  0.00    +0.000 A 
ATOM     18  C   UNL     1       2.690   2.920  21.149  0.00  0.00    +0.000 A 
ATOM     19  C   UNL     1       1.340   2.888  21.404  0.00  0.00    +0.000 A 
ATOM     20  O   UNL     1       0.674   3.676  20.523  0.00  0.00    +0.000 OA
ATOM     21  C   UNL     1       1.604   4.212  19.694  0.00  0.00    +0.000 A 
ENDBRANCH  14  17
ENDBRANCH  11  12
TORSDOF 2
ENDMDL
MODEL 2
REMARK VINA RESULT:      -8.2      0.149      1.911
REMARK  Name = 
REMARK  2 active torsions:
REMARK  status: ('A' for Active; 'I' for Inactive)
REMARK    1  A    between atoms: N_11  and  C_12
REMARK    2  A    between atoms: C_14  and  C_15
REMARK                            x       y       z     vdW  Elec       q    Type
REMARK                         _______ _______ _______ _____ _____    ______ ____
ROOT
ATOM      1  O   UNL     1       7.706   6.472  16.268  0.00  0.00    +0.000 OA
ATOM      2  C   UNL     1       6.921   5.623  15.891  0.00  0.00    +0.000 C 
ATOM      3  C   UNL     1       6.899   5.096  14.532  0.00  0.00    +0.000 A 
ATOM      4  C   UNL     1       7.738   5.349  13.466  0.00  0.00    +0.000 A 
ATOM      5  C   UNL     1       7.498   4.640  12.287  0.00  0.00    +0.000 A 
ATOM      6  C   UNL     1       6.437   3.714  12.204  0.00  0.00    +0.000 A 
ATOM      7  C   UNL     1       5.605   3.472  13.302  0.00  0.00    +0.000 A 
ATOM      8  C   UNL     1       5.870   4.177  14.459  0.00  0.00    +0.000 A 
ATOM      9  C   UNL     1       5.255   4.100  15.784  0.00  0.00    +0.000 C 
ATOM     10  O   UNL     1       4.326   3.364  16.064  0.00  0.00    +0.000 OA
ATOM     11  N   UNL     1       5.959   4.951  16.589  0.00  0.00    +0.000 N 
ENDROOT
BRANCH  11  12
ATOM     12  C   UNL     1       5.652   5.150  17.989  0.00  0.00    +0.000 C 
ATOM     13  C   UNL     1       4.175   5.203  18.309  0.00  0.00    +0.000 C 
ATOM     14  C   UNL     1       4.119   4.171  19.367  0.00  0.00    +0.000 C 
ATOM     15  N   UNL     1       5.233   3.580  19.650  0.00  0.00    +0.000 NA
ATOM     16  O   UNL     1       6.215   4.077  18.760  0.00  0.00    +0.000 OA
BRANCH  14  17
ATOM     17  C   UNL     1       2.908   3.823  20.069  0.00  0.00    +0.000 A 
ATOM     18  C   UNL     1       2.705   2.855  21.094  0.00  0.00    +0.000 A 
ATOM     19  C   UNL     1       1.370   2.897  21.416  0.00  0.00    +0.000 A 
ATOM     20  O   UNL     1       0.731   3.825  20.661  0.00  0.00    +0.000 OA
ATOM     21  C   UNL     1       1.664   4.379  19.846  0.00  0.00    +0.000 A 
ENDBRANCH  14  17
ENDBRANCH  11  12
TORSDOF 2
ENDMDL
MODEL 3
REMARK VINA RESULT:      -7.9      1.874      7.014
REMARK  Name = 
REMARK  2 active torsions:
REMARK  status: ('A' for Active; 'I' for Inactive)
REMARK    1  A    between atoms: N_11  and  C_12
REMARK    2  A    between atoms: C_14  and  C_15
REMARK                            x       y       z     vdW  Elec       q    Type
REMARK                         _______ _______ _______ _____ _____    ______ ____
ROOT
ATOM      1  O   UNL     1       4.764   7.027  17.379  0.00  0.00    +0.000 OA
ATOM      2  C   UNL     1       4.548   6.097  18.133  0.00  0.00    +0.000 C 
ATOM      3  C   UNL     1       3.448   6.077  19.090  0.00  0.00    +0.000 A 
ATOM      4  C   UNL     1       2.432   6.987  19.295  0.00  0.00    +0.000 A 
ATOM      5  C   UNL     1       1.475   6.663  20.261  0.00  0.00    +0.000 A 
ATOM      6  C   UNL     1       1.563   5.458  20.989  0.00  0.00    +0.000 A 
ATOM      7  C   UNL     1       2.601   4.550  20.756  0.00  0.00    +0.000 A 
ATOM      8  C   UNL     1       3.527   4.888  19.790  0.00  0.00    +0.000 A 
ATOM      9  C   UNL     1       4.663   4.139  19.255  0.00  0.00    +0.000 C 
ATOM     10  O   UNL     1       4.997   3.033  19.644  0.00  0.00    +0.000 OA
ATOM     11  N   UNL     1       5.192   4.898  18.249  0.00  0.00    +0.000 N 
ENDROOT
BRANCH  11  12
ATOM     12  C   UNL     1       6.338   4.488  17.466  0.00  0.00    +0.000 C 
ATOM     13  C   UNL     1       5.997   3.824  16.151  0.00  0.00    +0.000 C 
ATOM     14  C   UNL     1       6.804   4.663  15.239  0.00  0.00    +0.000 C 
ATOM     15  N   UNL     1       7.468   5.628  15.786  0.00  0.00    +0.000 NA
ATOM     16  O   UNL     1       7.148   5.634  17.165  0.00  0.00    +0.000 OA
BRANCH  14  17
ATOM     17  C   UNL     1       6.874   4.443  13.816  0.00  0.00    +0.000 A 
ATOM     18  C   UNL     1       6.144   3.523  13.009  0.00  0.00    +0.000 A 
ATOM     19  C   UNL     1       6.589   3.693  11.719  0.00  0.00    +0.000 A 
ATOM     20  O   UNL     1       7.545   4.655  11.672  0.00  0.00    +0.000 OA
ATOM     21  C   UNL     1       7.716   5.102  12.942  0.00  0.00    +0.000 A 
ENDBRANCH  14  17
ENDBRANCH  11  12
TORSDOF 2
ENDMDL
MODEL 4
REMARK VINA RESULT:      -7.9      1.897      6.880
REMARK  Name = 
REMARK  2 active torsions:
REMARK  status: ('A' for Active; 'I' for Inactive)
REMARK    1  A    between atoms: N_11  and  C_12
REMARK    2  A    between atoms: C_14  and  C_15
REMARK                            x       y       z     vdW  Elec       q    Type
REMARK                         _______ _______ _______ _____ _____    ______ ____
ROOT
ATOM      1  O   UNL     1       4.874   3.051  19.576  0.00  0.00    +0.000 OA
ATOM      2  C   UNL     1       4.566   4.156  19.172  0.00  0.00    +0.000 C 
ATOM      3  C   UNL     1       3.444   4.921  19.702  0.00  0.00    +0.000 A 
ATOM      4  C   UNL     1       2.589   4.638  20.748  0.00  0.00    +0.000 A 
ATOM      5  C   UNL     1       1.631   5.604  21.065  0.00  0.00    +0.000 A 
ATOM      6  C   UNL     1       1.549   6.807  20.332  0.00  0.00    +0.000 A 
ATOM      7  C   UNL     1       2.432   7.071  19.280  0.00  0.00    +0.000 A 
ATOM      8  C   UNL     1       3.376   6.106  18.995  0.00  0.00    +0.000 A 
ATOM      9  C   UNL     1       4.478   6.105  18.032  0.00  0.00    +0.000 C 
ATOM     10  O   UNL     1       4.713   7.019  17.263  0.00  0.00    +0.000 OA
ATOM     11  N   UNL     1       5.163   4.938  18.226  0.00  0.00    +0.000 N 
ENDROOT
BRANCH  11  12
ATOM     12  C   UNL     1       6.334   4.572  17.459  0.00  0.00    +0.000 C 
ATOM     13  C   UNL     1       6.037   3.862  16.157  0.00  0.00    +0.000 C 
ATOM     14  C   UNL     1       6.804   4.722  15.231  0.00  0.00    +0.000 C 
ATOM     15  N   UNL     1       7.413   5.732  15.759  0.00  0.00    +0.000 NA
ATOM     16  O   UNL     1       7.085   5.752  17.135  0.00  0.00    +0.000 OA
BRANCH  14  17
ATOM     17  C   UNL     1       6.894   4.474  13.813  0.00  0.00    +0.000 A 
ATOM     18  C   UNL     1       6.188   3.527  13.016  0.00  0.00    +0.000 A 
ATOM     19  C   UNL     1       6.645   3.678  11.729  0.00  0.00    +0.000 A 
ATOM     20  O   UNL     1       7.586   4.654  11.673  0.00  0.00    +0.000 OA
ATOM     21  C   UNL     1       7.735   5.129  12.935  0.00  0.00    +0.000 A 
ENDBRANCH  14  17
ENDBRANCH  11  12
TORSDOF 2
ENDMDL
MODEL 5
REMARK VINA RESULT:      -7.7      1.746      7.009
REMARK  Name = 
REMARK  2 active torsions:
REMARK  status: ('A' for Active; 'I' for Inactive)
REMARK    1  A    between atoms: N_11  and  C_12
REMARK    2  A    between atoms: C_14  and  C_15
REMARK                            x       y       z     vdW  Elec       q    Type
REMARK                         _______ _______ _______ _____ _____    ______ ____
ROOT
ATOM      1  O   UNL     1       2.542   6.131  17.834  0.00  0.00    +0.000 OA
ATOM      2  C   UNL     1       3.105   5.265  18.475  0.00  0.00    +0.000 C 
ATOM      3  C   UNL     1       2.430   4.424  19.456  0.00  0.00    +0.000 A 
ATOM      4  C   UNL     1       1.095   4.358  19.803  0.00  0.00    +0.000 A 
ATOM      5  C   UNL     1       0.732   3.398  20.750  0.00  0.00    +0.000 A 
ATOM      6  C   UNL     1       1.700   2.546  21.323  0.00  0.00    +0.000 A 
ATOM      7  C   UNL     1       3.046   2.631  20.950  0.00  0.00    +0.000 A 
ATOM      8  C   UNL     1       3.377   3.580  20.004  0.00  0.00    +0.000 A 
ATOM      9  C   UNL     1       4.651   3.866  19.347  0.00  0.00    +0.000 C 
ATOM     10  O   UNL     1       5.692   3.279  19.587  0.00  0.00    +0.000 OA
ATOM     11  N   UNL     1       4.403   4.844  18.424  0.00  0.00    +0.000 N 
ENDROOT
BRANCH  11  12
ATOM     12  C   UNL     1       5.426   5.397  17.563  0.00  0.00    +0.000 C 
ATOM     13  C   UNL     1       6.037   4.408  16.596  0.00  0.00    +0.000 C 
ATOM     14  C   UNL     1       5.836   5.149  15.332  0.00  0.00    +0.000 C 
ATOM     15  N   UNL     1       5.238   6.290  15.426  0.00  0.00    +0.000 NA
ATOM     16  O   UNL     1       4.869   6.465  16.781  0.00  0.00    +0.000 OA
BRANCH  14  17
ATOM     17  C   UNL     1       6.277   4.658  14.049  0.00  0.00    +0.000 A 
ATOM     18  C   UNL     1       5.719   3.628  13.238  0.00  0.00    +0.000 A 
ATOM     19  C   UNL     1       6.517   3.531  12.123  0.00  0.00    +0.000 A 
ATOM     20  O   UNL     1       7.529   4.432  12.186  0.00  0.00    +0.000 OA
ATOM     21  C   UNL     1       7.382   5.107  13.354  0.00  0.00    +0.000 A 
ENDBRANCH  14  17
ENDBRANCH  11  12
TORSDOF 2
ENDMDL
MODEL 6
REMARK VINA RESULT:      -7.6      2.364      6.859
REMARK  Name = 
REMARK  2 active torsions:
REMARK  status: ('A' for Active; 'I' for Inactive)
REMARK    1  A    between atoms: N_11  and  C_12
REMARK    2  A    between atoms: C_14  and  C_15
REMARK                            x       y       z     vdW  Elec       q    Type
REMARK                         _______ _______ _______ _____ _____    ______ ____
ROOT
ATOM      1  O   UNL     1       3.462   3.948  19.976  0.00  0.00    +0.000 OA
ATOM      2  C   UNL     1       3.472   4.951  19.288  0.00  0.00    +0.000 C 
ATOM      3  C   UNL     1       2.672   6.135  19.580  0.00  0.00    +0.000 A 
ATOM      4  C   UNL     1       1.850   6.409  20.654  0.00  0.00    +0.000 A 
ATOM      5  C   UNL     1       1.251   7.671  20.689  0.00  0.00    +0.000 A 
ATOM      6  C   UNL     1       1.482   8.609  19.660  0.00  0.00    +0.000 A 
ATOM      7  C   UNL     1       2.325   8.306  18.586  0.00  0.00    +0.000 A 
ATOM      8  C   UNL     1       2.913   7.058  18.580  0.00  0.00    +0.000 A 
ATOM      9  C   UNL     1       3.891   6.468  17.667  0.00  0.00    +0.000 C 
ATOM     10  O   UNL     1       4.335   7.034  16.683  0.00  0.00    +0.000 OA
ATOM     11  N   UNL     1       4.207   5.239  18.174  0.00  0.00    +0.000 N 
ENDROOT
BRANCH  11  12
ATOM     12  C   UNL     1       5.155   4.344  17.546  0.00  0.00    +0.000 C 
ATOM     13  C   UNL     1       4.909   4.097  16.074  0.00  0.00    +0.000 C 
ATOM     14  C   UNL     1       6.245   4.440  15.544  0.00  0.00    +0.000 C 
ATOM     15  N   UNL     1       7.122   4.831  16.409  0.00  0.00    +0.000 NA
ATOM     16  O   UNL     1       6.479   4.885  17.669  0.00  0.00    +0.000 OA
BRANCH  14  17
ATOM     17  C   UNL     1       6.588   4.348  14.146  0.00  0.00    +0.000 A 
ATOM     18  C   UNL     1       6.033   3.514  13.134  0.00  0.00    +0.000 A 
ATOM     19  C   UNL     1       6.716   3.795  11.974  0.00  0.00    +0.000 A 
ATOM     20  O   UNL     1       7.656   4.748  12.198  0.00  0.00    +0.000 OA
ATOM     21  C   UNL     1       7.577   5.076  13.513  0.00  0.00    +0.000 A 
ENDBRANCH  14  17
ENDBRANCH  11  12
TORSDOF 2
ENDMDL
MODEL 7
REMARK VINA RESULT:      -7.6      1.750      6.939
REMARK  Name = 
REMARK  2 active torsions:
REMARK  status: ('A' for Active; 'I' for Inactive)
REMARK    1  A    between atoms: N_11  and  C_12
REMARK    2  A    between atoms: C_14  and  C_15
REMARK                            x       y       z     vdW  Elec       q    Type
REMARK                         _______ _______ _______ _____ _____    ______ ____
ROOT
ATOM      1  O   UNL     1       2.981   3.724  16.341  0.00  0.00    +0.000 OA
ATOM      2  C   UNL     1       3.273   4.011  17.487  0.00  0.00    +0.000 C 
ATOM      3  C   UNL     1       2.423   3.709  18.632  0.00  0.00    +0.000 A 
ATOM      4  C   UNL     1       1.232   3.015  18.697  0.00  0.00    +0.000 A 
ATOM      5  C   UNL     1       0.671   2.834  19.964  0.00  0.00    +0.000 A 
ATOM      6  C   UNL     1       1.305   3.349  21.115  0.00  0.00    +0.000 A 
ATOM      7  C   UNL     1       2.515   4.044  21.020  0.00  0.00    +0.000 A 
ATOM      8  C   UNL     1       3.054   4.200  19.759  0.00  0.00    +0.000 A 
ATOM      9  C   UNL     1       4.321   4.790  19.331  0.00  0.00    +0.000 C 
ATOM     10  O   UNL     1       5.130   5.297  20.088  0.00  0.00    +0.000 OA
ATOM     11  N   UNL     1       4.401   4.603  17.979  0.00  0.00    +0.000 N 
ENDROOT
BRANCH  11  12
ATOM     12  C   UNL     1       5.524   5.049  17.183  0.00  0.00    +0.000 C 
ATOM     13  C   UNL     1       6.014   4.044  16.165  0.00  0.00    +0.000 C 
ATOM     14  C   UNL     1       5.971   4.887  14.951  0.00  0.00    +0.000 C 
ATOM     15  N   UNL     1       5.545   6.097  15.110  0.00  0.00    +0.000 NA
ATOM     16  O   UNL     1       5.160   6.238  16.464  0.00  0.00    +0.000 OA
BRANCH  14  17
ATOM     17  C   UNL     1       6.377   4.420  13.649  0.00  0.00    +0.000 A 
ATOM     18  C   UNL     1       5.841   3.360  12.864  0.00  0.00    +0.000 A 
ATOM     19  C   UNL     1       6.590   3.306  11.712  0.00  0.00    +0.000 A 
ATOM     20  O   UNL     1       7.553   4.261  11.730  0.00  0.00    +0.000 OA
ATOM     21  C   UNL     1       7.422   4.929  12.904  0.00  0.00    +0.000 A 
ENDBRANCH  14  17
ENDBRANCH  11  12
TORSDOF 2
ENDMDL
MODEL 8
REMARK VINA RESULT:      -7.5      1.709      7.028
REMARK  Name = 
REMARK  2 active torsions:
REMARK  status: ('A' for Active; 'I' for Inactive)
REMARK    1  A    between atoms: N_11  and  C_12
REMARK    2  A    between atoms: C_14  and  C_15
REMARK                            x       y       z     vdW  Elec       q    Type
REMARK                         _______ _______ _______ _____ _____    ______ ____
ROOT
ATOM      1  O   UNL     1       5.637   3.059  19.562  0.00  0.00    +0.000 OA
ATOM      2  C   UNL     1       4.634   3.683  19.268  0.00  0.00    +0.000 C 
ATOM      3  C   UNL     1       3.340   3.469  19.904  0.00  0.00    +0.000 A 
ATOM      4  C   UNL     1       2.990   2.642  20.953  0.00  0.00    +0.000 A 
ATOM      5  C   UNL     1       1.664   2.696  21.388  0.00  0.00    +0.000 A 
ATOM      6  C   UNL     1       0.734   3.557  20.768  0.00  0.00    +0.000 A 
ATOM      7  C   UNL     1       1.117   4.388  19.710  0.00  0.00    +0.000 A 
ATOM      8  C   UNL     1       2.435   4.325  19.306  0.00  0.00    +0.000 A 
ATOM      9  C   UNL     1       3.165   5.105  18.307  0.00  0.00    +0.000 C 
ATOM     10  O   UNL     1       2.660   5.969  17.613  0.00  0.00    +0.000 OA
ATOM     11  N   UNL     1       4.469   4.700  18.373  0.00  0.00    +0.000 N 
ENDROOT
BRANCH  11  12
ATOM     12  C   UNL     1       5.511   5.250  17.533  0.00  0.00    +0.000 C 
ATOM     13  C   UNL     1       6.088   4.279  16.527  0.00  0.00    +0.000 C 
ATOM     14  C   UNL     1       5.915   5.075  15.294  0.00  0.00    +0.000 C 
ATOM     15  N   UNL     1       5.356   6.232  15.433  0.00  0.00    +0.000 NA
ATOM     16  O   UNL     1       4.993   6.367  16.794  0.00  0.00    +0.000 OA
BRANCH  14  17
ATOM     17  C   UNL     1       6.339   4.620  13.993  0.00  0.00    +0.000 A 
ATOM     18  C   UNL     1       5.764   3.621  13.155  0.00  0.00    +0.000 A 
ATOM     19  C   UNL     1       6.551   3.551  12.030  0.00  0.00    +0.000 A 
ATOM     20  O   UNL     1       7.573   4.439  12.112  0.00  0.00    +0.000 OA
ATOM     21  C   UNL     1       7.443   5.079  13.302  0.00  0.00    +0.000 A 
ENDBRANCH  14  17
ENDBRANCH  11  12
TORSDOF 2
ENDMDL
MODEL 9
REMARK VINA RESULT:      -7.4      1.787      7.101
REMARK  Name = 
REMARK  2 active torsions:
REMARK  status: ('A' for Active; 'I' for Inactive)
REMARK    1  A    between atoms: N_11  and  C_12
REMARK    2  A    between atoms: C_14  and  C_15
REMARK                            x       y       z     vdW  Elec       q    Type
REMARK                         _______ _______ _______ _____ _____    ______ ____
ROOT
ATOM      1  O   UNL     1       4.997   5.501  20.071  0.00  0.00    +0.000 OA
ATOM      2  C   UNL     1       4.270   4.893  19.309  0.00  0.00    +0.000 C 
ATOM      3  C   UNL     1       3.033   4.244  19.725  0.00  0.00    +0.000 A 
ATOM      4  C   UNL     1       2.404   4.232  20.954  0.00  0.00    +0.000 A 
ATOM      5  C   UNL     1       1.181   3.561  21.035  0.00  0.00    +0.000 A 
ATOM      6  C   UNL     1       0.631   2.923  19.903  0.00  0.00    +0.000 A 
ATOM      7  C   UNL     1       1.287   2.955  18.668  0.00  0.00    +0.000 A 
ATOM      8  C   UNL     1       2.488   3.633  18.611  0.00  0.00    +0.000 A 
ATOM      9  C   UNL     1       3.367   3.921  17.479  0.00  0.00    +0.000 C 
ATOM     10  O   UNL     1       3.161   3.542  16.340  0.00  0.00    +0.000 OA
ATOM     11  N   UNL     1       4.377   4.707  17.960  0.00  0.00    +0.000 N 
ENDROOT
BRANCH  11  12
ATOM     12  C   UNL     1       5.453   5.208  17.132  0.00  0.00    +0.000 C 
ATOM     13  C   UNL     1       6.022   4.198  16.161  0.00  0.00    +0.000 C 
ATOM     14  C   UNL     1       5.900   4.971  14.907  0.00  0.00    +0.000 C 
ATOM     15  N   UNL     1       5.373   6.147  15.009  0.00  0.00    +0.000 NA
ATOM     16  O   UNL     1       4.984   6.322  16.358  0.00  0.00    +0.000 OA
BRANCH  14  17
ATOM     17  C   UNL     1       6.338   4.475  13.626  0.00  0.00    +0.000 A 
ATOM     18  C   UNL     1       5.803   3.415  12.838  0.00  0.00    +0.000 A 
ATOM     19  C   UNL     1       6.588   3.328  11.713  0.00  0.00    +0.000 A 
ATOM     20  O   UNL     1       7.571   4.261  11.749  0.00  0.00    +0.000 OA
ATOM     21  C   UNL     1       7.418   4.948  12.908  0.00  0.00    +0.000 A 
ENDBRANCH  14  17
ENDBRANCH  11  12
TORSDOF 2
ENDMDL
