MODEL 1
REMARK VINA RESULT:      -8.4      0.000      0.000
REMARK  Name = 
REMARK  6 active torsions:
REMARK  status: ('A' for Active; 'I' for Inactive)
REMARK    1  A    between atoms: C_4  and  C_5
REMARK    2  A    between atoms: C_7  and  C_8
REMARK    3  A    between atoms: C_8  and  C_9
REMARK    4  A    between atoms: C_17  and  O_18
REMARK    5  A    between atoms: N_22  and  C_23
REMARK    6  A    between atoms: C_23  and  C_24
REMARK                            x       y       z     vdW  Elec       q    Type
REMARK                         _______ _______ _______ _____ _____    ______ ____
ROOT
ATOM      1  O   UNL     1       1.173   8.089  18.239  0.00  0.00    +0.000 OA
ATOM      2  C   UNL     1       1.205   8.607  19.352  0.00  0.00    +0.000 C 
ATOM      3  C   UNL     1       1.562   7.891  20.610  0.00  0.00    +0.000 C 
ATOM      4  C   UNL     1       2.035   6.639  20.710  0.00  0.00    +0.000 C 
ATOM      5  S   UNL     1       1.257   8.910  21.956  0.00  0.00    +0.000 S 
ATOM      6  C   UNL     1       0.645  10.218  20.945  0.00  0.00    +0.000 C 
ATOM      7  S   UNL     1      -0.065  11.573  21.612  0.00  0.00    +0.000 S 
ATOM      8  N   UNL     1       0.815   9.903  19.615  0.00  0.00    +0.000 N 
ENDROOT
BRANCH   4   9
ATOM      9  C   UNL     1       2.281   5.797  19.537  0.00  0.00    +0.000 A 
ATOM     10  C   UNL     1       3.346   6.111  18.680  0.00  0.00    +0.000 A 
ATOM     11  C   UNL     1       3.718   5.245  17.646  0.00  0.00    +0.000 A 
ATOM     12  C   UNL     1       3.020   4.036  17.493  0.00  0.00    +0.000 A 
ATOM     13  C   UNL     1       1.930   3.733  18.317  0.00  0.00    +0.000 A 
ATOM     14  C   UNL     1       1.562   4.618  19.326  0.00  0.00    +0.000 A 
BRANCH  14  15
ATOM     15  O   UNL     1       0.504   4.328  20.147  0.00  0.00    +0.000 OA
ATOM     16  H   UNL     1       0.365   5.079  20.746  0.00  0.00    +0.000 HD
ENDBRANCH  14  15
BRANCH  11  17
ATOM     17  C   UNL     1       4.835   5.629  16.706  0.00  0.00    +0.000 C 
BRANCH  17  18
ATOM     18  C   UNL     1       6.093   6.158  17.350  0.00  0.00    +0.000 A 
ATOM     19  C   UNL     1       6.562   7.443  17.042  0.00  0.00    +0.000 A 
ATOM     20  C   UNL     1       7.674   7.970  17.701  0.00  0.00    +0.000 A 
ATOM     21  C   UNL     1       8.330   7.221  18.675  0.00  0.00    +0.000 A 
ATOM     22  C   UNL     1       7.888   5.933  18.975  0.00  0.00    +0.000 A 
ATOM     23  C   UNL     1       6.783   5.400  18.307  0.00  0.00    +0.000 A 
ENDBRANCH  17  18
ENDBRANCH  11  17
ENDBRANCH   4   9
BRANCH   8  24
ATOM     24  C   UNL     1       0.394  10.720  18.478  0.00  0.00    +0.000 C 
BRANCH  24  25
ATOM     25  C   UNL     1      -1.084  10.663  18.144  0.00  0.00    +0.000 A 
ATOM     26  C   UNL     1      -1.985  11.590  18.700  0.00  0.00    +0.000 A 
ATOM     27  C   UNL     1      -3.309  11.657  18.250  0.00  0.00    +0.000 A 
ATOM     28  C   UNL     1      -3.750  10.794  17.249  0.00  0.00    +0.000 A 
ATOM     29  C   UNL     1      -2.882   9.841  16.724  0.00  0.00    +0.000 A 
ATOM     30  C   UNL     1      -1.561   9.767  17.178  0.00  0.00    +0.000 A 
ENDBRANCH  24  25
ENDBRANCH   8  24
TORSDOF 6
ENDMDL
MODEL 2
REMARK VINA RESULT:      -8.2      0.314      1.291
REMARK  Name = 
REMARK  6 active torsions:
REMARK  status: ('A' for Active; 'I' for Inactive)
REMARK    1  A    between atoms: C_4  and  C_5
REMARK    2  A    between atoms: C_7  and  C_8
REMARK    3  A    between atoms: C_8  and  C_9
REMARK    4  A    between atoms: C_17  and  O_18
REMARK    5  A    between atoms: N_22  and  C_23
REMARK    6  A    between atoms: C_23  and  C_24
REMARK                            x       y       z     vdW  Elec       q    Type
REMARK                         _______ _______ _______ _____ _____    ______ ____
ROOT
ATOM      1  O   UNL     1       1.325   7.905  18.227  0.00  0.00    +0.000 OA
ATOM      2  C   UNL     1       1.331   8.424  19.339  0.00  0.00    +0.000 C 
ATOM      3  C   UNL     1       1.579   7.692  20.615  0.00  0.00    +0.000 C 
ATOM      4  C   UNL     1       1.969   6.414  20.740  0.00  0.00    +0.000 C 
ATOM      5  S   UNL     1       1.268   8.733  21.943  0.00  0.00    +0.000 S 
ATOM      6  C   UNL     1       0.788  10.072  20.901  0.00  0.00    +0.000 C 
ATOM      7  S   UNL     1       0.128  11.469  21.529  0.00  0.00    +0.000 S 
ATOM      8  N   UNL     1       1.007   9.741  19.581  0.00  0.00    +0.000 N 
ENDROOT
BRANCH   4   9
ATOM      9  C   UNL     1       2.224   5.555  19.582  0.00  0.00    +0.000 A 
ATOM     10  C   UNL     1       3.328   5.824  18.759  0.00  0.00    +0.000 A 
ATOM     11  C   UNL     1       3.703   4.937  17.744  0.00  0.00    +0.000 A 
ATOM     12  C   UNL     1       2.967   3.752  17.576  0.00  0.00    +0.000 A 
ATOM     13  C   UNL     1       1.841   3.495  18.364  0.00  0.00    +0.000 A 
ATOM     14  C   UNL     1       1.471   4.400  19.355  0.00  0.00    +0.000 A 
BRANCH  14  15
ATOM     15  O   UNL     1       0.376   4.155  20.142  0.00  0.00    +0.000 OA
ATOM     16  H   UNL     1      -0.422   4.367  19.633  0.00  0.00    +0.000 HD
ENDBRANCH  14  15
BRANCH  11  17
ATOM     17  C   UNL     1       4.865   5.272  16.839  0.00  0.00    +0.000 C 
BRANCH  17  18
ATOM     18  C   UNL     1       6.024   5.990  17.486  0.00  0.00    +0.000 A 
ATOM     19  C   UNL     1       6.810   5.345  18.452  0.00  0.00    +0.000 A 
ATOM     20  C   UNL     1       7.935   5.973  18.987  0.00  0.00    +0.000 A 
ATOM     21  C   UNL     1       8.290   7.252  18.563  0.00  0.00    +0.000 A 
ATOM     22  C   UNL     1       7.505   7.914  17.621  0.00  0.00    +0.000 A 
ATOM     23  C   UNL     1       6.372   7.291  17.093  0.00  0.00    +0.000 A 
ENDBRANCH  17  18
ENDBRANCH  11  17
ENDBRANCH   4   9
BRANCH   8  24
ATOM     24  C   UNL     1       0.695  10.578  18.424  0.00  0.00    +0.000 C 
BRANCH  24  25
ATOM     25  C   UNL     1      -0.779  10.714  18.094  0.00  0.00    +0.000 A 
ATOM     26  C   UNL     1      -1.476   9.668  17.461  0.00  0.00    +0.000 A 
ATOM     27  C   UNL     1      -2.868   9.716  17.327  0.00  0.00    +0.000 A 
ATOM     28  C   UNL     1      -3.578  10.811  17.814  0.00  0.00    +0.000 A 
ATOM     29  C   UNL     1      -2.897  11.874  18.401  0.00  0.00    +0.000 A 
ATOM     30  C   UNL     1      -1.504  11.831  18.528  0.00  0.00    +0.000 A 
ENDBRANCH  24  25
ENDBRANCH   8  24
TORSDOF 6
ENDMDL
MODEL 3
REMARK VINA RESULT:      -7.7      2.244      8.431
REMARK  Name = 
REMARK  6 active torsions:
REMARK  status: ('A' for Active; 'I' for Inactive)
REMARK    1  A    between atoms: C_4  and  C_5
REMARK    2  A    between atoms: C_7  and  C_8
REMARK    3  A    between atoms: C_8  and  C_9
REMARK    4  A    between atoms: C_17  and  O_18
REMARK    5  A    between atoms: N_22  and  C_23
REMARK    6  A    between atoms: C_23  and  C_24
REMARK                            x       y       z     vdW  Elec       q    Type
REMARK                         _______ _______ _______ _____ _____    ______ ____
ROOT
ATOM      1  O   UNL     1       2.807   7.726  18.800  0.00  0.00    +0.000 OA
ATOM      2  C   UNL     1       2.594   6.597  19.231  0.00  0.00    +0.000 C 
ATOM      3  C   UNL     1       1.785   6.292  20.447  0.00  0.00    +0.000 C 
ATOM      4  C   UNL     1       1.060   7.165  21.163  0.00  0.00    +0.000 C 
ATOM      5  S   UNL     1       1.931   4.626  20.829  0.00  0.00    +0.000 S 
ATOM      6  C   UNL     1       3.036   4.319  19.490  0.00  0.00    +0.000 C 
ATOM      7  S   UNL     1       3.808   2.851  19.318  0.00  0.00    +0.000 S 
ATOM      8  N   UNL     1       3.156   5.451  18.712  0.00  0.00    +0.000 N 
ENDROOT
BRANCH   4   9
ATOM      9  C   UNL     1       0.961   8.581  20.807  0.00  0.00    +0.000 A 
ATOM     10  C   UNL     1       0.250   8.949  19.655  0.00  0.00    +0.000 A 
ATOM     11  C   UNL     1      -0.009  10.294  19.368  0.00  0.00    +0.000 A 
ATOM     12  C   UNL     1       0.434  11.275  20.269  0.00  0.00    +0.000 A 
ATOM     13  C   UNL     1       1.178  10.921  21.400  0.00  0.00    +0.000 A 
ATOM     14  C   UNL     1       1.445   9.579  21.657  0.00  0.00    +0.000 A 
BRANCH  14  15
ATOM     15  O   UNL     1       2.163   9.217  22.766  0.00  0.00    +0.000 OA
ATOM     16  H   UNL     1       2.310   8.259  22.738  0.00  0.00    +0.000 HD
ENDBRANCH  14  15
BRANCH  11  17
ATOM     17  C   UNL     1      -0.732  10.669  18.096  0.00  0.00    +0.000 C 
BRANCH  17  18
ATOM     18  C   UNL     1      -2.232  10.793  18.197  0.00  0.00    +0.000 A 
ATOM     19  C   UNL     1      -2.810  11.842  18.927  0.00  0.00    +0.000 A 
ATOM     20  C   UNL     1      -4.195  12.013  18.950  0.00  0.00    +0.000 A 
ATOM     21  C   UNL     1      -5.019  11.139  18.243  0.00  0.00    +0.000 A 
ATOM     22  C   UNL     1      -4.459  10.079  17.532  0.00  0.00    +0.000 A 
ATOM     23  C   UNL     1      -3.074   9.900  17.518  0.00  0.00    +0.000 A 
ENDBRANCH  17  18
ENDBRANCH  11  17
ENDBRANCH   4   9
BRANCH   8  24
ATOM     24  C   UNL     1       4.013   5.598  17.536  0.00  0.00    +0.000 C 
BRANCH  24  25
ATOM     25  C   UNL     1       5.464   5.932  17.824  0.00  0.00    +0.000 A 
ATOM     26  C   UNL     1       6.114   6.975  17.137  0.00  0.00    +0.000 A 
ATOM     27  C   UNL     1       7.386   7.405  17.531  0.00  0.00    +0.000 A 
ATOM     28  C   UNL     1       8.026   6.796  18.607  0.00  0.00    +0.000 A 
ATOM     29  C   UNL     1       7.415   5.733  19.266  0.00  0.00    +0.000 A 
ATOM     30  C   UNL     1       6.147   5.296  18.869  0.00  0.00    +0.000 A 
ENDBRANCH  24  25
ENDBRANCH   8  24
TORSDOF 6
ENDMDL
MODEL 4
REMARK VINA RESULT:      -7.6      3.465      5.737
REMARK  Name = 
REMARK  6 active torsions:
REMARK  status: ('A' for Active; 'I' for Inactive)
REMARK    1  A    between atoms: C_4  and  C_5
REMARK    2  A    between atoms: C_7  and  C_8
REMARK    3  A    between atoms: C_8  and  C_9
REMARK    4  A    between atoms: C_17  and  O_18
REMARK    5  A    between atoms: N_22  and  C_23
REMARK    6  A    between atoms: C_23  and  C_24
REMARK                            x       y       z     vdW  Elec       q    Type
REMARK                         _______ _______ _______ _____ _____    ______ ____
ROOT
ATOM      1  O   UNL     1       1.841  12.189  20.064  0.00  0.00    +0.000 OA
ATOM      2  C   UNL     1       0.985  12.430  20.909  0.00  0.00    +0.000 C 
ATOM      3  C   UNL     1      -0.185  11.553  21.204  0.00  0.00    +0.000 C 
ATOM      4  C   UNL     1      -0.408  10.325  20.711  0.00  0.00    +0.000 C 
ATOM      5  S   UNL     1      -1.253  12.364  22.275  0.00  0.00    +0.000 S 
ATOM      6  C   UNL     1      -0.253  13.815  22.323  0.00  0.00    +0.000 C 
ATOM      7  S   UNL     1      -0.780  15.210  23.071  0.00  0.00    +0.000 S 
ATOM      8  N   UNL     1       0.923  13.597  21.639  0.00  0.00    +0.000 N 
ENDROOT
BRANCH   4   9
ATOM      9  C   UNL     1       0.526   9.666  19.796  0.00  0.00    +0.000 A 
ATOM     10  C   UNL     1       1.234   8.538  20.236  0.00  0.00    +0.000 A 
ATOM     11  C   UNL     1       2.008   7.782  19.348  0.00  0.00    +0.000 A 
ATOM     12  C   UNL     1       2.046   8.159  17.996  0.00  0.00    +0.000 A 
ATOM     13  C   UNL     1       1.377   9.305  17.555  0.00  0.00    +0.000 A 
ATOM     14  C   UNL     1       0.630  10.057  18.458  0.00  0.00    +0.000 A 
BRANCH  14  15
ATOM     15  O   UNL     1      -0.041  11.176  18.039  0.00  0.00    +0.000 OA
ATOM     16  H   UNL     1      -0.080  11.165  17.069  0.00  0.00    +0.000 HD
ENDBRANCH  14  15
BRANCH  11  17
ATOM     17  C   UNL     1       2.801   6.602  19.855  0.00  0.00    +0.000 C 
BRANCH  17  18
ATOM     18  C   UNL     1       2.129   5.255  19.747  0.00  0.00    +0.000 A 
ATOM     19  C   UNL     1       1.915   4.667  18.492  0.00  0.00    +0.000 A 
ATOM     20  C   UNL     1       1.375   3.384  18.391  0.00  0.00    +0.000 A 
ATOM     21  C   UNL     1       1.044   2.672  19.543  0.00  0.00    +0.000 A 
ATOM     22  C   UNL     1       1.231   3.253  20.795  0.00  0.00    +0.000 A 
ATOM     23  C   UNL     1       1.760   4.542  20.897  0.00  0.00    +0.000 A 
ENDBRANCH  17  18
ENDBRANCH  11  17
ENDBRANCH   4   9
BRANCH   8  24
ATOM     24  C   UNL     1       1.986  14.578  21.425  0.00  0.00    +0.000 C 
BRANCH  24  25
ATOM     25  C   UNL     1       1.875  15.394  20.151  0.00  0.00    +0.000 A 
ATOM     26  C   UNL     1       0.830  16.319  19.976  0.00  0.00    +0.000 A 
ATOM     27  C   UNL     1       0.832  17.202  18.890  0.00  0.00    +0.000 A 
ATOM     28  C   UNL     1       1.871  17.165  17.963  0.00  0.00    +0.000 A 
ATOM     29  C   UNL     1       2.887  16.223  18.099  0.00  0.00    +0.000 A 
ATOM     30  C   UNL     1       2.883  15.335  19.179  0.00  0.00    +0.000 A 
ENDBRANCH  24  25
ENDBRANCH   8  24
TORSDOF 6
ENDMDL
MODEL 5
REMARK VINA RESULT:      -7.6      1.213      1.823
REMARK  Name = 
REMARK  6 active torsions:
REMARK  status: ('A' for Active; 'I' for Inactive)
REMARK    1  A    between atoms: C_4  and  C_5
REMARK    2  A    between atoms: C_7  and  C_8
REMARK    3  A    between atoms: C_8  and  C_9
REMARK    4  A    between atoms: C_17  and  O_18
REMARK    5  A    between atoms: N_22  and  C_23
REMARK    6  A    between atoms: C_23  and  C_24
REMARK                            x       y       z     vdW  Elec       q    Type
REMARK                         _______ _______ _______ _____ _____    ______ ____
ROOT
ATOM      1  O   UNL     1       0.825   8.818  18.732  0.00  0.00    +0.000 OA
ATOM      2  C   UNL     1       0.736   9.267  19.871  0.00  0.00    +0.000 C 
ATOM      3  C   UNL     1       1.073   8.508  21.109  0.00  0.00    +0.000 C 
ATOM      4  C   UNL     1       1.649   7.297  21.174  0.00  0.00    +0.000 C 
ATOM      5  S   UNL     1       0.588   9.412  22.485  0.00  0.00    +0.000 S 
ATOM      6  C   UNL     1      -0.071  10.722  21.507  0.00  0.00    +0.000 C 
ATOM      7  S   UNL     1      -0.944  11.966  22.195  0.00  0.00    +0.000 S 
ATOM      8  N   UNL     1       0.214  10.505  20.177  0.00  0.00    +0.000 N 
ENDROOT
BRANCH   4   9
ATOM      9  C   UNL     1       2.048   6.555  19.977  0.00  0.00    +0.000 A 
ATOM     10  C   UNL     1       2.987   7.119  19.101  0.00  0.00    +0.000 A 
ATOM     11  C   UNL     1       3.517   6.379  18.039  0.00  0.00    +0.000 A 
ATOM     12  C   UNL     1       3.112   5.044  17.876  0.00  0.00    +0.000 A 
ATOM     13  C   UNL     1       2.146   4.485  18.719  0.00  0.00    +0.000 A 
ATOM     14  C   UNL     1       1.613   5.245  19.757  0.00  0.00    +0.000 A 
BRANCH  14  15
ATOM     15  O   UNL     1       0.675   4.705  20.598  0.00  0.00    +0.000 OA
ATOM     16  H   UNL     1       0.934   4.898  21.512  0.00  0.00    +0.000 HD
ENDBRANCH  14  15
BRANCH  11  17
ATOM     17  C   UNL     1       4.489   7.025  17.080  0.00  0.00    +0.000 C 
BRANCH  17  18
ATOM     18  C   UNL     1       5.474   6.099  16.409  0.00  0.00    +0.000 A 
ATOM     19  C   UNL     1       6.550   5.564  17.132  0.00  0.00    +0.000 A 
ATOM     20  C   UNL     1       7.412   4.639  16.541  0.00  0.00    +0.000 A 
ATOM     21  C   UNL     1       7.210   4.237  15.222  0.00  0.00    +0.000 A 
ATOM     22  C   UNL     1       6.158   4.778  14.486  0.00  0.00    +0.000 A 
ATOM     23  C   UNL     1       5.302   5.713  15.072  0.00  0.00    +0.000 A 
ENDBRANCH  17  18
ENDBRANCH  11  17
ENDBRANCH   4   9
BRANCH   8  24
ATOM     24  C   UNL     1      -0.203  11.351  19.060  0.00  0.00    +0.000 C 
BRANCH  24  25
ATOM     25  C   UNL     1      -1.586  11.068  18.507  0.00  0.00    +0.000 A 
ATOM     26  C   UNL     1      -2.704  11.798  18.951  0.00  0.00    +0.000 A 
ATOM     27  C   UNL     1      -3.942  11.669  18.311  0.00  0.00    +0.000 A 
ATOM     28  C   UNL     1      -4.080  10.804  17.228  0.00  0.00    +0.000 A 
ATOM     29  C   UNL     1      -2.995  10.042  16.807  0.00  0.00    +0.000 A 
ATOM     30  C   UNL     1      -1.758  10.163  17.451  0.00  0.00    +0.000 A 
ENDBRANCH  24  25
ENDBRANCH   8  24
TORSDOF 6
ENDMDL
MODEL 6
REMARK VINA RESULT:      -7.6      1.487      2.405
REMARK  Name = 
REMARK  6 active torsions:
REMARK  status: ('A' for Active; 'I' for Inactive)
REMARK    1  A    between atoms: C_4  and  C_5
REMARK    2  A    between atoms: C_7  and  C_8
REMARK    3  A    between atoms: C_8  and  C_9
REMARK    4  A    between atoms: C_17  and  O_18
REMARK    5  A    between atoms: N_22  and  C_23
REMARK    6  A    between atoms: C_23  and  C_24
REMARK                            x       y       z     vdW  Elec       q    Type
REMARK                         _______ _______ _______ _____ _____    ______ ____
ROOT
ATOM      1  O   UNL     1       1.135   8.140  18.320  0.00  0.00    +0.000 OA
ATOM      2  C   UNL     1       1.178   8.658  19.432  0.00  0.00    +0.000 C 
ATOM      3  C   UNL     1       1.553   7.943  20.685  0.00  0.00    +0.000 C 
ATOM      4  C   UNL     1       2.031   6.692  20.780  0.00  0.00    +0.000 C 
ATOM      5  S   UNL     1       1.260   8.961  22.035  0.00  0.00    +0.000 S 
ATOM      6  C   UNL     1       0.632  10.267  21.032  0.00  0.00    +0.000 C 
ATOM      7  S   UNL     1      -0.076  11.619  21.707  0.00  0.00    +0.000 S 
ATOM      8  N   UNL     1       0.787   9.952  19.700  0.00  0.00    +0.000 N 
ENDROOT
BRANCH   4   9
ATOM      9  C   UNL     1       2.266   5.852  19.604  0.00  0.00    +0.000 A 
ATOM     10  C   UNL     1       3.327   6.163  18.741  0.00  0.00    +0.000 A 
ATOM     11  C   UNL     1       3.689   5.297  17.703  0.00  0.00    +0.000 A 
ATOM     12  C   UNL     1       2.985   4.091  17.552  0.00  0.00    +0.000 A 
ATOM     13  C   UNL     1       1.899   3.791  18.382  0.00  0.00    +0.000 A 
ATOM     14  C   UNL     1       1.540   4.676  19.395  0.00  0.00    +0.000 A 
BRANCH  14  15
ATOM     15  O   UNL     1       0.486   4.389  20.222  0.00  0.00    +0.000 OA
ATOM     16  H   UNL     1      -0.315   4.306  19.681  0.00  0.00    +0.000 HD
ENDBRANCH  14  15
BRANCH  11  17
ATOM     17  C   UNL     1       4.802   5.677  16.757  0.00  0.00    +0.000 C 
BRANCH  17  18
ATOM     18  C   UNL     1       6.079   6.167  17.396  0.00  0.00    +0.000 A 
ATOM     19  C   UNL     1       6.613   7.416  17.049  0.00  0.00    +0.000 A 
ATOM     20  C   UNL     1       7.743   7.911  17.701  0.00  0.00    +0.000 A 
ATOM     21  C   UNL     1       8.353   7.165  18.708  0.00  0.00    +0.000 A 
ATOM     22  C   UNL     1       7.846   5.912  19.046  0.00  0.00    +0.000 A 
ATOM     23  C   UNL     1       6.722   5.410  18.386  0.00  0.00    +0.000 A 
ENDBRANCH  17  18
ENDBRANCH  11  17
ENDBRANCH   4   9
BRANCH   8  24
ATOM     24  C   UNL     1       0.350  10.768  18.567  0.00  0.00    +0.000 C 
BRANCH  24  25
ATOM     25  C   UNL     1       1.001  12.133  18.457  0.00  0.00    +0.000 A 
ATOM     26  C   UNL     1       0.240  13.309  18.596  0.00  0.00    +0.000 A 
ATOM     27  C   UNL     1       0.865  14.558  18.682  0.00  0.00    +0.000 A 
ATOM     28  C   UNL     1       2.253  14.649  18.621  0.00  0.00    +0.000 A 
ATOM     29  C   UNL     1       3.016  13.500  18.437  0.00  0.00    +0.000 A 
ATOM     30  C   UNL     1       2.392  12.250  18.343  0.00  0.00    +0.000 A 
ENDBRANCH  24  25
ENDBRANCH   8  24
TORSDOF 6
ENDMDL
MODEL 7
REMARK VINA RESULT:      -7.6      2.234      8.407
REMARK  Name = 
REMARK  6 active torsions:
REMARK  status: ('A' for Active; 'I' for Inactive)
REMARK    1  A    between atoms: C_4  and  C_5
REMARK    2  A    between atoms: C_7  and  C_8
REMARK    3  A    between atoms: C_8  and  C_9
REMARK    4  A    between atoms: C_17  and  O_18
REMARK    5  A    between atoms: N_22  and  C_23
REMARK    6  A    between atoms: C_23  and  C_24
REMARK                            x       y       z     vdW  Elec       q    Type
REMARK                         _______ _______ _______ _____ _____    ______ ____
ROOT
ATOM      1  O   UNL     1       2.834   7.609  18.858  0.00  0.00    +0.000 OA
ATOM      2  C   UNL     1       2.578   6.500  19.318  0.00  0.00    +0.000 C 
ATOM      3  C   UNL     1       1.698   6.254  20.496  0.00  0.00    +0.000 C 
ATOM      4  C   UNL     1       0.948   7.164  21.137  0.00  0.00    +0.000 C 
ATOM      5  S   UNL     1       1.795   4.602  20.949  0.00  0.00    +0.000 S 
ATOM      6  C   UNL     1       2.968   4.228  19.687  0.00  0.00    +0.000 C 
ATOM      7  S   UNL     1       3.725   2.743  19.616  0.00  0.00    +0.000 S 
ATOM      8  N   UNL     1       3.150   5.327  18.875  0.00  0.00    +0.000 N 
ENDROOT
BRANCH   4   9
ATOM      9  C   UNL     1       0.892   8.567  20.722  0.00  0.00    +0.000 A 
ATOM     10  C   UNL     1       0.266   8.898  19.511  0.00  0.00    +0.000 A 
ATOM     11  C   UNL     1       0.045  10.234  19.157  0.00  0.00    +0.000 A 
ATOM     12  C   UNL     1       0.438  11.244  20.050  0.00  0.00    +0.000 A 
ATOM     13  C   UNL     1       1.099  10.925  21.241  0.00  0.00    +0.000 A 
ATOM     14  C   UNL     1       1.330   9.591  21.565  0.00  0.00    +0.000 A 
BRANCH  14  15
ATOM     15  O   UNL     1       1.966   9.264  22.734  0.00  0.00    +0.000 OA
ATOM     16  H   UNL     1       1.708   9.906  23.414  0.00  0.00    +0.000 HD
ENDBRANCH  14  15
BRANCH  11  17
ATOM     17  C   UNL     1      -0.585  10.567  17.825  0.00  0.00    +0.000 C 
BRANCH  17  18
ATOM     18  C   UNL     1      -2.032  10.992  17.863  0.00  0.00    +0.000 A 
ATOM     19  C   UNL     1      -2.900  10.652  16.816  0.00  0.00    +0.000 A 
ATOM     20  C   UNL     1      -4.258  10.966  16.888  0.00  0.00    +0.000 A 
ATOM     21  C   UNL     1      -4.766  11.622  18.007  0.00  0.00    +0.000 A 
ATOM     22  C   UNL     1      -3.910  11.986  19.045  0.00  0.00    +0.000 A 
ATOM     23  C   UNL     1      -2.549  11.684  18.969  0.00  0.00    +0.000 A 
ENDBRANCH  17  18
ENDBRANCH  11  17
ENDBRANCH   4   9
BRANCH   8  24
ATOM     24  C   UNL     1       4.074   5.416  17.746  0.00  0.00    +0.000 C 
BRANCH  24  25
ATOM     25  C   UNL     1       5.445   5.981  18.066  0.00  0.00    +0.000 A 
ATOM     26  C   UNL     1       6.244   5.406  19.072  0.00  0.00    +0.000 A 
ATOM     27  C   UNL     1       7.576   5.804  19.240  0.00  0.00    +0.000 A 
ATOM     28  C   UNL     1       8.120   6.785  18.414  0.00  0.00    +0.000 A 
ATOM     29  C   UNL     1       7.327   7.395  17.447  0.00  0.00    +0.000 A 
ATOM     30  C   UNL     1       5.993   7.004  17.283  0.00  0.00    +0.000 A 
ENDBRANCH  24  25
ENDBRANCH   8  24
TORSDOF 6
ENDMDL
MODEL 8
REMARK VINA RESULT:      -7.5      4.060      6.893
REMARK  Name = 
REMARK  6 active torsions:
REMARK  status: ('A' for Active; 'I' for Inactive)
REMARK    1  A    between atoms: C_4  and  C_5
REMARK    2  A    between atoms: C_7  and  C_8
REMARK    3  A    between atoms: C_8  and  C_9
REMARK    4  A    between atoms: C_17  and  O_18
REMARK    5  A    between atoms: N_22  and  C_23
REMARK    6  A    between atoms: C_23  and  C_24
REMARK                            x       y       z     vdW  Elec       q    Type
REMARK                         _______ _______ _______ _____ _____    ______ ____
ROOT
ATOM      1  O   UNL     1      -2.626  12.940  20.151  0.00  0.00    +0.000 OA
ATOM      2  C   UNL     1      -3.629  12.482  19.611  0.00  0.00    +0.000 C 
ATOM      3  C   UNL     1      -3.613  11.451  18.533  0.00  0.00    +0.000 C 
ATOM      4  C   UNL     1      -2.544  10.771  18.092  0.00  0.00    +0.000 C 
ATOM      5  S   UNL     1      -5.197  11.263  17.898  0.00  0.00    +0.000 S 
ATOM      6  C   UNL     1      -5.869  12.503  18.955  0.00  0.00    +0.000 C 
ATOM      7  S   UNL     1      -7.436  13.046  18.772  0.00  0.00    +0.000 S 
ATOM      8  N   UNL     1      -4.911  12.927  19.850  0.00  0.00    +0.000 N 
ENDROOT
BRANCH   4   9
ATOM      9  C   UNL     1      -1.207  10.960  18.658  0.00  0.00    +0.000 A 
ATOM     10  C   UNL     1      -0.662   9.960  19.476  0.00  0.00    +0.000 A 
ATOM     11  C   UNL     1       0.670  10.023  19.901  0.00  0.00    +0.000 A 
ATOM     12  C   UNL     1       1.465  11.098  19.473  0.00  0.00    +0.000 A 
ATOM     13  C   UNL     1       0.920  12.121  18.690  0.00  0.00    +0.000 A 
ATOM     14  C   UNL     1      -0.413  12.052  18.296  0.00  0.00    +0.000 A 
BRANCH  14  15
ATOM     15  O   UNL     1      -0.957  13.041  17.519  0.00  0.00    +0.000 OA
ATOM     16  H   UNL     1      -1.887  12.823  17.351  0.00  0.00    +0.000 HD
ENDBRANCH  14  15
BRANCH  11  17
ATOM     17  C   UNL     1       1.219   8.961  20.823  0.00  0.00    +0.000 C 
BRANCH  17  18
ATOM     18  C   UNL     1       1.729   7.705  20.159  0.00  0.00    +0.000 A 
ATOM     19  C   UNL     1       1.580   6.460  20.786  0.00  0.00    +0.000 A 
ATOM     20  C   UNL     1       1.970   5.287  20.138  0.00  0.00    +0.000 A 
ATOM     21  C   UNL     1       2.512   5.344  18.855  0.00  0.00    +0.000 A 
ATOM     22  C   UNL     1       2.687   6.577  18.230  0.00  0.00    +0.000 A 
ATOM     23  C   UNL     1       2.308   7.752  18.883  0.00  0.00    +0.000 A 
ENDBRANCH  17  18
ENDBRANCH  11  17
ENDBRANCH   4   9
BRANCH   8  24
ATOM     24  C   UNL     1      -5.079  13.973  20.858  0.00  0.00    +0.000 C 
BRANCH  24  25
ATOM     25  C   UNL     1      -5.287  13.484  22.278  0.00  0.00    +0.000 A 
ATOM     26  C   UNL     1      -6.565  13.107  22.732  0.00  0.00    +0.000 A 
ATOM     27  C   UNL     1      -6.726  12.482  23.973  0.00  0.00    +0.000 A 
ATOM     28  C   UNL     1      -5.617  12.234  24.779  0.00  0.00    +0.000 A 
ATOM     29  C   UNL     1      -4.353  12.643  24.363  0.00  0.00    +0.000 A 
ATOM     30  C   UNL     1      -4.191  13.275  23.126  0.00  0.00    +0.000 A 
ENDBRANCH  24  25
ENDBRANCH   8  24
TORSDOF 6
ENDMDL
MODEL 9
REMARK VINA RESULT:      -7.5      3.427      5.719
REMARK  Name = 
REMARK  6 active torsions:
REMARK  status: ('A' for Active; 'I' for Inactive)
REMARK    1  A    between atoms: C_4  and  C_5
REMARK    2  A    between atoms: C_7  and  C_8
REMARK    3  A    between atoms: C_8  and  C_9
REMARK    4  A    between atoms: C_17  and  O_18
REMARK    5  A    between atoms: N_22  and  C_23
REMARK    6  A    between atoms: C_23  and  C_24
REMARK                            x       y       z     vdW  Elec       q    Type
REMARK                         _______ _______ _______ _____ _____    ______ ____
ROOT
ATOM      1  O   UNL     1       1.515  12.307  20.220  0.00  0.00    +0.000 OA
ATOM      2  C   UNL     1       0.662  12.449  21.092  0.00  0.00    +0.000 C 
ATOM      3  C   UNL     1      -0.441  11.483  21.361  0.00  0.00    +0.000 C 
ATOM      4  C   UNL     1      -0.593  10.269  20.811  0.00  0.00    +0.000 C 
ATOM      5  S   UNL     1      -1.538  12.167  22.491  0.00  0.00    +0.000 S 
ATOM      6  C   UNL     1      -0.634  13.678  22.594  0.00  0.00    +0.000 C 
ATOM      7  S   UNL     1      -1.236  14.996  23.420  0.00  0.00    +0.000 S 
ATOM      8  N   UNL     1       0.540  13.573  21.880  0.00  0.00    +0.000 N 
ENDROOT
BRANCH   4   9
ATOM      9  C   UNL     1       0.363   9.719  19.849  0.00  0.00    +0.000 A 
ATOM     10  C   UNL     1       1.156   8.624  20.221  0.00  0.00    +0.000 A 
ATOM     11  C   UNL     1       1.961   7.965  19.284  0.00  0.00    +0.000 A 
ATOM     12  C   UNL     1       1.942   8.404  17.950  0.00  0.00    +0.000 A 
ATOM     13  C   UNL     1       1.185   9.521  17.577  0.00  0.00    +0.000 A 
ATOM     14  C   UNL     1       0.409  10.176  18.529  0.00  0.00    +0.000 A 
BRANCH  14  15
ATOM     15  O   UNL     1      -0.346  11.263  18.175  0.00  0.00    +0.000 OA
ATOM     16  H   UNL     1       0.252  11.978  17.905  0.00  0.00    +0.000 HD
ENDBRANCH  14  15
BRANCH  11  17
ATOM     17  C   UNL     1       2.844   6.821  19.720  0.00  0.00    +0.000 C 
BRANCH  17  18
ATOM     18  C   UNL     1       2.244   5.441  19.614  0.00  0.00    +0.000 A 
ATOM     19  C   UNL     1       1.750   4.791  20.754  0.00  0.00    +0.000 A 
ATOM     20  C   UNL     1       1.114   3.553  20.647  0.00  0.00    +0.000 A 
ATOM     21  C   UNL     1       0.963   2.950  19.400  0.00  0.00    +0.000 A 
ATOM     22  C   UNL     1       1.468   3.574  18.262  0.00  0.00    +0.000 A 
ATOM     23  C   UNL     1       2.116   4.807  18.369  0.00  0.00    +0.000 A 
ENDBRANCH  17  18
ENDBRANCH  11  17
ENDBRANCH   4   9
BRANCH   8  24
ATOM     24  C   UNL     1       1.532  14.631  21.697  0.00  0.00    +0.000 C 
BRANCH  24  25
ATOM     25  C   UNL     1       1.294  15.552  20.516  0.00  0.00    +0.000 A 
ATOM     26  C   UNL     1       2.341  15.877  19.633  0.00  0.00    +0.000 A 
ATOM     27  C   UNL     1       2.083  16.570  18.445  0.00  0.00    +0.000 A 
ATOM     28  C   UNL     1       0.781  16.953  18.129  0.00  0.00    +0.000 A 
ATOM     29  C   UNL     1      -0.256  16.678  19.015  0.00  0.00    +0.000 A 
ATOM     30  C   UNL     1       0.001  15.993  20.208  0.00  0.00    +0.000 A 
ENDBRANCH  24  25
ENDBRANCH   8  24
TORSDOF 6
ENDMDL
