MODEL 1
REMARK VINA RESULT:      -8.0      0.000      0.000
REMARK  Name = 
REMARK  9 active torsions:
REMARK  status: ('A' for Active; 'I' for Inactive)
REMARK    1  A    between atoms: C_2  and  C_3
REMARK    2  A    between atoms: C_3  and  C_4
REMARK    3  A    between atoms: C_4  and  C_5
REMARK    4  A    between atoms: C_5  and  C_6
REMARK    5  A    between atoms: C_6  and  C_7
REMARK    6  A    between atoms: C_7  and  C_8
REMARK    7  A    between atoms: C_8  and  C_9
REMARK    8  A    between atoms: N_11  and  C_12
REMARK    9  A    between atoms: N_23  and  O_24
REMARK                            x       y       z     vdW  Elec       q    Type
REMARK                         _______ _______ _______ _____ _____    ______ ____
ROOT
ATOM      1  C   UNL     1       7.249   7.294  17.778  0.00  0.00    +0.000 C 
ATOM      2  O   UNL     1       7.795   6.534  18.578  0.00  0.00    +0.000 OA
ATOM      3  N   UNL     1       6.017   7.097  17.170  0.00  0.00    +0.000 N 
ATOM      4  H   UNL     1       5.785   7.690  16.382  0.00  0.00    +0.000 HD
ENDROOT
BRANCH   3   5
ATOM      5  C   UNL     1       5.200   5.965  17.390  0.00  0.00    +0.000 A 
ATOM      6  C   UNL     1       5.292   4.828  16.578  0.00  0.00    +0.000 A 
ATOM      7  C   UNL     1       4.372   3.790  16.695  0.00  0.00    +0.000 A 
ATOM      8  C   UNL     1       3.376   3.885  17.649  0.00  0.00    +0.000 A 
ATOM      9  O   UNL     1       2.419   2.855  17.659  0.00  0.00    +0.000 OA
ATOM     10  C   UNL     1       1.328   2.911  18.510  0.00  0.00    +0.000 A 
ATOM     11  O   UNL     1       0.431   2.078  18.479  0.00  0.00    +0.000 OA
ATOM     12  C   UNL     1       1.302   4.015  19.484  0.00  0.00    +0.000 A 
ATOM     13  C   UNL     1       2.229   4.979  19.511  0.00  0.00    +0.000 A 
ATOM     14  C   UNL     1       3.306   4.963  18.531  0.00  0.00    +0.000 A 
ATOM     15  C   UNL     1       4.243   6.002  18.412  0.00  0.00    +0.000 A 
ENDBRANCH   3   5
BRANCH   1  16
ATOM     16  C   UNL     1       7.964   8.551  17.358  0.00  0.00    +0.000 C 
BRANCH  16  17
ATOM     17  C   UNL     1       8.617   9.183  18.588  0.00  0.00    +0.000 C 
BRANCH  17  18
ATOM     18  C   UNL     1       8.863  10.682  18.445  0.00  0.00    +0.000 C 
BRANCH  18  19
ATOM     19  C   UNL     1      10.268  11.098  18.888  0.00  0.00    +0.000 C 
BRANCH  19  20
ATOM     20  C   UNL     1      11.066  11.679  17.724  0.00  0.00    +0.000 C 
BRANCH  20  21
ATOM     21  C   UNL     1      11.606  13.066  18.062  0.00  0.00    +0.000 C 
BRANCH  21  23
ATOM     22  O   UNL     1       9.625  14.451  17.797  0.00  0.00    +0.000 OA
ATOM     23  C   UNL     1      10.767  14.168  17.450  0.00  0.00    +0.000 C 
ATOM     24  N   UNL     1      11.414  14.848  16.448  0.00  0.00    +0.000 N 
ATOM     25  H   UNL     1      12.325  14.612  16.072  0.00  0.00    +0.000 HD
BRANCH  24  26
ATOM     26  O   UNL     1      10.686  15.870  15.803  0.00  0.00    +0.000 OA
ATOM     27  H   UNL     1       9.780  15.491  15.768  0.00  0.00    +0.000 HD
ENDBRANCH  24  26
ENDBRANCH  21  23
ENDBRANCH  20  21
ENDBRANCH  19  20
ENDBRANCH  18  19
ENDBRANCH  17  18
ENDBRANCH  16  17
ENDBRANCH   1  16
TORSDOF 9
ENDMDL
MODEL 2
REMARK VINA RESULT:      -7.8      0.930      1.570
REMARK  Name = 
REMARK  9 active torsions:
REMARK  status: ('A' for Active; 'I' for Inactive)
REMARK    1  A    between atoms: C_2  and  C_3
REMARK    2  A    between atoms: C_3  and  C_4
REMARK    3  A    between atoms: C_4  and  C_5
REMARK    4  A    between atoms: C_5  and  C_6
REMARK    5  A    between atoms: C_6  and  C_7
REMARK    6  A    between atoms: C_7  and  C_8
REMARK    7  A    between atoms: C_8  and  C_9
REMARK    8  A    between atoms: N_11  and  C_12
REMARK    9  A    between atoms: N_23  and  O_24
REMARK                            x       y       z     vdW  Elec       q    Type
REMARK                         _______ _______ _______ _____ _____    ______ ____
ROOT
ATOM      1  C   UNL     1       6.985   7.072  17.780  0.00  0.00    +0.000 C 
ATOM      2  O   UNL     1       7.119   6.359  18.774  0.00  0.00    +0.000 OA
ATOM      3  N   UNL     1       5.847   7.177  16.993  0.00  0.00    +0.000 N 
ATOM      4  H   UNL     1       5.940   7.635  16.094  0.00  0.00    +0.000 HD
ENDROOT
BRANCH   3   5
ATOM      5  C   UNL     1       4.654   6.456  17.230  0.00  0.00    +0.000 A 
ATOM      6  C   UNL     1       3.510   7.084  17.741  0.00  0.00    +0.000 A 
ATOM      7  C   UNL     1       2.400   6.339  18.128  0.00  0.00    +0.000 A 
ATOM      8  C   UNL     1       2.431   4.965  17.976  0.00  0.00    +0.000 A 
ATOM      9  O   UNL     1       1.323   4.255  18.471  0.00  0.00    +0.000 OA
ATOM     10  C   UNL     1       1.305   2.872  18.455  0.00  0.00    +0.000 A 
ATOM     11  O   UNL     1       0.396   2.224  18.961  0.00  0.00    +0.000 OA
ATOM     12  C   UNL     1       2.425   2.200  17.774  0.00  0.00    +0.000 A 
ATOM     13  C   UNL     1       3.466   2.868  17.263  0.00  0.00    +0.000 A 
ATOM     14  C   UNL     1       3.519   4.317  17.392  0.00  0.00    +0.000 A 
ATOM     15  C   UNL     1       4.632   5.076  16.997  0.00  0.00    +0.000 A 
ENDBRANCH   3   5
BRANCH   1  16
ATOM     16  C   UNL     1       8.153   7.900  17.310  0.00  0.00    +0.000 C 
BRANCH  16  17
ATOM     17  C   UNL     1       8.053   9.294  17.934  0.00  0.00    +0.000 C 
BRANCH  17  18
ATOM     18  C   UNL     1       9.044   9.525  19.070  0.00  0.00    +0.000 C 
BRANCH  18  19
ATOM     19  C   UNL     1       9.594  10.953  19.096  0.00  0.00    +0.000 C 
BRANCH  19  20
ATOM     20  C   UNL     1       9.987  11.421  17.698  0.00  0.00    +0.000 C 
BRANCH  20  21
ATOM     21  C   UNL     1      11.146  12.412  17.752  0.00  0.00    +0.000 C 
BRANCH  21  23
ATOM     22  O   UNL     1       9.955  14.503  18.098  0.00  0.00    +0.000 OA
ATOM     23  C   UNL     1      10.706  13.820  17.411  0.00  0.00    +0.000 C 
ATOM     24  N   UNL     1      11.240  14.285  16.234  0.00  0.00    +0.000 N 
ATOM     25  H   UNL     1      11.806  13.742  15.592  0.00  0.00    +0.000 HD
BRANCH  24  26
ATOM     26  O   UNL     1      10.853  15.579  15.828  0.00  0.00    +0.000 OA
ATOM     27  H   UNL     1      11.081  16.122  16.615  0.00  0.00    +0.000 HD
ENDBRANCH  24  26
ENDBRANCH  21  23
ENDBRANCH  20  21
ENDBRANCH  19  20
ENDBRANCH  18  19
ENDBRANCH  17  18
ENDBRANCH  16  17
ENDBRANCH   1  16
TORSDOF 9
ENDMDL
MODEL 3
REMARK VINA RESULT:      -7.7      5.078      7.295
REMARK  Name = 
REMARK  9 active torsions:
REMARK  status: ('A' for Active; 'I' for Inactive)
REMARK    1  A    between atoms: C_2  and  C_3
REMARK    2  A    between atoms: C_3  and  C_4
REMARK    3  A    between atoms: C_4  and  C_5
REMARK    4  A    between atoms: C_5  and  C_6
REMARK    5  A    between atoms: C_6  and  C_7
REMARK    6  A    between atoms: C_7  and  C_8
REMARK    7  A    between atoms: C_8  and  C_9
REMARK    8  A    between atoms: N_11  and  C_12
REMARK    9  A    between atoms: N_23  and  O_24
REMARK                            x       y       z     vdW  Elec       q    Type
REMARK                         _______ _______ _______ _____ _____    ______ ____
ROOT
ATOM      1  C   UNL     1       2.596   4.252  17.876  0.00  0.00    +0.000 C 
ATOM      2  O   UNL     1       1.444   4.356  17.455  0.00  0.00    +0.000 OA
ATOM      3  N   UNL     1       3.239   5.137  18.729  0.00  0.00    +0.000 N 
ATOM      4  H   UNL     1       4.244   5.045  18.827  0.00  0.00    +0.000 HD
ENDROOT
BRANCH   3   5
ATOM      5  C   UNL     1       2.645   6.313  19.242  0.00  0.00    +0.000 A 
ATOM      6  C   UNL     1       2.002   6.323  20.486  0.00  0.00    +0.000 A 
ATOM      7  C   UNL     1       1.276   7.434  20.906  0.00  0.00    +0.000 A 
ATOM      8  C   UNL     1       1.222   8.545  20.085  0.00  0.00    +0.000 A 
ATOM      9  O   UNL     1       0.398   9.601  20.514  0.00  0.00    +0.000 OA
ATOM     10  C   UNL     1       0.200  10.713  19.715  0.00  0.00    +0.000 A 
ATOM     11  O   UNL     1      -0.581  11.607  20.020  0.00  0.00    +0.000 OA
ATOM     12  C   UNL     1       0.996  10.793  18.479  0.00  0.00    +0.000 A 
ATOM     13  C   UNL     1       1.815   9.813  18.080  0.00  0.00    +0.000 A 
ATOM     14  C   UNL     1       1.921   8.601  18.879  0.00  0.00    +0.000 A 
ATOM     15  C   UNL     1       2.656   7.479  18.467  0.00  0.00    +0.000 A 
ENDBRANCH   3   5
BRANCH   1  16
ATOM     16  C   UNL     1       3.441   3.092  17.419  0.00  0.00    +0.000 C 
BRANCH  16  17
ATOM     17  C   UNL     1       4.816   3.616  17.002  0.00  0.00    +0.000 C 
BRANCH  17  18
ATOM     18  C   UNL     1       4.767   4.579  15.820  0.00  0.00    +0.000 C 
BRANCH  18  19
ATOM     19  C   UNL     1       5.904   5.605  15.843  0.00  0.00    +0.000 C 
BRANCH  19  20
ATOM     20  C   UNL     1       5.919   6.384  17.156  0.00  0.00    +0.000 C 
BRANCH  20  21
ATOM     21  C   UNL     1       7.347   6.613  17.645  0.00  0.00    +0.000 C 
BRANCH  21  23
ATOM     22  O   UNL     1       7.890   4.377  18.431  0.00  0.00    +0.000 OA
ATOM     23  C   UNL     1       7.772   5.575  18.663  0.00  0.00    +0.000 C 
ATOM     24  N   UNL     1       8.029   6.107  19.903  0.00  0.00    +0.000 N 
ATOM     25  H   UNL     1       7.880   7.073  20.170  0.00  0.00    +0.000 HD
BRANCH  24  26
ATOM     26  O   UNL     1       8.400   5.199  20.917  0.00  0.00    +0.000 OA
ATOM     27  H   UNL     1       7.622   5.228  21.517  0.00  0.00    +0.000 HD
ENDBRANCH  24  26
ENDBRANCH  21  23
ENDBRANCH  20  21
ENDBRANCH  19  20
ENDBRANCH  18  19
ENDBRANCH  17  18
ENDBRANCH  16  17
ENDBRANCH   1  16
TORSDOF 9
ENDMDL
MODEL 4
REMARK VINA RESULT:      -7.7      5.641      8.173
REMARK  Name = 
REMARK  9 active torsions:
REMARK  status: ('A' for Active; 'I' for Inactive)
REMARK    1  A    between atoms: C_2  and  C_3
REMARK    2  A    between atoms: C_3  and  C_4
REMARK    3  A    between atoms: C_4  and  C_5
REMARK    4  A    between atoms: C_5  and  C_6
REMARK    5  A    between atoms: C_6  and  C_7
REMARK    6  A    between atoms: C_7  and  C_8
REMARK    7  A    between atoms: C_8  and  C_9
REMARK    8  A    between atoms: N_11  and  C_12
REMARK    9  A    between atoms: N_23  and  O_24
REMARK                            x       y       z     vdW  Elec       q    Type
REMARK                         _______ _______ _______ _____ _____    ______ ____
ROOT
ATOM      1  C   UNL     1       2.985   2.272  18.606  0.00  0.00    +0.000 C 
ATOM      2  O   UNL     1       3.730   1.294  18.543  0.00  0.00    +0.000 OA
ATOM      3  N   UNL     1       3.244   3.534  18.092  0.00  0.00    +0.000 N 
ATOM      4  H   UNL     1       2.645   4.294  18.393  0.00  0.00    +0.000 HD
ENDROOT
BRANCH   3   5
ATOM      5  C   UNL     1       4.432   3.880  17.408  0.00  0.00    +0.000 A 
ATOM      6  C   UNL     1       5.469   4.571  18.048  0.00  0.00    +0.000 A 
ATOM      7  C   UNL     1       6.557   5.053  17.327  0.00  0.00    +0.000 A 
ATOM      8  C   UNL     1       6.615   4.816  15.966  0.00  0.00    +0.000 A 
ATOM      9  O   UNL     1       7.685   5.407  15.272  0.00  0.00    +0.000 OA
ATOM     10  C   UNL     1       7.775   5.310  13.895  0.00  0.00    +0.000 A 
ATOM     11  O   UNL     1       8.644   5.890  13.253  0.00  0.00    +0.000 OA
ATOM     12  C   UNL     1       6.785   4.451  13.223  0.00  0.00    +0.000 A 
ATOM     13  C   UNL     1       5.786   3.850  13.878  0.00  0.00    +0.000 A 
ATOM     14  C   UNL     1       5.643   4.058  15.312  0.00  0.00    +0.000 A 
ATOM     15  C   UNL     1       4.553   3.569  16.048  0.00  0.00    +0.000 A 
ENDBRANCH   3   5
BRANCH   1  16
ATOM     16  C   UNL     1       1.673   2.147  19.336  0.00  0.00    +0.000 C 
BRANCH  16  17
ATOM     17  C   UNL     1       1.906   2.423  20.822  0.00  0.00    +0.000 C 
BRANCH  17  18
ATOM     18  C   UNL     1       2.300   3.867  21.118  0.00  0.00    +0.000 C 
BRANCH  18  19
ATOM     19  C   UNL     1       1.282   4.880  20.589  0.00  0.00    +0.000 C 
BRANCH  19  20
ATOM     20  C   UNL     1       1.802   6.309  20.724  0.00  0.00    +0.000 C 
BRANCH  20  21
ATOM     21  C   UNL     1       2.441   6.790  19.423  0.00  0.00    +0.000 C 
BRANCH  21  23
ATOM     22  O   UNL     1       1.276   8.900  19.745  0.00  0.00    +0.000 OA
ATOM     23  C   UNL     1       1.973   8.178  19.040  0.00  0.00    +0.000 C 
ATOM     24  N   UNL     1       2.414   8.575  17.802  0.00  0.00    +0.000 N 
ATOM     25  H   UNL     1       2.930   7.997  17.149  0.00  0.00    +0.000 HD
BRANCH  24  26
ATOM     26  O   UNL     1       1.995   9.846  17.357  0.00  0.00    +0.000 OA
ATOM     27  H   UNL     1       2.624  10.446  17.816  0.00  0.00    +0.000 HD
ENDBRANCH  24  26
ENDBRANCH  21  23
ENDBRANCH  20  21
ENDBRANCH  19  20
ENDBRANCH  18  19
ENDBRANCH  17  18
ENDBRANCH  16  17
ENDBRANCH   1  16
TORSDOF 9
ENDMDL
MODEL 5
REMARK VINA RESULT:      -7.6      1.069      1.210
REMARK  Name = 
REMARK  9 active torsions:
REMARK  status: ('A' for Active; 'I' for Inactive)
REMARK    1  A    between atoms: C_2  and  C_3
REMARK    2  A    between atoms: C_3  and  C_4
REMARK    3  A    between atoms: C_4  and  C_5
REMARK    4  A    between atoms: C_5  and  C_6
REMARK    5  A    between atoms: C_6  and  C_7
REMARK    6  A    between atoms: C_7  and  C_8
REMARK    7  A    between atoms: C_8  and  C_9
REMARK    8  A    between atoms: N_11  and  C_12
REMARK    9  A    between atoms: N_23  and  O_24
REMARK                            x       y       z     vdW  Elec       q    Type
REMARK                         _______ _______ _______ _____ _____    ______ ____
ROOT
ATOM      1  C   UNL     1       7.461   6.251  18.781  0.00  0.00    +0.000 C 
ATOM      2  O   UNL     1       7.751   5.374  19.595  0.00  0.00    +0.000 OA
ATOM      3  N   UNL     1       6.337   6.277  17.969  0.00  0.00    +0.000 N 
ATOM      4  H   UNL     1       6.328   6.942  17.204  0.00  0.00    +0.000 HD
ENDROOT
BRANCH   3   5
ATOM      5  C   UNL     1       5.343   5.272  17.964  0.00  0.00    +0.000 A 
ATOM      6  C   UNL     1       5.173   4.418  16.866  0.00  0.00    +0.000 A 
ATOM      7  C   UNL     1       4.089   3.547  16.800  0.00  0.00    +0.000 A 
ATOM      8  C   UNL     1       3.191   3.517  17.851  0.00  0.00    +0.000 A 
ATOM      9  O   UNL     1       2.066   2.691  17.689  0.00  0.00    +0.000 OA
ATOM     10  C   UNL     1       1.062   2.668  18.642  0.00  0.00    +0.000 A 
ATOM     11  O   UNL     1       0.028   2.030  18.487  0.00  0.00    +0.000 OA
ATOM     12  C   UNL     1       1.301   3.434  19.877  0.00  0.00    +0.000 A 
ATOM     13  C   UNL     1       2.388   4.192  20.060  0.00  0.00    +0.000 A 
ATOM     14  C   UNL     1       3.377   4.291  18.996  0.00  0.00    +0.000 A 
ATOM     15  C   UNL     1       4.477   5.161  19.059  0.00  0.00    +0.000 A 
ENDBRANCH   3   5
BRANCH   1  16
ATOM     16  C   UNL     1       8.407   7.407  18.583  0.00  0.00    +0.000 C 
BRANCH  16  17
ATOM     17  C   UNL     1       7.768   8.409  17.621  0.00  0.00    +0.000 C 
BRANCH  17  18
ATOM     18  C   UNL     1       7.959   9.863  18.041  0.00  0.00    +0.000 C 
BRANCH  18  19
ATOM     19  C   UNL     1       9.200  10.070  18.914  0.00  0.00    +0.000 C 
BRANCH  19  20
ATOM     20  C   UNL     1      10.184  11.034  18.257  0.00  0.00    +0.000 C 
BRANCH  20  21
ATOM     21  C   UNL     1       9.674  12.471  18.317  0.00  0.00    +0.000 C 
BRANCH  21  23
ATOM     22  O   UNL     1      11.771  13.685  18.525  0.00  0.00    +0.000 OA
ATOM     23  C   UNL     1      10.736  13.468  17.904  0.00  0.00    +0.000 C 
ATOM     24  N   UNL     1      10.436  14.125  16.736  0.00  0.00    +0.000 N 
ATOM     25  H   UNL     1       9.567  14.040  16.221  0.00  0.00    +0.000 HD
BRANCH  24  26
ATOM     26  O   UNL     1      11.361  15.096  16.298  0.00  0.00    +0.000 OA
ATOM     27  H   UNL     1      11.427  15.689  17.080  0.00  0.00    +0.000 HD
ENDBRANCH  24  26
ENDBRANCH  21  23
ENDBRANCH  20  21
ENDBRANCH  19  20
ENDBRANCH  18  19
ENDBRANCH  17  18
ENDBRANCH  16  17
ENDBRANCH   1  16
TORSDOF 9
ENDMDL
MODEL 6
REMARK VINA RESULT:      -7.6      5.311      9.219
REMARK  Name = 
REMARK  9 active torsions:
REMARK  status: ('A' for Active; 'I' for Inactive)
REMARK    1  A    between atoms: C_2  and  C_3
REMARK    2  A    between atoms: C_3  and  C_4
REMARK    3  A    between atoms: C_4  and  C_5
REMARK    4  A    between atoms: C_5  and  C_6
REMARK    5  A    between atoms: C_6  and  C_7
REMARK    6  A    between atoms: C_7  and  C_8
REMARK    7  A    between atoms: C_8  and  C_9
REMARK    8  A    between atoms: N_11  and  C_12
REMARK    9  A    between atoms: N_23  and  O_24
REMARK                            x       y       z     vdW  Elec       q    Type
REMARK                         _______ _______ _______ _____ _____    ______ ____
ROOT
ATOM      1  C   UNL     1       2.899   6.486  18.931  0.00  0.00    +0.000 C 
ATOM      2  O   UNL     1       2.509   7.026  17.896  0.00  0.00    +0.000 OA
ATOM      3  N   UNL     1       4.097   5.807  19.101  0.00  0.00    +0.000 N 
ATOM      4  H   UNL     1       4.198   5.237  19.933  0.00  0.00    +0.000 HD
ENDROOT
BRANCH   3   5
ATOM      5  C   UNL     1       5.059   5.635  18.079  0.00  0.00    +0.000 A 
ATOM      6  C   UNL     1       6.325   6.227  18.160  0.00  0.00    +0.000 A 
ATOM      7  C   UNL     1       7.201   6.193  17.078  0.00  0.00    +0.000 A 
ATOM      8  C   UNL     1       6.811   5.538  15.925  0.00  0.00    +0.000 A 
ATOM      9  O   UNL     1       7.692   5.616  14.833  0.00  0.00    +0.000 OA
ATOM     10  C   UNL     1       7.347   5.077  13.606  0.00  0.00    +0.000 A 
ATOM     11  O   UNL     1       8.053   5.208  12.612  0.00  0.00    +0.000 OA
ATOM     12  C   UNL     1       6.092   4.309  13.546  0.00  0.00    +0.000 A 
ATOM     13  C   UNL     1       5.265   4.193  14.591  0.00  0.00    +0.000 A 
ATOM     14  C   UNL     1       5.592   4.864  15.841  0.00  0.00    +0.000 A 
ATOM     15  C   UNL     1       4.719   4.897  16.939  0.00  0.00    +0.000 A 
ENDBRANCH   3   5
BRANCH   1  16
ATOM     16  C   UNL     1       2.008   6.504  20.147  0.00  0.00    +0.000 C 
BRANCH  16  17
ATOM     17  C   UNL     1       2.072   5.134  20.825  0.00  0.00    +0.000 C 
BRANCH  17  18
ATOM     18  C   UNL     1       0.954   4.189  20.393  0.00  0.00    +0.000 C 
BRANCH  18  19
ATOM     19  C   UNL     1       1.480   2.855  19.857  0.00  0.00    +0.000 C 
BRANCH  19  20
ATOM     20  C   UNL     1       1.349   2.780  18.338  0.00  0.00    +0.000 C 
BRANCH  20  21
ATOM     21  C   UNL     1       2.696   2.487  17.681  0.00  0.00    +0.000 C 
BRANCH  21  23
ATOM     22  O   UNL     1       3.714   0.499  18.641  0.00  0.00    +0.000 OA
ATOM     23  C   UNL     1       3.622   1.721  18.602  0.00  0.00    +0.000 C 
ATOM     24  N   UNL     1       4.377   2.535  19.410  0.00  0.00    +0.000 N 
ATOM     25  H   UNL     1       4.291   3.543  19.472  0.00  0.00    +0.000 HD
BRANCH  24  26
ATOM     26  O   UNL     1       5.243   1.896  20.322  0.00  0.00    +0.000 OA
ATOM     27  H   UNL     1       4.672   1.792  21.115  0.00  0.00    +0.000 HD
ENDBRANCH  24  26
ENDBRANCH  21  23
ENDBRANCH  20  21
ENDBRANCH  19  20
ENDBRANCH  18  19
ENDBRANCH  17  18
ENDBRANCH  16  17
ENDBRANCH   1  16
TORSDOF 9
ENDMDL
MODEL 7
REMARK VINA RESULT:      -7.5      5.818      8.196
REMARK  Name = 
REMARK  9 active torsions:
REMARK  status: ('A' for Active; 'I' for Inactive)
REMARK    1  A    between atoms: C_2  and  C_3
REMARK    2  A    between atoms: C_3  and  C_4
REMARK    3  A    between atoms: C_4  and  C_5
REMARK    4  A    between atoms: C_5  and  C_6
REMARK    5  A    between atoms: C_6  and  C_7
REMARK    6  A    between atoms: C_7  and  C_8
REMARK    7  A    between atoms: C_8  and  C_9
REMARK    8  A    between atoms: N_11  and  C_12
REMARK    9  A    between atoms: N_23  and  O_24
REMARK                            x       y       z     vdW  Elec       q    Type
REMARK                         _______ _______ _______ _____ _____    ______ ____
ROOT
ATOM      1  C   UNL     1       2.072   4.445  20.186  0.00  0.00    +0.000 C 
ATOM      2  O   UNL     1       0.913   4.268  19.812  0.00  0.00    +0.000 OA
ATOM      3  N   UNL     1       2.752   5.654  20.208  0.00  0.00    +0.000 N 
ATOM      4  H   UNL     1       3.756   5.625  20.339  0.00  0.00    +0.000 HD
ENDROOT
BRANCH   3   5
ATOM      5  C   UNL     1       2.191   6.883  19.789  0.00  0.00    +0.000 A 
ATOM      6  C   UNL     1       2.356   7.354  18.481  0.00  0.00    +0.000 A 
ATOM      7  C   UNL     1       1.947   8.636  18.126  0.00  0.00    +0.000 A 
ATOM      8  C   UNL     1       1.347   9.434  19.082  0.00  0.00    +0.000 A 
ATOM      9  O   UNL     1       1.041  10.751  18.696  0.00  0.00    +0.000 OA
ATOM     10  C   UNL     1       0.530  11.655  19.610  0.00  0.00    +0.000 A 
ATOM     11  O   UNL     1       0.339  12.832  19.329  0.00  0.00    +0.000 OA
ATOM     12  C   UNL     1       0.197  11.133  20.946  0.00  0.00    +0.000 A 
ATOM     13  C   UNL     1       0.445   9.870  21.313  0.00  0.00    +0.000 A 
ATOM     14  C   UNL     1       1.089   8.966  20.371  0.00  0.00    +0.000 A 
ATOM     15  C   UNL     1       1.498   7.669  20.718  0.00  0.00    +0.000 A 
ENDBRANCH   3   5
BRANCH   1  16
ATOM     16  C   UNL     1       2.885   3.259  20.636  0.00  0.00    +0.000 C 
BRANCH  16  17
ATOM     17  C   UNL     1       4.061   3.073  19.675  0.00  0.00    +0.000 C 
BRANCH  17  18
ATOM     18  C   UNL     1       3.655   2.494  18.322  0.00  0.00    +0.000 C 
BRANCH  18  19
ATOM     19  C   UNL     1       3.405   3.573  17.266  0.00  0.00    +0.000 C 
BRANCH  19  20
ATOM     20  C   UNL     1       4.501   4.635  17.290  0.00  0.00    +0.000 C 
BRANCH  20  21
ATOM     21  C   UNL     1       5.744   4.163  16.539  0.00  0.00    +0.000 C 
BRANCH  21  23
ATOM     22  O   UNL     1       8.148   4.235  16.895  0.00  0.00    +0.000 OA
ATOM     23  C   UNL     1       7.014   4.430  17.318  0.00  0.00    +0.000 C 
ATOM     24  N   UNL     1       6.782   4.931  18.576  0.00  0.00    +0.000 N 
ATOM     25  H   UNL     1       5.870   5.044  19.004  0.00  0.00    +0.000 HD
BRANCH  24  26
ATOM     26  O   UNL     1       7.915   5.177  19.380  0.00  0.00    +0.000 OA
ATOM     27  H   UNL     1       8.319   5.956  18.938  0.00  0.00    +0.000 HD
ENDBRANCH  24  26
ENDBRANCH  21  23
ENDBRANCH  20  21
ENDBRANCH  19  20
ENDBRANCH  18  19
ENDBRANCH  17  18
ENDBRANCH  16  17
ENDBRANCH   1  16
TORSDOF 9
ENDMDL
MODEL 8
REMARK VINA RESULT:      -7.4      4.763      7.563
REMARK  Name = 
REMARK  9 active torsions:
REMARK  status: ('A' for Active; 'I' for Inactive)
REMARK    1  A    between atoms: C_2  and  C_3
REMARK    2  A    between atoms: C_3  and  C_4
REMARK    3  A    between atoms: C_4  and  C_5
REMARK    4  A    between atoms: C_5  and  C_6
REMARK    5  A    between atoms: C_6  and  C_7
REMARK    6  A    between atoms: C_7  and  C_8
REMARK    7  A    between atoms: C_8  and  C_9
REMARK    8  A    between atoms: N_11  and  C_12
REMARK    9  A    between atoms: N_23  and  O_24
REMARK                            x       y       z     vdW  Elec       q    Type
REMARK                         _______ _______ _______ _____ _____    ______ ____
ROOT
ATOM      1  C   UNL     1       2.433   4.547  19.623  0.00  0.00    +0.000 C 
ATOM      2  O   UNL     1       1.231   4.283  19.621  0.00  0.00    +0.000 OA
ATOM      3  N   UNL     1       2.994   5.816  19.654  0.00  0.00    +0.000 N 
ATOM      4  H   UNL     1       3.981   5.896  19.441  0.00  0.00    +0.000 HD
ENDROOT
BRANCH   3   5
ATOM      5  C   UNL     1       2.241   7.012  19.687  0.00  0.00    +0.000 A 
ATOM      6  C   UNL     1       2.209   7.886  18.593  0.00  0.00    +0.000 A 
ATOM      7  C   UNL     1       1.605   9.136  18.694  0.00  0.00    +0.000 A 
ATOM      8  C   UNL     1       1.010   9.494  19.889  0.00  0.00    +0.000 A 
ATOM      9  O   UNL     1       0.500  10.802  19.967  0.00  0.00    +0.000 OA
ATOM     10  C   UNL     1      -0.025  11.288  21.152  0.00  0.00    +0.000 A 
ATOM     11  O   UNL     1      -0.393  12.450  21.277  0.00  0.00    +0.000 OA
ATOM     12  C   UNL     1      -0.149  10.331  22.264  0.00  0.00    +0.000 A 
ATOM     13  C   UNL     1       0.295   9.071  22.189  0.00  0.00    +0.000 A 
ATOM     14  C   UNL     1       0.948   8.615  20.971  0.00  0.00    +0.000 A 
ATOM     15  C   UNL     1       1.553   7.354  20.857  0.00  0.00    +0.000 A 
ENDBRANCH   3   5
BRANCH   1  16
ATOM     16  C   UNL     1       3.431   3.420  19.544  0.00  0.00    +0.000 C 
BRANCH  16  17
ATOM     17  C   UNL     1       4.561   3.827  18.598  0.00  0.00    +0.000 C 
BRANCH  17  18
ATOM     18  C   UNL     1       4.134   3.901  17.135  0.00  0.00    +0.000 C 
BRANCH  18  19
ATOM     19  C   UNL     1       5.250   4.403  16.216  0.00  0.00    +0.000 C 
BRANCH  19  20
ATOM     20  C   UNL     1       6.585   4.469  16.952  0.00  0.00    +0.000 C 
BRANCH  20  21
ATOM     21  C   UNL     1       7.127   5.896  16.988  0.00  0.00    +0.000 C 
BRANCH  21  23
ATOM     22  O   UNL     1       8.225   7.324  18.621  0.00  0.00    +0.000 OA
ATOM     23  C   UNL     1       7.687   6.257  18.348  0.00  0.00    +0.000 C 
ATOM     24  N   UNL     1       7.531   5.260  19.280  0.00  0.00    +0.000 N 
ATOM     25  H   UNL     1       7.160   4.335  19.093  0.00  0.00    +0.000 HD
BRANCH  24  26
ATOM     26  O   UNL     1       8.056   5.506  20.566  0.00  0.00    +0.000 OA
ATOM     27  H   UNL     1       8.516   4.661  20.768  0.00  0.00    +0.000 HD
ENDBRANCH  24  26
ENDBRANCH  21  23
ENDBRANCH  20  21
ENDBRANCH  19  20
ENDBRANCH  18  19
ENDBRANCH  17  18
ENDBRANCH  16  17
ENDBRANCH   1  16
TORSDOF 9
ENDMDL
MODEL 9
REMARK VINA RESULT:      -7.3      5.684      8.225
REMARK  Name = 
REMARK  9 active torsions:
REMARK  status: ('A' for Active; 'I' for Inactive)
REMARK    1  A    between atoms: C_2  and  C_3
REMARK    2  A    between atoms: C_3  and  C_4
REMARK    3  A    between atoms: C_4  and  C_5
REMARK    4  A    between atoms: C_5  and  C_6
REMARK    5  A    between atoms: C_6  and  C_7
REMARK    6  A    between atoms: C_7  and  C_8
REMARK    7  A    between atoms: C_8  and  C_9
REMARK    8  A    between atoms: N_11  and  C_12
REMARK    9  A    between atoms: N_23  and  O_24
REMARK                            x       y       z     vdW  Elec       q    Type
REMARK                         _______ _______ _______ _____ _____    ______ ____
ROOT
ATOM      1  C   UNL     1       3.092   2.364  18.209  0.00  0.00    +0.000 C 
ATOM      2  O   UNL     1       3.811   1.376  18.056  0.00  0.00    +0.000 OA
ATOM      3  N   UNL     1       3.375   3.657  17.793  0.00  0.00    +0.000 N 
ATOM      4  H   UNL     1       2.801   4.404  18.165  0.00  0.00    +0.000 HD
ENDROOT
BRANCH   3   5
ATOM      5  C   UNL     1       4.562   4.027  17.119  0.00  0.00    +0.000 A 
ATOM      6  C   UNL     1       5.532   4.829  17.735  0.00  0.00    +0.000 A 
ATOM      7  C   UNL     1       6.612   5.326  17.010  0.00  0.00    +0.000 A 
ATOM      8  C   UNL     1       6.728   4.994  15.673  0.00  0.00    +0.000 A 
ATOM      9  O   UNL     1       7.782   5.601  14.967  0.00  0.00    +0.000 OA
ATOM     10  C   UNL     1       7.923   5.410  13.604  0.00  0.00    +0.000 A 
ATOM     11  O   UNL     1       8.774   5.995  12.946  0.00  0.00    +0.000 OA
ATOM     12  C   UNL     1       7.011   4.442  12.971  0.00  0.00    +0.000 A 
ATOM     13  C   UNL     1       6.030   3.827  13.641  0.00  0.00    +0.000 A 
ATOM     14  C   UNL     1       5.828   4.130  15.051  0.00  0.00    +0.000 A 
ATOM     15  C   UNL     1       4.746   3.626  15.790  0.00  0.00    +0.000 A 
ENDBRANCH   3   5
BRANCH   1  16
ATOM     16  C   UNL     1       1.789   2.212  18.949  0.00  0.00    +0.000 C 
BRANCH  16  17
ATOM     17  C   UNL     1       1.216   3.603  19.230  0.00  0.00    +0.000 C 
BRANCH  17  18
ATOM     18  C   UNL     1       1.379   4.046  20.681  0.00  0.00    +0.000 C 
BRANCH  18  19
ATOM     19  C   UNL     1       1.585   5.557  20.820  0.00  0.00    +0.000 C 
BRANCH  19  20
ATOM     20  C   UNL     1       2.098   6.167  19.519  0.00  0.00    +0.000 C 
BRANCH  20  21
ATOM     21  C   UNL     1       2.400   7.654  19.687  0.00  0.00    +0.000 C 
BRANCH  21  23
ATOM     22  O   UNL     1       2.445   8.384  17.368  0.00  0.00    +0.000 OA
ATOM     23  C   UNL     1       1.952   8.464  18.488  0.00  0.00    +0.000 C 
ATOM     24  N   UNL     1       0.912   9.316  18.768  0.00  0.00    +0.000 N 
ATOM     25  H   UNL     1       0.516   9.476  19.687  0.00  0.00    +0.000 HD
BRANCH  24  26
ATOM     26  O   UNL     1       0.457  10.131  17.710  0.00  0.00    +0.000 OA
ATOM     27  H   UNL     1       1.195  10.065  17.064  0.00  0.00    +0.000 HD
ENDBRANCH  24  26
ENDBRANCH  21  23
ENDBRANCH  20  21
ENDBRANCH  19  20
ENDBRANCH  18  19
ENDBRANCH  17  18
ENDBRANCH  16  17
ENDBRANCH   1  16
TORSDOF 9
ENDMDL
