MODEL 1
REMARK VINA RESULT:      -8.5      0.000      0.000
REMARK  Name = 
REMARK  4 active torsions:
REMARK  status: ('A' for Active; 'I' for Inactive)
REMARK    1  A    between atoms: C_2  and  C_29
REMARK    2  A    between atoms: N_3  and  C_4
REMARK    3  A    between atoms: C_4  and  C_5
REMARK    4  A    between atoms: C_8  and  C_9
REMARK                            x       y       z     vdW  Elec       q    Type
REMARK                         _______ _______ _______ _____ _____    ______ ____
ROOT
ATOM      1  C   UNL     1      -0.655  12.647  22.265  0.00  0.00    +0.000 A 
ATOM      2  N   UNL     1      -0.545  13.275  23.420  0.00  0.00    +0.000 NA
ATOM      3  N   UNL     1      -0.515  14.621  23.150  0.00  0.00    +0.000 NA
ATOM      4  C   UNL     1      -0.624  14.795  21.838  0.00  0.00    +0.000 A 
ATOM      5  N   UNL     1      -1.062  13.596  21.315  0.00  0.00    +0.000 N 
ATOM      6  C   UNL     1      -1.563  13.282  20.039  0.00  0.00    +0.000 A 
ATOM      7  C   UNL     1      -2.363  12.135  19.918  0.00  0.00    +0.000 A 
ATOM      8  C   UNL     1      -2.254  11.369  18.772  0.00  0.00    +0.000 A 
ATOM      9  C   UNL     1      -1.406  11.830  17.787  0.00  0.00    +0.000 A 
ATOM     10  N   UNL     1      -0.833  13.059  17.807  0.00  0.00    +0.000 NA
ATOM     11  C   UNL     1      -0.953  13.816  18.922  0.00  0.00    +0.000 A 
ATOM     12  N   UNL     1      -0.396  15.076  18.831  0.00  0.00    +0.000 N 
ATOM     13  C   UNL     1      -0.216  16.137  19.727  0.00  0.00    +0.000 A 
ATOM     14  C   UNL     1       0.099  17.395  19.163  0.00  0.00    +0.000 A 
ATOM     15  C   UNL     1       0.411  18.500  19.953  0.00  0.00    +0.000 A 
ATOM     16  C   UNL     1       0.397  18.378  21.333  0.00  0.00    +0.000 A 
ATOM     17  C   UNL     1       0.017  17.166  21.908  0.00  0.00    +0.000 A 
ATOM     18  C   UNL     1      -0.321  16.038  21.125  0.00  0.00    +0.000 A 
ATOM     19  H   UNL     1      -0.054  15.225  17.889  0.00  0.00    +0.000 HD
ENDROOT
BRANCH   1  23
ATOM     20  C   UNL     1       0.574   8.574  21.474  0.00  0.00    +0.000 A 
ATOM     21  C   UNL     1      -0.350   8.866  22.491  0.00  0.00    +0.000 A 
ATOM     22  C   UNL     1      -0.755  10.190  22.745  0.00  0.00    +0.000 A 
ATOM     23  C   UNL     1      -0.243  11.251  21.996  0.00  0.00    +0.000 A 
ATOM     24  C   UNL     1       0.726  10.947  21.022  0.00  0.00    +0.000 A 
ATOM     25  C   UNL     1       1.096   9.630  20.732  0.00  0.00    +0.000 A 
BRANCH  20  26
ATOM     26  C   UNL     1       1.018   7.158  21.196  0.00  0.00    +0.000 C 
BRANCH  26  29
ATOM     27  O   UNL     1       1.790   4.961  19.677  0.00  0.00    +0.000 OA
ATOM     28  C   UNL     1       2.511   5.959  19.669  0.00  0.00    +0.000 C 
ATOM     29  N   UNL     1       2.213   7.108  20.380  0.00  0.00    +0.000 N 
ATOM     30  H   UNL     1       2.881   7.858  20.467  0.00  0.00    +0.000 HD
BRANCH  28  31
ATOM     31  C   UNL     1       3.790   5.962  18.884  0.00  0.00    +0.000 A 
ATOM     32  C   UNL     1       4.952   5.294  19.321  0.00  0.00    +0.000 A 
ATOM     33  C   UNL     1       6.107   5.350  18.554  0.00  0.00    +0.000 A 
ATOM     34  C   UNL     1       6.124   6.077  17.360  0.00  0.00    +0.000 A 
ATOM     35  F   UNL     1       7.248   6.137  16.632  0.00  0.00    +0.000 F 
ATOM     36  C   UNL     1       4.992   6.752  16.922  0.00  0.00    +0.000 A 
ATOM     37  C   UNL     1       3.826   6.698  17.689  0.00  0.00    +0.000 A 
ENDBRANCH  28  31
ENDBRANCH  26  29
ENDBRANCH  20  26
ENDBRANCH   1  23
TORSDOF 4
ENDMDL
MODEL 2
REMARK VINA RESULT:      -8.3      0.130      1.160
REMARK  Name = 
REMARK  4 active torsions:
REMARK  status: ('A' for Active; 'I' for Inactive)
REMARK    1  A    between atoms: C_2  and  C_29
REMARK    2  A    between atoms: N_3  and  C_4
REMARK    3  A    between atoms: C_4  and  C_5
REMARK    4  A    between atoms: C_8  and  C_9
REMARK                            x       y       z     vdW  Elec       q    Type
REMARK                         _______ _______ _______ _____ _____    ______ ____
ROOT
ATOM      1  C   UNL     1      -0.645  12.689  22.330  0.00  0.00    +0.000 A 
ATOM      2  N   UNL     1      -0.553  13.305  23.492  0.00  0.00    +0.000 NA
ATOM      3  N   UNL     1      -0.562  14.655  23.238  0.00  0.00    +0.000 NA
ATOM      4  C   UNL     1      -0.678  14.841  21.929  0.00  0.00    +0.000 A 
ATOM      5  N   UNL     1      -1.081  13.636  21.392  0.00  0.00    +0.000 N 
ATOM      6  C   UNL     1      -1.575  13.323  20.113  0.00  0.00    +0.000 A 
ATOM      7  C   UNL     1      -2.341  12.154  19.979  0.00  0.00    +0.000 A 
ATOM      8  C   UNL     1      -2.211  11.406  18.824  0.00  0.00    +0.000 A 
ATOM      9  C   UNL     1      -1.378  11.903  17.843  0.00  0.00    +0.000 A 
ATOM     10  N   UNL     1      -0.842  13.148  17.877  0.00  0.00    +0.000 NA
ATOM     11  C   UNL     1      -0.982  13.887  19.002  0.00  0.00    +0.000 A 
ATOM     12  N   UNL     1      -0.462  15.164  18.925  0.00  0.00    +0.000 N 
ATOM     13  C   UNL     1      -0.312  16.219  19.834  0.00  0.00    +0.000 A 
ATOM     14  C   UNL     1      -0.035  17.492  19.284  0.00  0.00    +0.000 A 
ATOM     15  C   UNL     1       0.245  18.597  20.087  0.00  0.00    +0.000 A 
ATOM     16  C   UNL     1       0.237  18.458  21.465  0.00  0.00    +0.000 A 
ATOM     17  C   UNL     1      -0.107  17.228  22.027  0.00  0.00    +0.000 A 
ATOM     18  C   UNL     1      -0.413  16.101  21.231  0.00  0.00    +0.000 A 
ATOM     19  H   UNL     1      -0.126  15.335  17.984  0.00  0.00    +0.000 HD
ENDROOT
BRANCH   1  23
ATOM     20  C   UNL     1       0.649   8.644  21.498  0.00  0.00    +0.000 A 
ATOM     21  C   UNL     1       1.156   9.730  20.766  0.00  0.00    +0.000 A 
ATOM     22  C   UNL     1       0.741  11.047  21.040  0.00  0.00    +0.000 A 
ATOM     23  C   UNL     1      -0.194  11.308  22.044  0.00  0.00    +0.000 A 
ATOM     24  C   UNL     1      -0.736  10.203  22.727  0.00  0.00    +0.000 A 
ATOM     25  C   UNL     1      -0.292   8.898  22.493  0.00  0.00    +0.000 A 
BRANCH  20  26
ATOM     26  C   UNL     1       1.085   7.227  21.210  0.00  0.00    +0.000 C 
BRANCH  26  29
ATOM     27  O   UNL     1       1.850   4.997  19.737  0.00  0.00    +0.000 OA
ATOM     28  C   UNL     1       2.547   6.010  19.668  0.00  0.00    +0.000 C 
ATOM     29  N   UNL     1       2.250   7.176  20.351  0.00  0.00    +0.000 N 
ATOM     30  H   UNL     1       2.902   7.943  20.387  0.00  0.00    +0.000 HD
BRANCH  28  31
ATOM     31  C   UNL     1       3.795   6.014  18.834  0.00  0.00    +0.000 A 
ATOM     32  C   UNL     1       3.890   6.711  17.612  0.00  0.00    +0.000 A 
ATOM     33  C   UNL     1       5.068   6.661  16.882  0.00  0.00    +0.000 A 
ATOM     34  C   UNL     1       6.153   5.912  17.348  0.00  0.00    +0.000 A 
ATOM     35  F   UNL     1       7.284   5.857  16.629  0.00  0.00    +0.000 F 
ATOM     36  C   UNL     1       6.072   5.209  18.542  0.00  0.00    +0.000 A 
ATOM     37  C   UNL     1       4.888   5.257  19.282  0.00  0.00    +0.000 A 
ENDBRANCH  28  31
ENDBRANCH  26  29
ENDBRANCH  20  26
ENDBRANCH   1  23
TORSDOF 4
ENDMDL
MODEL 3
REMARK VINA RESULT:      -8.3      4.373     11.075
REMARK  Name = 
REMARK  4 active torsions:
REMARK  status: ('A' for Active; 'I' for Inactive)
REMARK    1  A    between atoms: C_2  and  C_29
REMARK    2  A    between atoms: N_3  and  C_4
REMARK    3  A    between atoms: C_4  and  C_5
REMARK    4  A    between atoms: C_8  and  C_9
REMARK                            x       y       z     vdW  Elec       q    Type
REMARK                         _______ _______ _______ _____ _____    ______ ____
ROOT
ATOM      1  C   UNL     1       3.867   4.410  17.142  0.00  0.00    +0.000 A 
ATOM      2  N   UNL     1       3.159   3.507  16.493  0.00  0.00    +0.000 NA
ATOM      3  N   UNL     1       3.881   3.147  15.382  0.00  0.00    +0.000 NA
ATOM      4  C   UNL     1       5.024   3.822  15.379  0.00  0.00    +0.000 A 
ATOM      5  N   UNL     1       5.177   4.346  16.646  0.00  0.00    +0.000 N 
ATOM      6  C   UNL     1       6.294   4.937  17.264  0.00  0.00    +0.000 A 
ATOM      7  C   UNL     1       6.332   4.947  18.667  0.00  0.00    +0.000 A 
ATOM      8  C   UNL     1       6.871   6.047  19.308  0.00  0.00    +0.000 A 
ATOM      9  C   UNL     1       7.402   7.040  18.511  0.00  0.00    +0.000 A 
ATOM     10  N   UNL     1       7.587   6.908  17.174  0.00  0.00    +0.000 NA
ATOM     11  C   UNL     1       7.073   5.823  16.549  0.00  0.00    +0.000 A 
ATOM     12  N   UNL     1       7.364   5.738  15.202  0.00  0.00    +0.000 N 
ATOM     13  C   UNL     1       6.993   4.866  14.171  0.00  0.00    +0.000 A 
ATOM     14  C   UNL     1       7.770   4.915  12.991  0.00  0.00    +0.000 A 
ATOM     15  C   UNL     1       7.434   4.179  11.856  0.00  0.00    +0.000 A 
ATOM     16  C   UNL     1       6.319   3.358  11.880  0.00  0.00    +0.000 A 
ATOM     17  C   UNL     1       5.583   3.239  13.059  0.00  0.00    +0.000 A 
ATOM     18  C   UNL     1       5.917   3.962  14.227  0.00  0.00    +0.000 A 
ATOM     19  H   UNL     1       7.988   6.493  14.944  0.00  0.00    +0.000 HD
ENDROOT
BRANCH   1  23
ATOM     20  C   UNL     1       2.281   7.380  19.861  0.00  0.00    +0.000 A 
ATOM     21  C   UNL     1       2.271   6.016  20.195  0.00  0.00    +0.000 A 
ATOM     22  C   UNL     1       2.792   5.049  19.314  0.00  0.00    +0.000 A 
ATOM     23  C   UNL     1       3.328   5.421  18.080  0.00  0.00    +0.000 A 
ATOM     24  C   UNL     1       3.276   6.785  17.737  0.00  0.00    +0.000 A 
ATOM     25  C   UNL     1       2.804   7.755  18.627  0.00  0.00    +0.000 A 
BRANCH  20  26
ATOM     26  C   UNL     1       1.721   8.424  20.797  0.00  0.00    +0.000 C 
BRANCH  26  29
ATOM     27  O   UNL     1       1.495  10.793  19.360  0.00  0.00    +0.000 OA
ATOM     28  C   UNL     1       0.467  10.169  19.621  0.00  0.00    +0.000 C 
ATOM     29  N   UNL     1       0.469   8.975  20.321  0.00  0.00    +0.000 N 
ATOM     30  H   UNL     1      -0.388   8.552  20.639  0.00  0.00    +0.000 HD
BRANCH  28  31
ATOM     31  C   UNL     1      -0.871  10.703  19.200  0.00  0.00    +0.000 A 
ATOM     32  C   UNL     1      -1.559  11.692  19.931  0.00  0.00    +0.000 A 
ATOM     33  C   UNL     1      -2.801  12.131  19.495  0.00  0.00    +0.000 A 
ATOM     34  C   UNL     1      -3.375  11.585  18.343  0.00  0.00    +0.000 A 
ATOM     35  F   UNL     1      -4.581  12.005  17.936  0.00  0.00    +0.000 F 
ATOM     36  C   UNL     1      -2.717  10.600  17.619  0.00  0.00    +0.000 A 
ATOM     37  C   UNL     1      -1.466  10.155  18.053  0.00  0.00    +0.000 A 
ENDBRANCH  28  31
ENDBRANCH  26  29
ENDBRANCH  20  26
ENDBRANCH   1  23
TORSDOF 4
ENDMDL
MODEL 4
REMARK VINA RESULT:      -8.3      2.438      4.007
REMARK  Name = 
REMARK  4 active torsions:
REMARK  status: ('A' for Active; 'I' for Inactive)
REMARK    1  A    between atoms: C_2  and  C_29
REMARK    2  A    between atoms: N_3  and  C_4
REMARK    3  A    between atoms: C_4  and  C_5
REMARK    4  A    between atoms: C_8  and  C_9
REMARK                            x       y       z     vdW  Elec       q    Type
REMARK                         _______ _______ _______ _____ _____    ______ ____
ROOT
ATOM      1  C   UNL     1      -1.381  11.049  18.825  0.00  0.00    +0.000 A 
ATOM      2  N   UNL     1      -2.573  10.798  18.321  0.00  0.00    +0.000 NA
ATOM      3  N   UNL     1      -3.428  11.761  18.798  0.00  0.00    +0.000 NA
ATOM      4  C   UNL     1      -2.742  12.595  19.571  0.00  0.00    +0.000 A 
ATOM      5  N   UNL     1      -1.406  12.364  19.312  0.00  0.00    +0.000 N 
ATOM      6  C   UNL     1      -0.264  13.107  19.664  0.00  0.00    +0.000 A 
ATOM      7  C   UNL     1       0.895  12.922  18.894  0.00  0.00    +0.000 A 
ATOM      8  C   UNL     1       2.123  12.952  19.528  0.00  0.00    +0.000 A 
ATOM      9  C   UNL     1       2.126  13.233  20.878  0.00  0.00    +0.000 A 
ATOM     10  N   UNL     1       1.031  13.655  21.558  0.00  0.00    +0.000 NA
ATOM     11  C   UNL     1      -0.169  13.641  20.933  0.00  0.00    +0.000 A 
ATOM     12  N   UNL     1      -1.216  14.148  21.677  0.00  0.00    +0.000 N 
ATOM     13  C   UNL     1      -2.598  14.257  21.479  0.00  0.00    +0.000 A 
ATOM     14  C   UNL     1      -3.292  15.144  22.334  0.00  0.00    +0.000 A 
ATOM     15  C   UNL     1      -4.681  15.256  22.312  0.00  0.00    +0.000 A 
ATOM     16  C   UNL     1      -5.411  14.493  21.415  0.00  0.00    +0.000 A 
ATOM     17  C   UNL     1      -4.740  13.668  20.513  0.00  0.00    +0.000 A 
ATOM     18  C   UNL     1      -3.331  13.554  20.507  0.00  0.00    +0.000 A 
ATOM     19  H   UNL     1      -0.861  14.512  22.553  0.00  0.00    +0.000 HD
ENDROOT
BRANCH   1  23
ATOM     20  C   UNL     1       1.787   8.153  19.373  0.00  0.00    +0.000 A 
ATOM     21  C   UNL     1       1.466   8.639  18.095  0.00  0.00    +0.000 A 
ATOM     22  C   UNL     1       0.439   9.586  17.916  0.00  0.00    +0.000 A 
ATOM     23  C   UNL     1      -0.292  10.063  19.006  0.00  0.00    +0.000 A 
ATOM     24  C   UNL     1       0.004   9.521  20.271  0.00  0.00    +0.000 A 
ATOM     25  C   UNL     1       1.054   8.617  20.461  0.00  0.00    +0.000 A 
BRANCH  20  26
ATOM     26  C   UNL     1       2.884   7.135  19.575  0.00  0.00    +0.000 C 
BRANCH  26  29
ATOM     27  O   UNL     1       4.982   5.323  19.361  0.00  0.00    +0.000 OA
ATOM     28  C   UNL     1       4.466   5.744  18.325  0.00  0.00    +0.000 C 
ATOM     29  N   UNL     1       3.410   6.638  18.321  0.00  0.00    +0.000 N 
ATOM     30  H   UNL     1       3.094   7.071  17.467  0.00  0.00    +0.000 HD
BRANCH  28  31
ATOM     31  C   UNL     1       4.989   5.309  16.988  0.00  0.00    +0.000 A 
ATOM     32  C   UNL     1       5.208   6.212  15.927  0.00  0.00    +0.000 A 
ATOM     33  C   UNL     1       5.679   5.741  14.710  0.00  0.00    +0.000 A 
ATOM     34  C   UNL     1       5.924   4.377  14.530  0.00  0.00    +0.000 A 
ATOM     35  F   UNL     1       6.366   3.929  13.346  0.00  0.00    +0.000 F 
ATOM     36  C   UNL     1       5.701   3.472  15.560  0.00  0.00    +0.000 A 
ATOM     37  C   UNL     1       5.228   3.941  16.788  0.00  0.00    +0.000 A 
ENDBRANCH  28  31
ENDBRANCH  26  29
ENDBRANCH  20  26
ENDBRANCH   1  23
TORSDOF 4
ENDMDL
MODEL 5
REMARK VINA RESULT:      -8.2      3.172      4.929
REMARK  Name = 
REMARK  4 active torsions:
REMARK  status: ('A' for Active; 'I' for Inactive)
REMARK    1  A    between atoms: C_2  and  C_29
REMARK    2  A    between atoms: N_3  and  C_4
REMARK    3  A    between atoms: C_4  and  C_5
REMARK    4  A    between atoms: C_8  and  C_9
REMARK                            x       y       z     vdW  Elec       q    Type
REMARK                         _______ _______ _______ _____ _____    ______ ____
ROOT
ATOM      1  C   UNL     1      -2.792  11.874  19.260  0.00  0.00    +0.000 A 
ATOM      2  N   UNL     1      -3.930  11.542  18.682  0.00  0.00    +0.000 NA
ATOM      3  N   UNL     1      -4.939  12.132  19.403  0.00  0.00    +0.000 NA
ATOM      4  C   UNL     1      -4.402  12.828  20.398  0.00  0.00    +0.000 A 
ATOM      5  N   UNL     1      -3.059  12.958  20.109  0.00  0.00    +0.000 N 
ATOM      6  C   UNL     1      -2.075  13.783  20.684  0.00  0.00    +0.000 A 
ATOM      7  C   UNL     1      -0.935  14.068  19.916  0.00  0.00    +0.000 A 
ATOM      8  C   UNL     1       0.288  14.162  20.553  0.00  0.00    +0.000 A 
ATOM      9  C   UNL     1       0.290  14.035  21.927  0.00  0.00    +0.000 A 
ATOM     10  N   UNL     1      -0.837  14.011  22.679  0.00  0.00    +0.000 NA
ATOM     11  C   UNL     1      -2.035  13.935  22.055  0.00  0.00    +0.000 A 
ATOM     12  N   UNL     1      -3.131  13.981  22.894  0.00  0.00    +0.000 N 
ATOM     13  C   UNL     1      -4.514  13.859  22.710  0.00  0.00    +0.000 A 
ATOM     14  C   UNL     1      -5.334  14.301  23.774  0.00  0.00    +0.000 A 
ATOM     15  C   UNL     1      -6.718  14.130  23.758  0.00  0.00    +0.000 A 
ATOM     16  C   UNL     1      -7.318  13.528  22.665  0.00  0.00    +0.000 A 
ATOM     17  C   UNL     1      -6.534  13.154  21.574  0.00  0.00    +0.000 A 
ATOM     18  C   UNL     1      -5.132  13.335  21.562  0.00  0.00    +0.000 A 
ATOM     19  H   UNL     1      -2.820  14.140  23.845  0.00  0.00    +0.000 HD
ENDROOT
BRANCH   1  23
ATOM     20  C   UNL     1       0.915   9.655  19.007  0.00  0.00    +0.000 A 
ATOM     21  C   UNL     1       0.211  10.021  17.848  0.00  0.00    +0.000 A 
ATOM     22  C   UNL     1      -0.992  10.748  17.929  0.00  0.00    +0.000 A 
ATOM     23  C   UNL     1      -1.521  11.120  19.166  0.00  0.00    +0.000 A 
ATOM     24  C   UNL     1      -0.834  10.695  20.318  0.00  0.00    +0.000 A 
ATOM     25  C   UNL     1       0.385  10.015  20.244  0.00  0.00    +0.000 A 
BRANCH  20  26
ATOM     26  C   UNL     1       2.204   8.873  18.932  0.00  0.00    +0.000 C 
BRANCH  26  29
ATOM     27  O   UNL     1       3.596   6.894  17.562  0.00  0.00    +0.000 OA
ATOM     28  C   UNL     1       2.736   6.548  18.372  0.00  0.00    +0.000 C 
ATOM     29  N   UNL     1       1.995   7.452  19.113  0.00  0.00    +0.000 N 
ATOM     30  H   UNL     1       1.207   7.153  19.667  0.00  0.00    +0.000 HD
BRANCH  28  31
ATOM     31  C   UNL     1       2.431   5.093  18.578  0.00  0.00    +0.000 A 
ATOM     32  C   UNL     1       2.705   4.114  17.603  0.00  0.00    +0.000 A 
ATOM     33  C   UNL     1       2.384   2.787  17.851  0.00  0.00    +0.000 A 
ATOM     34  C   UNL     1       1.779   2.424  19.058  0.00  0.00    +0.000 A 
ATOM     35  F   UNL     1       1.460   1.142  19.284  0.00  0.00    +0.000 F 
ATOM     36  C   UNL     1       1.490   3.378  20.024  0.00  0.00    +0.000 A 
ATOM     37  C   UNL     1       1.812   4.715  19.780  0.00  0.00    +0.000 A 
ENDBRANCH  28  31
ENDBRANCH  26  29
ENDBRANCH  20  26
ENDBRANCH   1  23
TORSDOF 4
ENDMDL
MODEL 6
REMARK VINA RESULT:      -8.2      2.565      4.789
REMARK  Name = 
REMARK  4 active torsions:
REMARK  status: ('A' for Active; 'I' for Inactive)
REMARK    1  A    between atoms: C_2  and  C_29
REMARK    2  A    between atoms: N_3  and  C_4
REMARK    3  A    between atoms: C_4  and  C_5
REMARK    4  A    between atoms: C_8  and  C_9
REMARK                            x       y       z     vdW  Elec       q    Type
REMARK                         _______ _______ _______ _____ _____    ______ ____
ROOT
ATOM      1  C   UNL     1      -2.058  11.213  18.681  0.00  0.00    +0.000 A 
ATOM      2  N   UNL     1      -2.642  11.172  17.500  0.00  0.00    +0.000 NA
ATOM      3  N   UNL     1      -3.882  11.745  17.639  0.00  0.00    +0.000 NA
ATOM      4  C   UNL     1      -4.028  12.144  18.897  0.00  0.00    +0.000 A 
ATOM      5  N   UNL     1      -2.770  12.133  19.464  0.00  0.00    +0.000 N 
ATOM      6  C   UNL     1      -2.309  12.676  20.677  0.00  0.00    +0.000 A 
ATOM      7  C   UNL     1      -0.935  12.940  20.790  0.00  0.00    +0.000 A 
ATOM      8  C   UNL     1      -0.316  12.728  22.008  0.00  0.00    +0.000 A 
ATOM      9  C   UNL     1      -1.118  12.331  23.058  0.00  0.00    +0.000 A 
ATOM     10  N   UNL     1      -2.473  12.320  23.003  0.00  0.00    +0.000 NA
ATOM     11  C   UNL     1      -3.079  12.544  21.814  0.00  0.00    +0.000 A 
ATOM     12  N   UNL     1      -4.458  12.580  21.864  0.00  0.00    +0.000 N 
ATOM     13  C   UNL     1      -5.472  12.698  20.905  0.00  0.00    +0.000 A 
ATOM     14  C   UNL     1      -6.760  13.032  21.384  0.00  0.00    +0.000 A 
ATOM     15  C   UNL     1      -7.872  13.070  20.546  0.00  0.00    +0.000 A 
ATOM     16  C   UNL     1      -7.719  12.791  19.197  0.00  0.00    +0.000 A 
ATOM     17  C   UNL     1      -6.445  12.533  18.693  0.00  0.00    +0.000 A 
ATOM     18  C   UNL     1      -5.301  12.508  19.523  0.00  0.00    +0.000 A 
ATOM     19  H   UNL     1      -4.763  12.499  22.827  0.00  0.00    +0.000 HD
ENDROOT
BRANCH   1  23
ATOM     20  C   UNL     1       1.096   8.579  20.040  0.00  0.00    +0.000 A 
ATOM     21  C   UNL     1       1.176   9.219  18.792  0.00  0.00    +0.000 A 
ATOM     22  C   UNL     1       0.154  10.081  18.352  0.00  0.00    +0.000 A 
ATOM     23  C   UNL     1      -0.973  10.318  19.142  0.00  0.00    +0.000 A 
ATOM     24  C   UNL     1      -1.065   9.623  20.362  0.00  0.00    +0.000 A 
ATOM     25  C   UNL     1      -0.031   8.803  20.827  0.00  0.00    +0.000 A 
BRANCH  20  26
ATOM     26  C   UNL     1       2.184   7.650  20.520  0.00  0.00    +0.000 C 
BRANCH  26  29
ATOM     27  O   UNL     1       1.944   5.171  19.284  0.00  0.00    +0.000 OA
ATOM     28  C   UNL     1       2.832   5.931  18.899  0.00  0.00    +0.000 C 
ATOM     29  N   UNL     1       3.030   7.190  19.439  0.00  0.00    +0.000 N 
ATOM     30  H   UNL     1       3.843   7.739  19.203  0.00  0.00    +0.000 HD
BRANCH  28  31
ATOM     31  C   UNL     1       3.777   5.504  17.814  0.00  0.00    +0.000 A 
ATOM     32  C   UNL     1       4.484   6.425  17.016  0.00  0.00    +0.000 A 
ATOM     33  C   UNL     1       5.330   5.964  16.018  0.00  0.00    +0.000 A 
ATOM     34  C   UNL     1       5.472   4.591  15.796  0.00  0.00    +0.000 A 
ATOM     35  F   UNL     1       6.282   4.153  14.821  0.00  0.00    +0.000 F 
ATOM     36  C   UNL     1       4.773   3.670  16.565  0.00  0.00    +0.000 A 
ATOM     37  C   UNL     1       3.920   4.129  17.571  0.00  0.00    +0.000 A 
ENDBRANCH  28  31
ENDBRANCH  26  29
ENDBRANCH  20  26
ENDBRANCH   1  23
TORSDOF 4
ENDMDL
MODEL 7
REMARK VINA RESULT:      -8.2      3.249      5.248
REMARK  Name = 
REMARK  4 active torsions:
REMARK  status: ('A' for Active; 'I' for Inactive)
REMARK    1  A    between atoms: C_2  and  C_29
REMARK    2  A    between atoms: N_3  and  C_4
REMARK    3  A    between atoms: C_4  and  C_5
REMARK    4  A    between atoms: C_8  and  C_9
REMARK                            x       y       z     vdW  Elec       q    Type
REMARK                         _______ _______ _______ _____ _____    ______ ____
ROOT
ATOM      1  C   UNL     1      -3.197  11.807  19.215  0.00  0.00    +0.000 A 
ATOM      2  N   UNL     1      -4.292  11.487  18.555  0.00  0.00    +0.000 NA
ATOM      3  N   UNL     1      -5.360  11.893  19.317  0.00  0.00    +0.000 NA
ATOM      4  C   UNL     1      -4.901  12.469  20.421  0.00  0.00    +0.000 A 
ATOM      5  N   UNL     1      -3.564  12.733  20.203  0.00  0.00    +0.000 N 
ATOM      6  C   UNL     1      -2.657  13.529  20.926  0.00  0.00    +0.000 A 
ATOM      7  C   UNL     1      -1.523  14.002  20.249  0.00  0.00    +0.000 A 
ATOM      8  C   UNL     1      -0.327  14.085  20.937  0.00  0.00    +0.000 A 
ATOM      9  C   UNL     1      -0.349  13.757  22.277  0.00  0.00    +0.000 A 
ATOM     10  N   UNL     1      -1.491  13.544  22.977  0.00  0.00    +0.000 NA
ATOM     11  C   UNL     1      -2.664  13.479  22.305  0.00  0.00    +0.000 A 
ATOM     12  N   UNL     1      -3.781  13.325  23.102  0.00  0.00    +0.000 N 
ATOM     13  C   UNL     1      -5.146  13.138  22.854  0.00  0.00    +0.000 A 
ATOM     14  C   UNL     1      -6.023  13.360  23.940  0.00  0.00    +0.000 A 
ATOM     15  C   UNL     1      -7.390  13.099  23.851  0.00  0.00    +0.000 A 
ATOM     16  C   UNL     1      -7.916  12.625  22.660  0.00  0.00    +0.000 A 
ATOM     17  C   UNL     1      -7.080  12.471  21.555  0.00  0.00    +0.000 A 
ATOM     18  C   UNL     1      -5.695  12.747  21.620  0.00  0.00    +0.000 A 
ATOM     19  H   UNL     1      -3.506  13.363  24.078  0.00  0.00    +0.000 HD
ENDROOT
BRANCH   1  23
ATOM     20  C   UNL     1       0.670   9.913  18.778  0.00  0.00    +0.000 A 
ATOM     21  C   UNL     1      -0.119  10.214  17.655  0.00  0.00    +0.000 A 
ATOM     22  C   UNL     1      -1.374  10.836  17.795  0.00  0.00    +0.000 A 
ATOM     23  C   UNL     1      -1.873  11.164  19.058  0.00  0.00    +0.000 A 
ATOM     24  C   UNL     1      -1.096  10.802  20.174  0.00  0.00    +0.000 A 
ATOM     25  C   UNL     1       0.172  10.228  20.039  0.00  0.00    +0.000 A 
BRANCH  20  26
ATOM     26  C   UNL     1       2.015   9.243  18.638  0.00  0.00    +0.000 C 
BRANCH  26  29
ATOM     27  O   UNL     1       2.128   7.582  20.864  0.00  0.00    +0.000 OA
ATOM     28  C   UNL     1       1.987   7.064  19.756  0.00  0.00    +0.000 C 
ATOM     29  N   UNL     1       1.908   7.800  18.587  0.00  0.00    +0.000 N 
ATOM     30  H   UNL     1       1.929   7.353  17.684  0.00  0.00    +0.000 HD
BRANCH  28  31
ATOM     31  C   UNL     1       1.916   5.571  19.621  0.00  0.00    +0.000 A 
ATOM     32  C   UNL     1       1.429   4.738  20.649  0.00  0.00    +0.000 A 
ATOM     33  C   UNL     1       1.405   3.363  20.466  0.00  0.00    +0.000 A 
ATOM     34  C   UNL     1       1.873   2.804  19.273  0.00  0.00    +0.000 A 
ATOM     35  F   UNL     1       1.859   1.473  19.109  0.00  0.00    +0.000 F 
ATOM     36  C   UNL     1       2.368   3.609  18.256  0.00  0.00    +0.000 A 
ATOM     37  C   UNL     1       2.394   4.994  18.435  0.00  0.00    +0.000 A 
ENDBRANCH  28  31
ENDBRANCH  26  29
ENDBRANCH  20  26
ENDBRANCH   1  23
TORSDOF 4
ENDMDL
MODEL 8
REMARK VINA RESULT:      -8.2      2.618      4.794
REMARK  Name = 
REMARK  4 active torsions:
REMARK  status: ('A' for Active; 'I' for Inactive)
REMARK    1  A    between atoms: C_2  and  C_29
REMARK    2  A    between atoms: N_3  and  C_4
REMARK    3  A    between atoms: C_4  and  C_5
REMARK    4  A    between atoms: C_8  and  C_9
REMARK                            x       y       z     vdW  Elec       q    Type
REMARK                         _______ _______ _______ _____ _____    ______ ____
ROOT
ATOM      1  C   UNL     1      -2.120  11.129  18.354  0.00  0.00    +0.000 A 
ATOM      2  N   UNL     1      -2.863  11.004  17.273  0.00  0.00    +0.000 NA
ATOM      3  N   UNL     1      -4.081  11.575  17.548  0.00  0.00    +0.000 NA
ATOM      4  C   UNL     1      -4.057  12.056  18.785  0.00  0.00    +0.000 A 
ATOM      5  N   UNL     1      -2.731  12.094  19.168  0.00  0.00    +0.000 N 
ATOM      6  C   UNL     1      -2.113  12.720  20.266  0.00  0.00    +0.000 A 
ATOM      7  C   UNL     1      -0.742  13.003  20.166  0.00  0.00    +0.000 A 
ATOM      8  C   UNL     1       0.045  12.878  21.295  0.00  0.00    +0.000 A 
ATOM      9  C   UNL     1      -0.594  12.546  22.472  0.00  0.00    +0.000 A 
ATOM     10  N   UNL     1      -1.943  12.521  22.610  0.00  0.00    +0.000 NA
ATOM     11  C   UNL     1      -2.714  12.659  21.506  0.00  0.00    +0.000 A 
ATOM     12  N   UNL     1      -4.073  12.687  21.748  0.00  0.00    +0.000 N 
ATOM     13  C   UNL     1      -5.213  12.733  20.936  0.00  0.00    +0.000 A 
ATOM     14  C   UNL     1      -6.426  13.088  21.570  0.00  0.00    +0.000 A 
ATOM     15  C   UNL     1      -7.646  13.060  20.896  0.00  0.00    +0.000 A 
ATOM     16  C   UNL     1      -7.679  12.693  19.561  0.00  0.00    +0.000 A 
ATOM     17  C   UNL     1      -6.484  12.411  18.899  0.00  0.00    +0.000 A 
ATOM     18  C   UNL     1      -5.235  12.452  19.559  0.00  0.00    +0.000 A 
ATOM     19  H   UNL     1      -4.237  12.669  22.748  0.00  0.00    +0.000 HD
ENDROOT
BRANCH   1  23
ATOM     20  C   UNL     1       1.273   8.651  19.394  0.00  0.00    +0.000 A 
ATOM     21  C   UNL     1       0.258   8.917  20.329  0.00  0.00    +0.000 A 
ATOM     22  C   UNL     1      -0.849   9.718  19.990  0.00  0.00    +0.000 A 
ATOM     23  C   UNL     1      -0.965  10.276  18.715  0.00  0.00    +0.000 A 
ATOM     24  C   UNL     1       0.089  10.048  17.811  0.00  0.00    +0.000 A 
ATOM     25  C   UNL     1       1.167   9.214  18.125  0.00  0.00    +0.000 A 
BRANCH  20  26
ATOM     26  C   UNL     1       2.466   7.797  19.748  0.00  0.00    +0.000 C 
BRANCH  26  29
ATOM     27  O   UNL     1       3.863   5.394  19.719  0.00  0.00    +0.000 OA
ATOM     28  C   UNL     1       3.789   6.038  18.673  0.00  0.00    +0.000 C 
ATOM     29  N   UNL     1       3.109   7.239  18.577  0.00  0.00    +0.000 N 
ATOM     30  H   UNL     1       3.175   7.814  17.751  0.00  0.00    +0.000 HD
BRANCH  28  31
ATOM     31  C   UNL     1       4.471   5.546  17.430  0.00  0.00    +0.000 A 
ATOM     32  C   UNL     1       4.840   6.404  16.375  0.00  0.00    +0.000 A 
ATOM     33  C   UNL     1       5.454   5.881  15.246  0.00  0.00    +0.000 A 
ATOM     34  C   UNL     1       5.694   4.508  15.148  0.00  0.00    +0.000 A 
ATOM     35  F   UNL     1       6.276   4.009  14.048  0.00  0.00    +0.000 F 
ATOM     36  C   UNL     1       5.325   3.646  16.173  0.00  0.00    +0.000 A 
ATOM     37  C   UNL     1       4.708   4.167  17.313  0.00  0.00    +0.000 A 
ENDBRANCH  28  31
ENDBRANCH  26  29
ENDBRANCH  20  26
ENDBRANCH   1  23
TORSDOF 4
ENDMDL
MODEL 9
REMARK VINA RESULT:      -8.1      2.775      4.218
REMARK  Name = 
REMARK  4 active torsions:
REMARK  status: ('A' for Active; 'I' for Inactive)
REMARK    1  A    between atoms: C_2  and  C_29
REMARK    2  A    between atoms: N_3  and  C_4
REMARK    3  A    between atoms: C_4  and  C_5
REMARK    4  A    between atoms: C_8  and  C_9
REMARK                            x       y       z     vdW  Elec       q    Type
REMARK                         _______ _______ _______ _____ _____    ______ ____
ROOT
ATOM      1  C   UNL     1      -1.857  12.352  19.883  0.00  0.00    +0.000 A 
ATOM      2  N   UNL     1      -3.163  12.198  19.790  0.00  0.00    +0.000 NA
ATOM      3  N   UNL     1      -3.739  13.047  20.703  0.00  0.00    +0.000 NA
ATOM      4  C   UNL     1      -2.778  13.718  21.325  0.00  0.00    +0.000 A 
ATOM      5  N   UNL     1      -1.629  13.548  20.580  0.00  0.00    +0.000 N 
ATOM      6  C   UNL     1      -0.391  14.213  20.640  0.00  0.00    +0.000 A 
ATOM      7  C   UNL     1       0.418  14.185  19.494  0.00  0.00    +0.000 A 
ATOM      8  C   UNL     1       1.789  14.097  19.652  0.00  0.00    +0.000 A 
ATOM      9  C   UNL     1       2.273  14.112  20.944  0.00  0.00    +0.000 A 
ATOM     10  N   UNL     1       1.508  14.390  22.028  0.00  0.00    +0.000 NA
ATOM     11  C   UNL     1       0.168  14.492  21.870  0.00  0.00    +0.000 A 
ATOM     12  N   UNL     1      -0.526  14.840  23.012  0.00  0.00    +0.000 N 
ATOM     13  C   UNL     1      -1.882  14.980  23.333  0.00  0.00    +0.000 A 
ATOM     14  C   UNL     1      -2.181  15.682  24.523  0.00  0.00    +0.000 A 
ATOM     15  C   UNL     1      -3.484  15.790  25.008  0.00  0.00    +0.000 A 
ATOM     16  C   UNL     1      -4.525  15.213  24.300  0.00  0.00    +0.000 A 
ATOM     17  C   UNL     1      -4.259  14.581  23.085  0.00  0.00    +0.000 A 
ATOM     18  C   UNL     1      -2.948  14.476  22.567  0.00  0.00    +0.000 A 
ATOM     19  H   UNL     1       0.131  15.030  23.760  0.00  0.00    +0.000 HD
ENDROOT
BRANCH   1  23
ATOM     20  C   UNL     1       1.128   9.448  18.705  0.00  0.00    +0.000 A 
ATOM     21  C   UNL     1       1.045   9.902  20.032  0.00  0.00    +0.000 A 
ATOM     22  C   UNL     1       0.071  10.842  20.417  0.00  0.00    +0.000 A 
ATOM     23  C   UNL     1      -0.838  11.354  19.488  0.00  0.00    +0.000 A 
ATOM     24  C   UNL     1      -0.703  10.933  18.152  0.00  0.00    +0.000 A 
ATOM     25  C   UNL     1       0.231   9.963  17.772  0.00  0.00    +0.000 A 
BRANCH  20  26
ATOM     26  C   UNL     1       2.171   8.443  18.280  0.00  0.00    +0.000 C 
BRANCH  26  29
ATOM     27  O   UNL     1       3.988   6.350  18.062  0.00  0.00    +0.000 OA
ATOM     28  C   UNL     1       3.072   6.245  18.879  0.00  0.00    +0.000 C 
ATOM     29  N   UNL     1       2.122   7.232  19.074  0.00  0.00    +0.000 N 
ATOM     30  H   UNL     1       1.309   7.070  19.646  0.00  0.00    +0.000 HD
BRANCH  28  31
ATOM     31  C   UNL     1       2.931   4.999  19.702  0.00  0.00    +0.000 A 
ATOM     32  C   UNL     1       3.741   3.862  19.506  0.00  0.00    +0.000 A 
ATOM     33  C   UNL     1       3.548   2.736  20.293  0.00  0.00    +0.000 A 
ATOM     34  C   UNL     1       2.545   2.722  21.267  0.00  0.00    +0.000 A 
ATOM     35  F   UNL     1       2.356   1.624  22.014  0.00  0.00    +0.000 F 
ATOM     36  C   UNL     1       1.729   3.828  21.464  0.00  0.00    +0.000 A 
ATOM     37  C   UNL     1       1.920   4.965  20.676  0.00  0.00    +0.000 A 
ENDBRANCH  28  31
ENDBRANCH  26  29
ENDBRANCH  20  26
ENDBRANCH   1  23
TORSDOF 4
ENDMDL
