MODEL 1
REMARK VINA RESULT:      -5.6      0.000      0.000
REMARK  Name = 
REMARK  3 active torsions:
REMARK  status: ('A' for Active; 'I' for Inactive)
REMARK    1  A    between atoms: C_2  and  C_3
REMARK    2  A    between atoms: C_5  and  N_6
REMARK    3  A    between atoms: C_11  and  N_12
REMARK                            x       y       z     vdW  Elec       q    Type
REMARK                         _______ _______ _______ _____ _____    ______ ____
ROOT
ATOM      1  C   UNL     1       4.676   4.026  17.015  0.00  0.00    +0.000 A 
ATOM      2  C   UNL     1       5.166   4.212  15.713  0.00  0.00    +0.000 A 
ATOM      3  C   UNL     1       6.500   4.588  15.522  0.00  0.00    +0.000 A 
ATOM      4  C   UNL     1       7.344   4.777  16.619  0.00  0.00    +0.000 A 
ATOM      5  C   UNL     1       6.845   4.591  17.914  0.00  0.00    +0.000 A 
ATOM      6  C   UNL     1       5.503   4.247  18.137  0.00  0.00    +0.000 A 
ENDROOT
BRANCH   3   7
ATOM      7  N   UNL     1       7.018   4.763  14.159  0.00  0.00    +0.000 N 
ATOM      8  O   UNL     1       7.909   5.606  13.988  0.00  0.00    +0.000 OA
ATOM      9  O   UNL     1       6.534   4.055  13.264  0.00  0.00    +0.000 OA
ENDBRANCH   3   7
BRANCH   6  10
ATOM     10  N   UNL     1       5.110   3.906  19.439  0.00  0.00    +0.000 N 
ATOM     11  H   UNL     1       4.599   3.034  19.533  0.00  0.00    +0.000 HD
ATOM     12  H   UNL     1       5.809   4.022  20.170  0.00  0.00    +0.000 HD
ENDBRANCH   6  10
BRANCH   1  14
ATOM     13  N   UNL     1       2.211   3.271  17.288  0.00  0.00    +0.000 NA
ATOM     14  C   UNL     1       3.311   3.614  17.175  0.00  0.00    +0.000 C 
ENDBRANCH   1  14
TORSDOF 3
ENDMDL
MODEL 2
REMARK VINA RESULT:      -5.4      3.132      4.398
REMARK  Name = 
REMARK  3 active torsions:
REMARK  status: ('A' for Active; 'I' for Inactive)
REMARK    1  A    between atoms: C_2  and  C_3
REMARK    2  A    between atoms: C_5  and  N_6
REMARK    3  A    between atoms: C_11  and  N_12
REMARK                            x       y       z     vdW  Elec       q    Type
REMARK                         _______ _______ _______ _____ _____    ______ ____
ROOT
ATOM      1  C   UNL     1       2.756   2.915  19.846  0.00  0.00    +0.000 A 
ATOM      2  C   UNL     1       4.000   3.566  19.829  0.00  0.00    +0.000 A 
ATOM      3  C   UNL     1       4.637   3.808  18.607  0.00  0.00    +0.000 A 
ATOM      4  C   UNL     1       4.044   3.406  17.408  0.00  0.00    +0.000 A 
ATOM      5  C   UNL     1       2.804   2.755  17.437  0.00  0.00    +0.000 A 
ATOM      6  C   UNL     1       2.157   2.469  18.649  0.00  0.00    +0.000 A 
ENDROOT
BRANCH   3   7
ATOM      7  N   UNL     1       5.929   4.509  18.587  0.00  0.00    +0.000 N 
ATOM      8  O   UNL     1       6.309   5.040  19.640  0.00  0.00    +0.000 OA
ATOM      9  O   UNL     1       6.559   4.523  17.521  0.00  0.00    +0.000 OA
ENDBRANCH   3   7
BRANCH   6  10
ATOM     10  N   UNL     1       0.846   1.975  18.605  0.00  0.00    +0.000 N 
ATOM     11  H   UNL     1       0.196   2.383  19.269  0.00  0.00    +0.000 HD
ATOM     12  H   UNL     1       0.432   1.866  17.680  0.00  0.00    +0.000 HD
ENDBRANCH   6  10
BRANCH   1  14
ATOM     13  N   UNL     1       1.618   2.537  22.145  0.00  0.00    +0.000 NA
ATOM     14  C   UNL     1       2.117   2.707  21.113  0.00  0.00    +0.000 C 
ENDBRANCH   1  14
TORSDOF 3
ENDMDL
MODEL 3
REMARK VINA RESULT:      -5.4      1.076      2.744
REMARK  Name = 
REMARK  3 active torsions:
REMARK  status: ('A' for Active; 'I' for Inactive)
REMARK    1  A    between atoms: C_2  and  C_3
REMARK    2  A    between atoms: C_5  and  N_6
REMARK    3  A    between atoms: C_11  and  N_12
REMARK                            x       y       z     vdW  Elec       q    Type
REMARK                         _______ _______ _______ _____ _____    ______ ____
ROOT
ATOM      1  C   UNL     1       6.415   4.849  18.033  0.00  0.00    +0.000 A 
ATOM      2  C   UNL     1       7.045   4.961  16.783  0.00  0.00    +0.000 A 
ATOM      3  C   UNL     1       6.343   4.623  15.622  0.00  0.00    +0.000 A 
ATOM      4  C   UNL     1       5.022   4.175  15.699  0.00  0.00    +0.000 A 
ATOM      5  C   UNL     1       4.404   4.063  16.951  0.00  0.00    +0.000 A 
ATOM      6  C   UNL     1       5.094   4.363  18.135  0.00  0.00    +0.000 A 
ENDROOT
BRANCH   3   7
ATOM      7  N   UNL     1       6.994   4.762  14.312  0.00  0.00    +0.000 N 
ATOM      8  O   UNL     1       7.933   5.565  14.221  0.00  0.00    +0.000 OA
ATOM      9  O   UNL     1       6.568   4.065  13.381  0.00  0.00    +0.000 OA
ENDBRANCH   3   7
BRANCH   6  10
ATOM     10  N   UNL     1       4.373   4.400  19.337  0.00  0.00    +0.000 N 
ATOM     11  H   UNL     1       3.372   4.243  19.258  0.00  0.00    +0.000 HD
ATOM     12  H   UNL     1       4.778   3.899  20.126  0.00  0.00    +0.000 HD
ENDBRANCH   6  10
BRANCH   1  14
ATOM     13  N   UNL     1       7.756   5.520  20.148  0.00  0.00    +0.000 NA
ATOM     14  C   UNL     1       7.155   5.230  19.202  0.00  0.00    +0.000 C 
ENDBRANCH   1  14
TORSDOF 3
ENDMDL
MODEL 4
REMARK VINA RESULT:      -5.3      1.691      1.928
REMARK  Name = 
REMARK  3 active torsions:
REMARK  status: ('A' for Active; 'I' for Inactive)
REMARK    1  A    between atoms: C_2  and  C_3
REMARK    2  A    between atoms: C_5  and  N_6
REMARK    3  A    between atoms: C_11  and  N_12
REMARK                            x       y       z     vdW  Elec       q    Type
REMARK                         _______ _______ _______ _____ _____    ______ ____
ROOT
ATOM      1  C   UNL     1       3.495   4.532  17.933  0.00  0.00    +0.000 A 
ATOM      2  C   UNL     1       4.407   4.259  16.902  0.00  0.00    +0.000 A 
ATOM      3  C   UNL     1       5.764   4.544  17.086  0.00  0.00    +0.000 A 
ATOM      4  C   UNL     1       6.214   5.098  18.287  0.00  0.00    +0.000 A 
ATOM      5  C   UNL     1       5.295   5.369  19.308  0.00  0.00    +0.000 A 
ATOM      6  C   UNL     1       3.924   5.124  19.140  0.00  0.00    +0.000 A 
ENDROOT
BRANCH   3   7
ATOM      7  N   UNL     1       6.722   4.238  16.014  0.00  0.00    +0.000 N 
ATOM      8  O   UNL     1       7.918   4.485  16.227  0.00  0.00    +0.000 OA
ATOM      9  O   UNL     1       6.277   3.751  14.966  0.00  0.00    +0.000 OA
ENDBRANCH   3   7
BRANCH   6  10
ATOM     10  N   UNL     1       3.083   5.252  20.255  0.00  0.00    +0.000 N 
ATOM     11  H   UNL     1       2.147   5.600  20.066  0.00  0.00    +0.000 HD
ATOM     12  H   UNL     1       3.077   4.474  20.912  0.00  0.00    +0.000 HD
ENDBRANCH   6  10
BRANCH   1  14
ATOM     13  N   UNL     1       1.005   3.918  17.548  0.00  0.00    +0.000 NA
ATOM     14  C   UNL     1       2.115   4.202  17.723  0.00  0.00    +0.000 C 
ENDBRANCH   1  14
TORSDOF 3
ENDMDL
MODEL 5
REMARK VINA RESULT:      -5.3      4.913      5.787
REMARK  Name = 
REMARK  3 active torsions:
REMARK  status: ('A' for Active; 'I' for Inactive)
REMARK    1  A    between atoms: C_2  and  C_3
REMARK    2  A    between atoms: C_5  and  N_6
REMARK    3  A    between atoms: C_11  and  N_12
REMARK                            x       y       z     vdW  Elec       q    Type
REMARK                         _______ _______ _______ _____ _____    ______ ____
ROOT
ATOM      1  C   UNL     1       1.818   3.691  20.129  0.00  0.00    +0.000 A 
ATOM      2  C   UNL     1       1.998   5.079  20.244  0.00  0.00    +0.000 A 
ATOM      3  C   UNL     1       2.184   5.850  19.092  0.00  0.00    +0.000 A 
ATOM      4  C   UNL     1       2.192   5.248  17.832  0.00  0.00    +0.000 A 
ATOM      5  C   UNL     1       2.014   3.863  17.728  0.00  0.00    +0.000 A 
ATOM      6  C   UNL     1       1.859   3.059  18.868  0.00  0.00    +0.000 A 
ENDROOT
BRANCH   3   7
ATOM      7  N   UNL     1       2.351   7.305  19.211  0.00  0.00    +0.000 N 
ATOM      8  O   UNL     1       1.970   7.842  20.261  0.00  0.00    +0.000 OA
ATOM      9  O   UNL     1       2.864   7.905  18.257  0.00  0.00    +0.000 OA
ENDBRANCH   3   7
BRANCH   6  10
ATOM     10  N   UNL     1       1.512   1.712  18.692  0.00  0.00    +0.000 N 
ATOM     11  H   UNL     1       2.222   1.034  18.953  0.00  0.00    +0.000 HD
ATOM     12  H   UNL     1       0.584   1.436  19.007  0.00  0.00    +0.000 HD
ENDBRANCH   6  10
BRANCH   1  14
ATOM     13  N   UNL     1       1.420   2.336  22.304  0.00  0.00    +0.000 NA
ATOM     14  C   UNL     1       1.602   2.933  21.328  0.00  0.00    +0.000 C 
ENDBRANCH   1  14
TORSDOF 3
ENDMDL
MODEL 6
REMARK VINA RESULT:      -5.3      1.504      1.698
REMARK  Name = 
REMARK  3 active torsions:
REMARK  status: ('A' for Active; 'I' for Inactive)
REMARK    1  A    between atoms: C_2  and  C_3
REMARK    2  A    between atoms: C_5  and  N_6
REMARK    3  A    between atoms: C_11  and  N_12
REMARK                            x       y       z     vdW  Elec       q    Type
REMARK                         _______ _______ _______ _____ _____    ______ ____
ROOT
ATOM      1  C   UNL     1       4.243   3.998  17.233  0.00  0.00    +0.000 A 
ATOM      2  C   UNL     1       5.162   3.845  16.182  0.00  0.00    +0.000 A 
ATOM      3  C   UNL     1       5.723   4.978  15.584  0.00  0.00    +0.000 A 
ATOM      4  C   UNL     1       5.373   6.257  16.025  0.00  0.00    +0.000 A 
ATOM      5  C   UNL     1       4.454   6.398  17.073  0.00  0.00    +0.000 A 
ATOM      6  C   UNL     1       3.850   5.281  17.669  0.00  0.00    +0.000 A 
ENDROOT
BRANCH   3   7
ATOM      7  N   UNL     1       6.700   4.819  14.498  0.00  0.00    +0.000 N 
ATOM      8  O   UNL     1       7.730   5.505  14.549  0.00  0.00    +0.000 OA
ATOM      9  O   UNL     1       6.436   4.006  13.602  0.00  0.00    +0.000 OA
ENDBRANCH   3   7
BRANCH   6  10
ATOM     10  N   UNL     1       3.076   5.478  18.821  0.00  0.00    +0.000 N 
ATOM     11  H   UNL     1       3.201   6.368  19.293  0.00  0.00    +0.000 HD
ATOM     12  H   UNL     1       2.095   5.210  18.761  0.00  0.00    +0.000 HD
ENDBRANCH   6  10
BRANCH   1  14
ATOM     13  N   UNL     1       3.259   1.868  18.337  0.00  0.00    +0.000 NA
ATOM     14  C   UNL     1       3.708   2.815  17.843  0.00  0.00    +0.000 C 
ENDBRANCH   1  14
TORSDOF 3
ENDMDL
MODEL 7
REMARK VINA RESULT:      -5.3      2.562      3.251
REMARK  Name = 
REMARK  3 active torsions:
REMARK  status: ('A' for Active; 'I' for Inactive)
REMARK    1  A    between atoms: C_2  and  C_3
REMARK    2  A    between atoms: C_5  and  N_6
REMARK    3  A    between atoms: C_11  and  N_12
REMARK                            x       y       z     vdW  Elec       q    Type
REMARK                         _______ _______ _______ _____ _____    ______ ____
ROOT
ATOM      1  C   UNL     1       3.599   6.029  17.813  0.00  0.00    +0.000 A 
ATOM      2  C   UNL     1       4.960   6.230  17.532  0.00  0.00    +0.000 A 
ATOM      3  C   UNL     1       5.728   5.171  17.038  0.00  0.00    +0.000 A 
ATOM      4  C   UNL     1       5.150   3.917  16.825  0.00  0.00    +0.000 A 
ATOM      5  C   UNL     1       3.792   3.726  17.110  0.00  0.00    +0.000 A 
ATOM      6  C   UNL     1       3.005   4.761  17.637  0.00  0.00    +0.000 A 
ENDROOT
BRANCH   3   7
ATOM      7  N   UNL     1       7.147   5.387  16.724  0.00  0.00    +0.000 N 
ATOM      8  O   UNL     1       7.916   4.424  16.850  0.00  0.00    +0.000 OA
ATOM      9  O   UNL     1       7.488   6.518  16.351  0.00  0.00    +0.000 OA
ENDBRANCH   3   7
BRANCH   6  10
ATOM     10  N   UNL     1       1.621   4.560  17.738  0.00  0.00    +0.000 N 
ATOM     11  H   UNL     1       1.294   4.154  18.609  0.00  0.00    +0.000 HD
ATOM     12  H   UNL     1       1.026   5.326  17.425  0.00  0.00    +0.000 HD
ENDBRANCH   6  10
BRANCH   1  14
ATOM     13  N   UNL     1       2.226   8.045  18.692  0.00  0.00    +0.000 NA
ATOM     14  C   UNL     1       2.833   7.143  18.291  0.00  0.00    +0.000 C 
ENDBRANCH   1  14
TORSDOF 3
ENDMDL
MODEL 8
REMARK VINA RESULT:      -5.3      3.007      4.390
REMARK  Name = 
REMARK  3 active torsions:
REMARK  status: ('A' for Active; 'I' for Inactive)
REMARK    1  A    between atoms: C_2  and  C_3
REMARK    2  A    between atoms: C_5  and  N_6
REMARK    3  A    between atoms: C_11  and  N_12
REMARK                            x       y       z     vdW  Elec       q    Type
REMARK                         _______ _______ _______ _____ _____    ______ ____
ROOT
ATOM      1  C   UNL     1       5.855   4.747  16.860  0.00  0.00    +0.000 A 
ATOM      2  C   UNL     1       4.593   4.179  16.622  0.00  0.00    +0.000 A 
ATOM      3  C   UNL     1       3.712   3.978  17.690  0.00  0.00    +0.000 A 
ATOM      4  C   UNL     1       4.082   4.338  18.988  0.00  0.00    +0.000 A 
ATOM      5  C   UNL     1       5.344   4.901  19.216  0.00  0.00    +0.000 A 
ATOM      6  C   UNL     1       6.261   5.084  18.169  0.00  0.00    +0.000 A 
ENDROOT
BRANCH   3   7
ATOM      7  N   UNL     1       2.384   3.404  17.437  0.00  0.00    +0.000 N 
ATOM      8  O   UNL     1       2.302   2.172  17.331  0.00  0.00    +0.000 OA
ATOM      9  O   UNL     1       1.426   4.185  17.350  0.00  0.00    +0.000 OA
ENDBRANCH   3   7
BRANCH   6  10
ATOM     10  N   UNL     1       7.433   5.808  18.429  0.00  0.00    +0.000 N 
ATOM     11  H   UNL     1       7.609   6.031  19.404  0.00  0.00    +0.000 HD
ATOM     12  H   UNL     1       8.275   5.497  17.949  0.00  0.00    +0.000 HD
ENDBRANCH   6  10
BRANCH   1  14
ATOM     13  N   UNL     1       7.427   5.159  14.840  0.00  0.00    +0.000 NA
ATOM     14  C   UNL     1       6.723   4.965  15.739  0.00  0.00    +0.000 C 
ENDBRANCH   1  14
TORSDOF 3
ENDMDL
MODEL 9
REMARK VINA RESULT:      -5.2      1.654      2.341
REMARK  Name = 
REMARK  3 active torsions:
REMARK  status: ('A' for Active; 'I' for Inactive)
REMARK    1  A    between atoms: C_2  and  C_3
REMARK    2  A    between atoms: C_5  and  N_6
REMARK    3  A    between atoms: C_11  and  N_12
REMARK                            x       y       z     vdW  Elec       q    Type
REMARK                         _______ _______ _______ _____ _____    ______ ____
ROOT
ATOM      1  C   UNL     1       4.822   4.335  18.268  0.00  0.00    +0.000 A 
ATOM      2  C   UNL     1       5.577   4.095  17.109  0.00  0.00    +0.000 A 
ATOM      3  C   UNL     1       5.720   5.107  16.154  0.00  0.00    +0.000 A 
ATOM      4  C   UNL     1       5.117   6.352  16.348  0.00  0.00    +0.000 A 
ATOM      5  C   UNL     1       4.363   6.580  17.507  0.00  0.00    +0.000 A 
ATOM      6  C   UNL     1       4.175   5.573  18.465  0.00  0.00    +0.000 A 
ENDROOT
BRANCH   3   7
ATOM      7  N   UNL     1       6.528   4.863  14.951  0.00  0.00    +0.000 N 
ATOM      8  O   UNL     1       6.126   4.002  14.156  0.00  0.00    +0.000 OA
ATOM      9  O   UNL     1       7.559   5.533  14.805  0.00  0.00    +0.000 OA
ENDBRANCH   3   7
BRANCH   6  10
ATOM     10  N   UNL     1       3.561   5.914  19.679  0.00  0.00    +0.000 N 
ATOM     11  H   UNL     1       2.886   5.246  20.037  0.00  0.00    +0.000 HD
ATOM     12  H   UNL     1       4.170   6.274  20.411  0.00  0.00    +0.000 HD
ENDBRANCH   6  10
BRANCH   1  14
ATOM     13  N   UNL     1       4.636   2.449  20.038  0.00  0.00    +0.000 NA
ATOM     14  C   UNL     1       4.718   3.285  19.240  0.00  0.00    +0.000 C 
ENDBRANCH   1  14
TORSDOF 3
ENDMDL
