MODEL 1
REMARK VINA RESULT:      -7.9      0.000      0.000
REMARK  Name = 
REMARK  4 active torsions:
REMARK  status: ('A' for Active; 'I' for Inactive)
REMARK    1  A    between atoms: C_9  and  C_10
REMARK    2  A    between atoms: C_14  and  O_15
REMARK    3  A    between atoms: O_15  and  C_16
REMARK    4  A    between atoms: C_16  and  C_17
REMARK                            x       y       z     vdW  Elec       q    Type
REMARK                         _______ _______ _______ _____ _____    ______ ____
ROOT
ATOM      1  N   UNL     1       3.078  14.035  20.535  0.00  0.00    +0.000 N 
ATOM      2  C   UNL     1       1.827  13.551  20.439  0.00  0.00    +0.000 C 
ATOM      3  N   UNL     1       1.038  13.360  21.432  0.00  0.00    +0.000 NA
ATOM      4  C   UNL     1      -0.115  12.637  20.847  0.00  0.00    +0.000 C 
ATOM      5  C   UNL     1       0.021  12.949  19.350  0.00  0.00    +0.000 C 
ATOM      6  O   UNL     1       1.404  13.282  19.183  0.00  0.00    +0.000 OA
ATOM      7  C   UNL     1       0.035  11.169  21.235  0.00  0.00    +0.000 A 
ATOM      8  C   UNL     1       0.745  10.250  20.433  0.00  0.00    +0.000 A 
ATOM      9  C   UNL     1       0.980   8.918  20.825  0.00  0.00    +0.000 A 
ATOM     10  C   UNL     1       0.519   8.538  22.094  0.00  0.00    +0.000 A 
ATOM     11  C   UNL     1      -0.184   9.434  22.907  0.00  0.00    +0.000 A 
ATOM     12  C   UNL     1      -0.440  10.734  22.476  0.00  0.00    +0.000 A 
ATOM     13  O   UNL     1      -1.186  11.500  23.333  0.00  0.00    +0.000 OA
ATOM     14  C   UNL     1      -1.263  12.901  23.034  0.00  0.00    +0.000 C 
ATOM     15  C   UNL     1      -1.363  13.154  21.549  0.00  0.00    +0.000 C 
ATOM     16  C   UNL     1      -2.138  14.372  21.062  0.00  0.00    +0.000 C 
ATOM     17  C   UNL     1      -2.742  13.001  20.923  0.00  0.00    +0.000 C 
ATOM     18  H   UNL     1       3.337  14.682  19.808  0.00  0.00    +0.000 HD
ATOM     19  H   UNL     1       3.294  14.354  21.474  0.00  0.00    +0.000 HD
ENDROOT
BRANCH   9  20
ATOM     20  C   UNL     1       1.682   7.980  19.924  0.00  0.00    +0.000 A 
ATOM     21  C   UNL     1       2.197   8.375  18.688  0.00  0.00    +0.000 A 
ATOM     22  N   UNL     1       2.882   7.570  17.838  0.00  0.00    +0.000 NA
ATOM     23  C   UNL     1       3.063   6.291  18.233  0.00  0.00    +0.000 A 
ATOM     24  C   UNL     1       2.584   5.769  19.426  0.00  0.00    +0.000 A 
ATOM     25  C   UNL     1       1.899   6.633  20.278  0.00  0.00    +0.000 A 
BRANCH  24  26
ATOM     26  O   UNL     1       2.887   4.464  19.701  0.00  0.00    +0.000 OA
BRANCH  26  27
ATOM     27  C   UNL     1       1.800   3.660  20.174  0.00  0.00    +0.000 C 
BRANCH  27  28
ATOM     28  C   UNL     1       2.089   3.222  21.602  0.00  0.00    +0.000 C 
ATOM     29  F   UNL     1       1.033   2.512  22.082  0.00  0.00    +0.000 F 
ATOM     30  F   UNL     1       3.156   2.384  21.632  0.00  0.00    +0.000 F 
ENDBRANCH  27  28
ENDBRANCH  26  27
ENDBRANCH  24  26
ENDBRANCH   9  20
TORSDOF 4
ENDMDL
MODEL 2
REMARK VINA RESULT:      -7.8      0.960      1.089
REMARK  Name = 
REMARK  4 active torsions:
REMARK  status: ('A' for Active; 'I' for Inactive)
REMARK    1  A    between atoms: C_9  and  C_10
REMARK    2  A    between atoms: C_14  and  O_15
REMARK    3  A    between atoms: O_15  and  C_16
REMARK    4  A    between atoms: C_16  and  C_17
REMARK                            x       y       z     vdW  Elec       q    Type
REMARK                         _______ _______ _______ _____ _____    ______ ____
ROOT
ATOM      1  N   UNL     1       3.267  13.887  20.475  0.00  0.00    +0.000 N 
ATOM      2  C   UNL     1       1.999  13.448  20.378  0.00  0.00    +0.000 C 
ATOM      3  N   UNL     1       1.185  13.338  21.363  0.00  0.00    +0.000 NA
ATOM      4  C   UNL     1       0.015  12.631  20.791  0.00  0.00    +0.000 C 
ATOM      5  C   UNL     1       0.191  12.862  19.283  0.00  0.00    +0.000 C 
ATOM      6  O   UNL     1       1.590  13.132  19.129  0.00  0.00    +0.000 OA
ATOM      7  C   UNL     1       0.100  11.180  21.254  0.00  0.00    +0.000 A 
ATOM      8  C   UNL     1       0.788  10.195  20.513  0.00  0.00    +0.000 A 
ATOM      9  C   UNL     1       0.963   8.876  20.976  0.00  0.00    +0.000 A 
ATOM     10  C   UNL     1       0.464   8.578  22.253  0.00  0.00    +0.000 A 
ATOM     11  C   UNL     1      -0.219   9.541  23.005  0.00  0.00    +0.000 A 
ATOM     12  C   UNL     1      -0.415  10.827  22.506  0.00  0.00    +0.000 A 
ATOM     13  O   UNL     1      -1.145  11.663  23.308  0.00  0.00    +0.000 OA
ATOM     14  C   UNL     1      -1.162  13.049  22.938  0.00  0.00    +0.000 C 
ATOM     15  C   UNL     1      -1.224  13.231  21.440  0.00  0.00    +0.000 C 
ATOM     16  C   UNL     1      -1.941  14.451  20.878  0.00  0.00    +0.000 C 
ATOM     17  C   UNL     1      -2.596  13.099  20.795  0.00  0.00    +0.000 C 
ATOM     18  H   UNL     1       3.565  14.486  19.722  0.00  0.00    +0.000 HD
ATOM     19  H   UNL     1       3.477  14.245  21.402  0.00  0.00    +0.000 HD
ENDROOT
BRANCH   9  20
ATOM     20  C   UNL     1       1.644   7.868  20.138  0.00  0.00    +0.000 A 
ATOM     21  C   UNL     1       2.142   8.165  18.868  0.00  0.00    +0.000 A 
ATOM     22  N   UNL     1       2.809   7.293  18.070  0.00  0.00    +0.000 NA
ATOM     23  C   UNL     1       2.986   6.045  18.557  0.00  0.00    +0.000 A 
ATOM     24  C   UNL     1       2.521   5.617  19.793  0.00  0.00    +0.000 A 
ATOM     25  C   UNL     1       1.856   6.549  20.588  0.00  0.00    +0.000 A 
BRANCH  24  26
ATOM     26  O   UNL     1       2.819   4.335  20.160  0.00  0.00    +0.000 OA
BRANCH  26  27
ATOM     27  C   UNL     1       2.940   3.393  19.088  0.00  0.00    +0.000 C 
BRANCH  27  28
ATOM     28  C   UNL     1       1.660   2.575  18.996  0.00  0.00    +0.000 C 
ATOM     29  F   UNL     1       1.083   2.495  20.224  0.00  0.00    +0.000 F 
ATOM     30  F   UNL     1       0.760   3.197  18.191  0.00  0.00    +0.000 F 
ENDBRANCH  27  28
ENDBRANCH  26  27
ENDBRANCH  24  26
ENDBRANCH   9  20
TORSDOF 4
ENDMDL
MODEL 3
REMARK VINA RESULT:      -7.4      1.083      1.199
REMARK  Name = 
REMARK  4 active torsions:
REMARK  status: ('A' for Active; 'I' for Inactive)
REMARK    1  A    between atoms: C_9  and  C_10
REMARK    2  A    between atoms: C_14  and  O_15
REMARK    3  A    between atoms: O_15  and  C_16
REMARK    4  A    between atoms: C_16  and  C_17
REMARK                            x       y       z     vdW  Elec       q    Type
REMARK                         _______ _______ _______ _____ _____    ______ ____
ROOT
ATOM      1  N   UNL     1       2.866  14.040  19.714  0.00  0.00    +0.000 N 
ATOM      2  C   UNL     1       1.644  13.483  19.795  0.00  0.00    +0.000 C 
ATOM      3  N   UNL     1       0.975  13.340  20.879  0.00  0.00    +0.000 NA
ATOM      4  C   UNL     1      -0.185  12.506  20.484  0.00  0.00    +0.000 C 
ATOM      5  C   UNL     1      -0.224  12.690  18.961  0.00  0.00    +0.000 C 
ATOM      6  O   UNL     1       1.112  13.080  18.618  0.00  0.00    +0.000 OA
ATOM      7  C   UNL     1       0.096  11.089  20.975  0.00  0.00    +0.000 A 
ATOM      8  C   UNL     1       0.777  10.141  20.180  0.00  0.00    +0.000 A 
ATOM      9  C   UNL     1       1.134   8.864  20.655  0.00  0.00    +0.000 A 
ATOM     10  C   UNL     1       0.831   8.575  21.993  0.00  0.00    +0.000 A 
ATOM     11  C   UNL     1       0.160   9.502  22.800  0.00  0.00    +0.000 A 
ATOM     12  C   UNL     1      -0.220  10.742  22.292  0.00  0.00    +0.000 A 
ATOM     13  O   UNL     1      -0.920  11.541  23.158  0.00  0.00    +0.000 OA
ATOM     14  C   UNL     1      -1.116  12.902  22.753  0.00  0.00    +0.000 C 
ATOM     15  C   UNL     1      -1.384  13.016  21.271  0.00  0.00    +0.000 C 
ATOM     16  C   UNL     1      -2.280  14.142  20.771  0.00  0.00    +0.000 C 
ATOM     17  C   UNL     1      -2.807  12.734  20.813  0.00  0.00    +0.000 C 
ATOM     18  H   UNL     1       3.007  14.632  18.912  0.00  0.00    +0.000 HD
ATOM     19  H   UNL     1       3.156  14.453  20.594  0.00  0.00    +0.000 HD
ENDROOT
BRANCH   9  20
ATOM     20  C   UNL     1       1.798   7.889  19.765  0.00  0.00    +0.000 A 
ATOM     21  C   UNL     1       2.350   8.253  18.535  0.00  0.00    +0.000 A 
ATOM     22  N   UNL     1       3.003   7.411  17.696  0.00  0.00    +0.000 NA
ATOM     23  C   UNL     1       3.110   6.125  18.095  0.00  0.00    +0.000 A 
ATOM     24  C   UNL     1       2.586   5.631  19.281  0.00  0.00    +0.000 A 
ATOM     25  C   UNL     1       1.936   6.532  20.123  0.00  0.00    +0.000 A 
BRANCH  24  26
ATOM     26  O   UNL     1       2.814   4.312  19.562  0.00  0.00    +0.000 OA
BRANCH  26  27
ATOM     27  C   UNL     1       4.183   3.894  19.508  0.00  0.00    +0.000 C 
BRANCH  27  28
ATOM     28  C   UNL     1       4.242   2.374  19.559  0.00  0.00    +0.000 C 
ATOM     29  F   UNL     1       4.738   1.979  20.762  0.00  0.00    +0.000 F 
ATOM     30  F   UNL     1       2.993   1.851  19.470  0.00  0.00    +0.000 F 
ENDBRANCH  27  28
ENDBRANCH  26  27
ENDBRANCH  24  26
ENDBRANCH   9  20
TORSDOF 4
ENDMDL
MODEL 4
REMARK VINA RESULT:      -7.3      4.273      8.816
REMARK  Name = 
REMARK  4 active torsions:
REMARK  status: ('A' for Active; 'I' for Inactive)
REMARK    1  A    between atoms: C_9  and  C_10
REMARK    2  A    between atoms: C_14  and  O_15
REMARK    3  A    between atoms: O_15  and  C_16
REMARK    4  A    between atoms: C_16  and  C_17
REMARK                            x       y       z     vdW  Elec       q    Type
REMARK                         _______ _______ _______ _____ _____    ______ ____
ROOT
ATOM      1  N   UNL     1       2.550   4.222  22.389  0.00  0.00    +0.000 N 
ATOM      2  C   UNL     1       2.367   4.139  21.059  0.00  0.00    +0.000 C 
ATOM      3  N   UNL     1       3.310   4.124  20.190  0.00  0.00    +0.000 NA
ATOM      4  C   UNL     1       2.607   4.231  18.889  0.00  0.00    +0.000 C 
ATOM      5  C   UNL     1       1.178   3.803  19.247  0.00  0.00    +0.000 C 
ATOM      6  O   UNL     1       1.080   4.042  20.656  0.00  0.00    +0.000 OA
ATOM      7  C   UNL     1       2.769   5.671  18.412  0.00  0.00    +0.000 A 
ATOM      8  C   UNL     1       1.845   6.682  18.752  0.00  0.00    +0.000 A 
ATOM      9  C   UNL     1       2.032   8.034  18.405  0.00  0.00    +0.000 A 
ATOM     10  C   UNL     1       3.223   8.362  17.740  0.00  0.00    +0.000 A 
ATOM     11  C   UNL     1       4.155   7.375  17.396  0.00  0.00    +0.000 A 
ATOM     12  C   UNL     1       3.924   6.038  17.714  0.00  0.00    +0.000 A 
ATOM     13  O   UNL     1       4.879   5.158  17.276  0.00  0.00    +0.000 OA
ATOM     14  C   UNL     1       4.796   3.821  17.787  0.00  0.00    +0.000 C 
ATOM     15  C   UNL     1       3.365   3.351  17.905  0.00  0.00    +0.000 C 
ATOM     16  C   UNL     1       3.060   1.871  17.719  0.00  0.00    +0.000 C 
ATOM     17  C   UNL     1       2.707   2.846  16.629  0.00  0.00    +0.000 C 
ATOM     18  H   UNL     1       1.933   3.645  22.937  0.00  0.00    +0.000 HD
ATOM     19  H   UNL     1       3.530   4.148  22.645  0.00  0.00    +0.000 HD
ENDROOT
BRANCH   9  20
ATOM     20  C   UNL     1       1.008   9.046  18.738  0.00  0.00    +0.000 A 
ATOM     21  C   UNL     1       0.953   9.673  19.984  0.00  0.00    +0.000 A 
ATOM     22  N   UNL     1       0.062  10.634  20.333  0.00  0.00    +0.000 NA
ATOM     23  C   UNL     1      -0.838  10.992  19.391  0.00  0.00    +0.000 A 
ATOM     24  C   UNL     1      -0.905  10.431  18.124  0.00  0.00    +0.000 A 
ATOM     25  C   UNL     1       0.040   9.458  17.799  0.00  0.00    +0.000 A 
BRANCH  24  26
ATOM     26  O   UNL     1      -1.848  10.931  17.270  0.00  0.00    +0.000 OA
BRANCH  26  27
ATOM     27  C   UNL     1      -2.503   9.970  16.435  0.00  0.00    +0.000 C 
BRANCH  27  28
ATOM     28  C   UNL     1      -3.077  10.676  15.216  0.00  0.00    +0.000 C 
ATOM     29  F   UNL     1      -2.574  10.112  14.086  0.00  0.00    +0.000 F 
ATOM     30  F   UNL     1      -4.423  10.504  15.162  0.00  0.00    +0.000 F 
ENDBRANCH  27  28
ENDBRANCH  26  27
ENDBRANCH  24  26
ENDBRANCH   9  20
TORSDOF 4
ENDMDL
MODEL 5
REMARK VINA RESULT:      -7.3      1.504      1.638
REMARK  Name = 
REMARK  4 active torsions:
REMARK  status: ('A' for Active; 'I' for Inactive)
REMARK    1  A    between atoms: C_9  and  C_10
REMARK    2  A    between atoms: C_14  and  O_15
REMARK    3  A    between atoms: O_15  and  C_16
REMARK    4  A    between atoms: C_16  and  C_17
REMARK                            x       y       z     vdW  Elec       q    Type
REMARK                         _______ _______ _______ _____ _____    ______ ____
ROOT
ATOM      1  N   UNL     1       2.930  14.487  21.213  0.00  0.00    +0.000 N 
ATOM      2  C   UNL     1       1.678  14.039  21.012  0.00  0.00    +0.000 C 
ATOM      3  N   UNL     1       0.836  13.775  21.942  0.00  0.00    +0.000 NA
ATOM      4  C   UNL     1      -0.296  13.130  21.237  0.00  0.00    +0.000 C 
ATOM      5  C   UNL     1      -0.079  13.574  19.784  0.00  0.00    +0.000 C 
ATOM      6  O   UNL     1       1.316  13.893  19.717  0.00  0.00    +0.000 OA
ATOM      7  C   UNL     1      -0.189  11.631  21.496  0.00  0.00    +0.000 A 
ATOM      8  C   UNL     1       0.548  10.775  20.650  0.00  0.00    +0.000 A 
ATOM      9  C   UNL     1       0.741   9.408  20.930  0.00  0.00    +0.000 A 
ATOM     10  C   UNL     1       0.211   8.923  22.134  0.00  0.00    +0.000 A 
ATOM     11  C   UNL     1      -0.520   9.757  22.990  0.00  0.00    +0.000 A 
ATOM     12  C   UNL     1      -0.733  11.095  22.668  0.00  0.00    +0.000 A 
ATOM     13  O   UNL     1      -1.510  11.795  23.553  0.00  0.00    +0.000 OA
ATOM     14  C   UNL     1      -1.551  13.218  23.380  0.00  0.00    +0.000 C 
ATOM     15  C   UNL     1      -1.571  13.607  21.920  0.00  0.00    +0.000 C 
ATOM     16  C   UNL     1      -2.301  14.879  21.509  0.00  0.00    +0.000 C 
ATOM     17  C   UNL     1      -2.917  13.538  21.215  0.00  0.00    +0.000 C 
ATOM     18  H   UNL     1       3.236  15.192  20.561  0.00  0.00    +0.000 HD
ATOM     19  H   UNL     1       3.102  14.716  22.187  0.00  0.00    +0.000 HD
ENDROOT
BRANCH   9  20
ATOM     20  C   UNL     1       1.475   8.542  19.984  0.00  0.00    +0.000 A 
ATOM     21  C   UNL     1       1.714   8.915  18.660  0.00  0.00    +0.000 A 
ATOM     22  N   UNL     1       2.412   8.180  17.758  0.00  0.00    +0.000 NA
ATOM     23  C   UNL     1       2.898   6.997  18.192  0.00  0.00    +0.000 A 
ATOM     24  C   UNL     1       2.712   6.501  19.475  0.00  0.00    +0.000 A 
ATOM     25  C   UNL     1       2.002   7.294  20.375  0.00  0.00    +0.000 A 
BRANCH  24  26
ATOM     26  O   UNL     1       3.303   5.305  19.773  0.00  0.00    +0.000 OA
BRANCH  26  27
ATOM     27  C   UNL     1       4.643   5.138  19.295  0.00  0.00    +0.000 C 
BRANCH  27  28
ATOM     28  C   UNL     1       4.762   3.788  18.603  0.00  0.00    +0.000 C 
ATOM     29  F   UNL     1       4.754   2.798  19.536  0.00  0.00    +0.000 F 
ATOM     30  F   UNL     1       3.684   3.570  17.807  0.00  0.00    +0.000 F 
ENDBRANCH  27  28
ENDBRANCH  26  27
ENDBRANCH  24  26
ENDBRANCH   9  20
TORSDOF 4
ENDMDL
MODEL 6
REMARK VINA RESULT:      -7.3      1.263      1.393
REMARK  Name = 
REMARK  4 active torsions:
REMARK  status: ('A' for Active; 'I' for Inactive)
REMARK    1  A    between atoms: C_9  and  C_10
REMARK    2  A    between atoms: C_14  and  O_15
REMARK    3  A    between atoms: O_15  and  C_16
REMARK    4  A    between atoms: C_16  and  C_17
REMARK                            x       y       z     vdW  Elec       q    Type
REMARK                         _______ _______ _______ _____ _____    ______ ____
ROOT
ATOM      1  N   UNL     1       0.909  14.781  19.482  0.00  0.00    +0.000 N 
ATOM      2  C   UNL     1      -0.157  13.993  19.710  0.00  0.00    +0.000 C 
ATOM      3  N   UNL     1      -0.718  13.832  20.852  0.00  0.00    +0.000 NA
ATOM      4  C   UNL     1      -1.690  12.735  20.628  0.00  0.00    +0.000 C 
ATOM      5  C   UNL     1      -1.852  12.741  19.102  0.00  0.00    +0.000 C 
ATOM      6  O   UNL     1      -0.654  13.362  18.622  0.00  0.00    +0.000 OA
ATOM      7  C   UNL     1      -1.082  11.471  21.227  0.00  0.00    +0.000 A 
ATOM      8  C   UNL     1      -0.258  10.606  20.474  0.00  0.00    +0.000 A 
ATOM      9  C   UNL     1       0.392   9.491  21.038  0.00  0.00    +0.000 A 
ATOM     10  C   UNL     1       0.234   9.292  22.417  0.00  0.00    +0.000 A 
ATOM     11  C   UNL     1      -0.575  10.140  23.183  0.00  0.00    +0.000 A 
ATOM     12  C   UNL     1      -1.242  11.210  22.592  0.00  0.00    +0.000 A 
ATOM     13  O   UNL     1      -2.049  11.933  23.430  0.00  0.00    +0.000 OA
ATOM     14  C   UNL     1      -2.557  13.172  22.915  0.00  0.00    +0.000 C 
ATOM     15  C   UNL     1      -2.926  13.066  21.454  0.00  0.00    +0.000 C 
ATOM     16  C   UNL     1      -4.070  13.918  20.922  0.00  0.00    +0.000 C 
ATOM     17  C   UNL     1      -4.277  12.443  21.137  0.00  0.00    +0.000 C 
ATOM     18  H   UNL     1       0.874  15.299  18.620  0.00  0.00    +0.000 HD
ATOM     19  H   UNL     1       1.151  15.339  20.295  0.00  0.00    +0.000 HD
ENDROOT
BRANCH   9  20
ATOM     20  C   UNL     1       1.201   8.586  20.195  0.00  0.00    +0.000 A 
ATOM     21  C   UNL     1       1.706   8.973  18.953  0.00  0.00    +0.000 A 
ATOM     22  N   UNL     1       2.484   8.200  18.154  0.00  0.00    +0.000 NA
ATOM     23  C   UNL     1       2.774   6.962  18.610  0.00  0.00    +0.000 A 
ATOM     24  C   UNL     1       2.316   6.449  19.815  0.00  0.00    +0.000 A 
ATOM     25  C   UNL     1       1.533   7.281  20.614  0.00  0.00    +0.000 A 
BRANCH  24  26
ATOM     26  O   UNL     1       2.732   5.192  20.156  0.00  0.00    +0.000 OA
BRANCH  26  27
ATOM     27  C   UNL     1       1.830   4.439  20.974  0.00  0.00    +0.000 C 
BRANCH  27  28
ATOM     28  C   UNL     1       2.283   2.987  21.010  0.00  0.00    +0.000 C 
ATOM     29  F   UNL     1       1.675   2.347  22.044  0.00  0.00    +0.000 F 
ATOM     30  F   UNL     1       1.892   2.343  19.880  0.00  0.00    +0.000 F 
ENDBRANCH  27  28
ENDBRANCH  26  27
ENDBRANCH  24  26
ENDBRANCH   9  20
TORSDOF 4
ENDMDL
MODEL 7
REMARK VINA RESULT:      -7.3      1.017      1.136
REMARK  Name = 
REMARK  4 active torsions:
REMARK  status: ('A' for Active; 'I' for Inactive)
REMARK    1  A    between atoms: C_9  and  C_10
REMARK    2  A    between atoms: C_14  and  O_15
REMARK    3  A    between atoms: O_15  and  C_16
REMARK    4  A    between atoms: C_16  and  C_17
REMARK                            x       y       z     vdW  Elec       q    Type
REMARK                         _______ _______ _______ _____ _____    ______ ____
ROOT
ATOM      1  N   UNL     1       3.365  14.581  21.600  0.00  0.00    +0.000 N 
ATOM      2  C   UNL     1       2.085  14.314  21.281  0.00  0.00    +0.000 C 
ATOM      3  N   UNL     1       1.134  14.168  22.128  0.00  0.00    +0.000 NA
ATOM      4  C   UNL     1      -0.009  13.691  21.314  0.00  0.00    +0.000 C 
ATOM      5  C   UNL     1       0.399  14.104  19.893  0.00  0.00    +0.000 C 
ATOM      6  O   UNL     1       1.826  14.223  19.956  0.00  0.00    +0.000 OA
ATOM      7  C   UNL     1      -0.136  12.191  21.559  0.00  0.00    +0.000 A 
ATOM      8  C   UNL     1       0.547  11.242  20.769  0.00  0.00    +0.000 A 
ATOM      9  C   UNL     1       0.522   9.860  21.044  0.00  0.00    +0.000 A 
ATOM     10  C   UNL     1      -0.179   9.452  22.189  0.00  0.00    +0.000 A 
ATOM     11  C   UNL     1      -0.860  10.378  22.988  0.00  0.00    +0.000 A 
ATOM     12  C   UNL     1      -0.854  11.734  22.669  0.00  0.00    +0.000 A 
ATOM     13  O   UNL     1      -1.603  12.534  23.491  0.00  0.00    +0.000 OA
ATOM     14  C   UNL     1      -1.428  13.949  23.337  0.00  0.00    +0.000 C 
ATOM     15  C   UNL     1      -1.261  14.341  21.888  0.00  0.00    +0.000 C 
ATOM     16  C   UNL     1      -1.765  15.703  21.433  0.00  0.00    +0.000 C 
ATOM     17  C   UNL     1      -2.534  14.464  21.065  0.00  0.00    +0.000 C 
ATOM     18  H   UNL     1       3.824  15.237  20.990  0.00  0.00    +0.000 HD
ATOM     19  H   UNL     1       3.477  14.781  22.589  0.00  0.00    +0.000 HD
ENDROOT
BRANCH   9  20
ATOM     20  C   UNL     1       1.210   8.902  20.154  0.00  0.00    +0.000 A 
ATOM     21  C   UNL     1       1.525   9.207  18.829  0.00  0.00    +0.000 A 
ATOM     22  N   UNL     1       2.188   8.384  17.978  0.00  0.00    +0.000 NA
ATOM     23  C   UNL     1       2.555   7.180  18.467  0.00  0.00    +0.000 A 
ATOM     24  C   UNL     1       2.282   6.747  19.757  0.00  0.00    +0.000 A 
ATOM     25  C   UNL     1       1.614   7.629  20.605  0.00  0.00    +0.000 A 
BRANCH  24  26
ATOM     26  O   UNL     1       2.758   5.516  20.115  0.00  0.00    +0.000 OA
BRANCH  26  27
ATOM     27  C   UNL     1       1.851   4.423  19.932  0.00  0.00    +0.000 C 
BRANCH  27  28
ATOM     28  C   UNL     1       2.160   3.341  20.957  0.00  0.00    +0.000 C 
ATOM     29  F   UNL     1       1.018   2.992  21.607  0.00  0.00    +0.000 F 
ATOM     30  F   UNL     1       2.604   2.218  20.337  0.00  0.00    +0.000 F 
ENDBRANCH  27  28
ENDBRANCH  26  27
ENDBRANCH  24  26
ENDBRANCH   9  20
TORSDOF 4
ENDMDL
MODEL 8
REMARK VINA RESULT:      -7.2      3.035      8.218
REMARK  Name = 
REMARK  4 active torsions:
REMARK  status: ('A' for Active; 'I' for Inactive)
REMARK    1  A    between atoms: C_9  and  C_10
REMARK    2  A    between atoms: C_14  and  O_15
REMARK    3  A    between atoms: O_15  and  C_16
REMARK    4  A    between atoms: C_16  and  C_17
REMARK                            x       y       z     vdW  Elec       q    Type
REMARK                         _______ _______ _______ _____ _____    ______ ____
ROOT
ATOM      1  N   UNL     1       2.479   4.010  22.334  0.00  0.00    +0.000 N 
ATOM      2  C   UNL     1       2.285   3.988  21.003  0.00  0.00    +0.000 C 
ATOM      3  N   UNL     1       3.219   3.928  20.128  0.00  0.00    +0.000 NA
ATOM      4  C   UNL     1       2.522   4.137  18.836  0.00  0.00    +0.000 C 
ATOM      5  C   UNL     1       1.064   3.812  19.189  0.00  0.00    +0.000 C 
ATOM      6  O   UNL     1       0.992   4.009  20.607  0.00  0.00    +0.000 OA
ATOM      7  C   UNL     1       2.798   5.574  18.408  0.00  0.00    +0.000 A 
ATOM      8  C   UNL     1       1.960   6.644  18.789  0.00  0.00    +0.000 A 
ATOM      9  C   UNL     1       2.254   7.988  18.488  0.00  0.00    +0.000 A 
ATOM     10  C   UNL     1       3.465   8.242  17.826  0.00  0.00    +0.000 A 
ATOM     11  C   UNL     1       4.312   7.195  17.442  0.00  0.00    +0.000 A 
ATOM     12  C   UNL     1       3.976   5.871  17.715  0.00  0.00    +0.000 A 
ATOM     13  O   UNL     1       4.854   4.933  17.240  0.00  0.00    +0.000 OA
ATOM     14  C   UNL     1       4.666   3.590  17.705  0.00  0.00    +0.000 C 
ATOM     15  C   UNL     1       3.203   3.233  17.817  0.00  0.00    +0.000 C 
ATOM     16  C   UNL     1       2.779   1.789  17.582  0.00  0.00    +0.000 C 
ATOM     17  C   UNL     1       2.500   2.827  16.529  0.00  0.00    +0.000 C 
ATOM     18  H   UNL     1       1.820   3.465  22.866  0.00  0.00    +0.000 HD
ATOM     19  H   UNL     1       3.451   3.847  22.581  0.00  0.00    +0.000 HD
ENDROOT
BRANCH   9  20
ATOM     20  C   UNL     1       1.316   9.067  18.862  0.00  0.00    +0.000 A 
ATOM     21  C   UNL     1       0.341   9.547  17.987  0.00  0.00    +0.000 A 
ATOM     22  N   UNL     1      -0.570  10.506  18.287  0.00  0.00    +0.000 NA
ATOM     23  C   UNL     1      -0.506  11.030  19.531  0.00  0.00    +0.000 A 
ATOM     24  C   UNL     1       0.428  10.657  20.487  0.00  0.00    +0.000 A 
ATOM     25  C   UNL     1       1.336   9.656  20.143  0.00  0.00    +0.000 A 
BRANCH  24  26
ATOM     26  O   UNL     1       0.335  11.251  21.714  0.00  0.00    +0.000 OA
BRANCH  26  27
ATOM     27  C   UNL     1      -0.837  10.930  22.472  0.00  0.00    +0.000 C 
BRANCH  27  28
ATOM     28  C   UNL     1      -0.592   9.646  23.251  0.00  0.00    +0.000 C 
ATOM     29  F   UNL     1      -0.914   8.576  22.477  0.00  0.00    +0.000 F 
ATOM     30  F   UNL     1       0.727   9.519  23.548  0.00  0.00    +0.000 F 
ENDBRANCH  27  28
ENDBRANCH  26  27
ENDBRANCH  24  26
ENDBRANCH   9  20
TORSDOF 4
ENDMDL
MODEL 9
REMARK VINA RESULT:      -7.2      2.493      3.026
REMARK  Name = 
REMARK  4 active torsions:
REMARK  status: ('A' for Active; 'I' for Inactive)
REMARK    1  A    between atoms: C_9  and  C_10
REMARK    2  A    between atoms: C_14  and  O_15
REMARK    3  A    between atoms: O_15  and  C_16
REMARK    4  A    between atoms: C_16  and  C_17
REMARK                            x       y       z     vdW  Elec       q    Type
REMARK                         _______ _______ _______ _____ _____    ______ ____
ROOT
ATOM      1  N   UNL     1       3.118  13.689  20.223  0.00  0.00    +0.000 N 
ATOM      2  C   UNL     1       1.851  13.240  20.192  0.00  0.00    +0.000 C 
ATOM      3  N   UNL     1       1.054  13.226  21.196  0.00  0.00    +0.000 NA
ATOM      4  C   UNL     1      -0.123  12.463  20.717  0.00  0.00    +0.000 C 
ATOM      5  C   UNL     1       0.026  12.545  19.192  0.00  0.00    +0.000 C 
ATOM      6  O   UNL     1       1.421  12.801  18.987  0.00  0.00    +0.000 OA
ATOM      7  C   UNL     1      -0.025  11.066  21.320  0.00  0.00    +0.000 A 
ATOM      8  C   UNL     1       0.654  10.014  20.668  0.00  0.00    +0.000 A 
ATOM      9  C   UNL     1       0.841   8.747  21.256  0.00  0.00    +0.000 A 
ATOM     10  C   UNL     1       0.365   8.576  22.564  0.00  0.00    +0.000 A 
ATOM     11  C   UNL     1      -0.308   9.607  23.230  0.00  0.00    +0.000 A 
ATOM     12  C   UNL     1      -0.517  10.837  22.609  0.00  0.00    +0.000 A 
ATOM     13  O   UNL     1      -1.237  11.747  23.337  0.00  0.00    +0.000 OA
ATOM     14  C   UNL     1      -1.265  13.089  22.833  0.00  0.00    +0.000 C 
ATOM     15  C   UNL     1      -1.353  13.122  21.326  0.00  0.00    +0.000 C 
ATOM     16  C   UNL     1      -2.084  14.280  20.658  0.00  0.00    +0.000 C 
ATOM     17  C   UNL     1      -2.735  12.925  20.720  0.00  0.00    +0.000 C 
ATOM     18  H   UNL     1       3.401  14.211  19.410  0.00  0.00    +0.000 HD
ATOM     19  H   UNL     1       3.343  14.137  21.106  0.00  0.00    +0.000 HD
ENDROOT
BRANCH   9  20
ATOM     20  C   UNL     1       1.512   7.662  20.510  0.00  0.00    +0.000 A 
ATOM     21  C   UNL     1       1.409   6.322  20.886  0.00  0.00    +0.000 A 
ATOM     22  N   UNL     1       1.970   5.282  20.219  0.00  0.00    +0.000 NA
ATOM     23  C   UNL     1       2.685   5.589  19.115  0.00  0.00    +0.000 A 
ATOM     24  C   UNL     1       2.882   6.881  18.649  0.00  0.00    +0.000 A 
ATOM     25  C   UNL     1       2.275   7.920  19.353  0.00  0.00    +0.000 A 
BRANCH  24  26
ATOM     26  O   UNL     1       3.597   7.023  17.492  0.00  0.00    +0.000 OA
BRANCH  26  27
ATOM     27  C   UNL     1       4.272   5.848  17.030  0.00  0.00    +0.000 C 
BRANCH  27  28
ATOM     28  C   UNL     1       5.297   6.243  15.977  0.00  0.00    +0.000 C 
ATOM     29  F   UNL     1       5.653   5.147  15.256  0.00  0.00    +0.000 F 
ATOM     30  F   UNL     1       4.753   7.120  15.095  0.00  0.00    +0.000 F 
ENDBRANCH  27  28
ENDBRANCH  26  27
ENDBRANCH  24  26
ENDBRANCH   9  20
TORSDOF 4
ENDMDL
