MODEL 1
REMARK VINA RESULT:      -7.0      0.000      0.000
REMARK  Name = 
REMARK  5 active torsions:
REMARK  status: ('A' for Active; 'I' for Inactive)
REMARK    1  A    between atoms: C_1  and  C_2
REMARK    2  A    between atoms: C_2  and  C_3
REMARK    3  A    between atoms: C_3  and  C_4
REMARK    4  A    between atoms: C_4  and  S_5
REMARK    5  A    between atoms: S_5  and  C_6
REMARK                            x       y       z     vdW  Elec       q    Type
REMARK                         _______ _______ _______ _____ _____    ______ ____
ROOT
ATOM      1  C   UNL     1       4.167   3.822  17.571  0.00  0.00    +0.000 C 
ATOM      2  C   UNL     1       4.215   4.547  16.443  0.00  0.00    +0.000 C 
ATOM      3  C   UNL     1       5.233   5.591  16.216  0.00  0.00    +0.000 C 
ATOM      4  O   UNL     1       5.266   6.203  15.160  0.00  0.00    +0.000 OA
ATOM      5  C   UNL     1       6.191   5.869  17.301  0.00  0.00    +0.000 A 
ATOM      6  C   UNL     1       7.109   6.918  17.161  0.00  0.00    +0.000 A 
ATOM      7  C   UNL     1       8.022   7.189  18.182  0.00  0.00    +0.000 A 
ATOM      8  C   UNL     1       8.028   6.405  19.333  0.00  0.00    +0.000 A 
ATOM      9  C   UNL     1       7.115   5.357  19.473  0.00  0.00    +0.000 A 
ATOM     10  C   UNL     1       6.185   5.094  18.459  0.00  0.00    +0.000 A 
ATOM     11  C   UNL     1       5.200   4.007  18.635  0.00  0.00    +0.000 C 
ATOM     12  O   UNL     1       5.252   3.303  19.639  0.00  0.00    +0.000 OA
ENDROOT
BRANCH   1  13
ATOM     13  S   UNL     1       2.987   2.563  17.775  0.00  0.00    +0.000 S 
BRANCH  13  14
ATOM     14  C   UNL     1       1.474   3.504  18.196  0.00  0.00    +0.000 C 
BRANCH  14  15
ATOM     15  C   UNL     1       0.842   2.907  19.457  0.00  0.00    +0.000 C 
BRANCH  15  17
ATOM     16  C   UNL     1       2.201   2.958  21.582  0.00  0.00    +0.000 C 
ATOM     17  C   UNL     1       1.203   3.710  20.710  0.00  0.00    +0.000 C 
ENDBRANCH  15  17
ENDBRANCH  14  15
ENDBRANCH  13  14
ENDBRANCH   1  13
TORSDOF 4
ENDMDL
MODEL 2
REMARK VINA RESULT:      -6.8      2.881      5.901
REMARK  Name = 
REMARK  5 active torsions:
REMARK  status: ('A' for Active; 'I' for Inactive)
REMARK    1  A    between atoms: C_1  and  C_2
REMARK    2  A    between atoms: C_2  and  C_3
REMARK    3  A    between atoms: C_3  and  C_4
REMARK    4  A    between atoms: C_4  and  S_5
REMARK    5  A    between atoms: S_5  and  C_6
REMARK                            x       y       z     vdW  Elec       q    Type
REMARK                         _______ _______ _______ _____ _____    ______ ____
ROOT
ATOM      1  C   UNL     1       4.781   4.820  16.649  0.00  0.00    +0.000 C 
ATOM      2  C   UNL     1       4.370   3.548  16.759  0.00  0.00    +0.000 C 
ATOM      3  C   UNL     1       3.347   3.128  17.736  0.00  0.00    +0.000 C 
ATOM      4  O   UNL     1       2.973   1.967  17.780  0.00  0.00    +0.000 OA
ATOM      5  C   UNL     1       2.807   4.150  18.652  0.00  0.00    +0.000 A 
ATOM      6  C   UNL     1       1.907   3.770  19.657  0.00  0.00    +0.000 A 
ATOM      7  C   UNL     1       1.388   4.729  20.528  0.00  0.00    +0.000 A 
ATOM      8  C   UNL     1       1.754   6.066  20.387  0.00  0.00    +0.000 A 
ATOM      9  C   UNL     1       2.649   6.445  19.384  0.00  0.00    +0.000 A 
ATOM     10  C   UNL     1       3.187   5.483  18.520  0.00  0.00    +0.000 A 
ATOM     11  C   UNL     1       4.162   5.891  17.487  0.00  0.00    +0.000 C 
ATOM     12  O   UNL     1       4.437   7.081  17.355  0.00  0.00    +0.000 OA
ENDROOT
BRANCH   1  13
ATOM     13  S   UNL     1       5.947   5.283  15.447  0.00  0.00    +0.000 S 
BRANCH  13  14
ATOM     14  C   UNL     1       6.126   3.752  14.460  0.00  0.00    +0.000 C 
BRANCH  14  15
ATOM     15  C   UNL     1       6.459   4.120  13.011  0.00  0.00    +0.000 C 
BRANCH  15  17
ATOM     16  C   UNL     1       4.522   3.250  11.649  0.00  0.00    +0.000 C 
ATOM     17  C   UNL     1       5.983   3.047  12.027  0.00  0.00    +0.000 C 
ENDBRANCH  15  17
ENDBRANCH  14  15
ENDBRANCH  13  14
ENDBRANCH   1  13
TORSDOF 4
ENDMDL
MODEL 3
REMARK VINA RESULT:      -6.8      2.011      5.317
REMARK  Name = 
REMARK  5 active torsions:
REMARK  status: ('A' for Active; 'I' for Inactive)
REMARK    1  A    between atoms: C_1  and  C_2
REMARK    2  A    between atoms: C_2  and  C_3
REMARK    3  A    between atoms: C_3  and  C_4
REMARK    4  A    between atoms: C_4  and  S_5
REMARK    5  A    between atoms: S_5  and  C_6
REMARK                            x       y       z     vdW  Elec       q    Type
REMARK                         _______ _______ _______ _____ _____    ______ ____
ROOT
ATOM      1  C   UNL     1       4.414   4.492  16.886  0.00  0.00    +0.000 C 
ATOM      2  C   UNL     1       4.105   5.742  17.260  0.00  0.00    +0.000 C 
ATOM      3  C   UNL     1       3.197   6.028  18.388  0.00  0.00    +0.000 C 
ATOM      4  O   UNL     1       2.969   7.180  18.722  0.00  0.00    +0.000 OA
ATOM      5  C   UNL     1       2.576   4.885  19.082  0.00  0.00    +0.000 A 
ATOM      6  C   UNL     1       1.633   5.120  20.092  0.00  0.00    +0.000 A 
ATOM      7  C   UNL     1       1.040   4.044  20.756  0.00  0.00    +0.000 A 
ATOM      8  C   UNL     1       1.398   2.739  20.424  0.00  0.00    +0.000 A 
ATOM      9  C   UNL     1       2.338   2.506  19.418  0.00  0.00    +0.000 A 
ATOM     10  C   UNL     1       2.922   3.582  18.736  0.00  0.00    +0.000 A 
ATOM     11  C   UNL     1       3.888   3.320  17.649  0.00  0.00    +0.000 C 
ATOM     12  O   UNL     1       4.219   2.163  17.402  0.00  0.00    +0.000 OA
ENDROOT
BRANCH   1  13
ATOM     13  S   UNL     1       5.532   4.198  15.588  0.00  0.00    +0.000 S 
BRANCH  13  14
ATOM     14  C   UNL     1       7.027   5.094  16.144  0.00  0.00    +0.000 C 
BRANCH  14  15
ATOM     15  C   UNL     1       7.430   4.594  17.535  0.00  0.00    +0.000 C 
BRANCH  15  17
ATOM     16  C   UNL     1       7.561   7.098  17.810  0.00  0.00    +0.000 C 
ATOM     17  C   UNL     1       7.655   5.751  18.513  0.00  0.00    +0.000 C 
ENDBRANCH  15  17
ENDBRANCH  14  15
ENDBRANCH  13  14
ENDBRANCH   1  13
TORSDOF 4
ENDMDL
MODEL 4
REMARK VINA RESULT:      -6.7      2.132      5.335
REMARK  Name = 
REMARK  5 active torsions:
REMARK  status: ('A' for Active; 'I' for Inactive)
REMARK    1  A    between atoms: C_1  and  C_2
REMARK    2  A    between atoms: C_2  and  C_3
REMARK    3  A    between atoms: C_3  and  C_4
REMARK    4  A    between atoms: C_4  and  S_5
REMARK    5  A    between atoms: S_5  and  C_6
REMARK                            x       y       z     vdW  Elec       q    Type
REMARK                         _______ _______ _______ _____ _____    ______ ____
ROOT
ATOM      1  C   UNL     1       4.470   4.976  16.786  0.00  0.00    +0.000 C 
ATOM      2  C   UNL     1       4.163   3.671  16.735  0.00  0.00    +0.000 C 
ATOM      3  C   UNL     1       3.210   3.046  17.673  0.00  0.00    +0.000 C 
ATOM      4  O   UNL     1       2.928   1.863  17.571  0.00  0.00    +0.000 OA
ATOM      5  C   UNL     1       2.626   3.892  18.730  0.00  0.00    +0.000 A 
ATOM      6  C   UNL     1       1.795   3.312  19.698  0.00  0.00    +0.000 A 
ATOM      7  C   UNL     1       1.235   4.105  20.702  0.00  0.00    +0.000 A 
ATOM      8  C   UNL     1       1.492   5.474  20.731  0.00  0.00    +0.000 A 
ATOM      9  C   UNL     1       2.319   6.052  19.766  0.00  0.00    +0.000 A 
ATOM     10  C   UNL     1       2.899   5.257  18.767  0.00  0.00    +0.000 A 
ATOM     11  C   UNL     1       3.801   5.875  17.774  0.00  0.00    +0.000 C 
ATOM     12  O   UNL     1       3.979   7.090  17.795  0.00  0.00    +0.000 OA
ENDROOT
BRANCH   1  13
ATOM     13  S   UNL     1       5.554   5.685  15.626  0.00  0.00    +0.000 S 
BRANCH  13  14
ATOM     14  C   UNL     1       7.025   4.605  15.748  0.00  0.00    +0.000 C 
BRANCH  14  15
ATOM     15  C   UNL     1       7.471   4.520  17.211  0.00  0.00    +0.000 C 
BRANCH  15  17
ATOM     16  C   UNL     1       7.449   5.809  19.379  0.00  0.00    +0.000 C 
ATOM     17  C   UNL     1       7.551   5.904  17.863  0.00  0.00    +0.000 C 
ENDBRANCH  15  17
ENDBRANCH  14  15
ENDBRANCH  13  14
ENDBRANCH   1  13
TORSDOF 4
ENDMDL
MODEL 5
REMARK VINA RESULT:      -6.7      2.400      5.559
REMARK  Name = 
REMARK  5 active torsions:
REMARK  status: ('A' for Active; 'I' for Inactive)
REMARK    1  A    between atoms: C_1  and  C_2
REMARK    2  A    between atoms: C_2  and  C_3
REMARK    3  A    between atoms: C_3  and  C_4
REMARK    4  A    between atoms: C_4  and  S_5
REMARK    5  A    between atoms: S_5  and  C_6
REMARK                            x       y       z     vdW  Elec       q    Type
REMARK                         _______ _______ _______ _____ _____    ______ ____
ROOT
ATOM      1  C   UNL     1       3.954   5.991  17.345  0.00  0.00    +0.000 C 
ATOM      2  C   UNL     1       3.424   6.891  18.187  0.00  0.00    +0.000 C 
ATOM      3  C   UNL     1       2.564   6.501  19.322  0.00  0.00    +0.000 C 
ATOM      4  O   UNL     1       2.130   7.346  20.088  0.00  0.00    +0.000 OA
ATOM      5  C   UNL     1       2.247   5.071  19.488  0.00  0.00    +0.000 A 
ATOM      6  C   UNL     1       1.356   4.673  20.494  0.00  0.00    +0.000 A 
ATOM      7  C   UNL     1       1.050   3.321  20.661  0.00  0.00    +0.000 A 
ATOM      8  C   UNL     1       1.642   2.367  19.836  0.00  0.00    +0.000 A 
ATOM      9  C   UNL     1       2.532   2.763  18.835  0.00  0.00    +0.000 A 
ATOM     10  C   UNL     1       2.827   4.121  18.651  0.00  0.00    +0.000 A 
ATOM     11  C   UNL     1       3.741   4.529  17.564  0.00  0.00    +0.000 C 
ATOM     12  O   UNL     1       4.283   3.668  16.877  0.00  0.00    +0.000 OA
ENDROOT
BRANCH   1  13
ATOM     13  S   UNL     1       5.007   6.488  16.054  0.00  0.00    +0.000 S 
BRANCH  13  14
ATOM     14  C   UNL     1       6.631   6.601  16.890  0.00  0.00    +0.000 C 
BRANCH  14  15
ATOM     15  C   UNL     1       7.347   5.251  16.790  0.00  0.00    +0.000 C 
BRANCH  15  17
ATOM     16  C   UNL     1       7.740   5.766  19.228  0.00  0.00    +0.000 C 
ATOM     17  C   UNL     1       7.665   4.672  18.172  0.00  0.00    +0.000 C 
ENDBRANCH  15  17
ENDBRANCH  14  15
ENDBRANCH  13  14
ENDBRANCH   1  13
TORSDOF 4
ENDMDL
MODEL 6
REMARK VINA RESULT:      -6.6      2.549      5.923
REMARK  Name = 
REMARK  5 active torsions:
REMARK  status: ('A' for Active; 'I' for Inactive)
REMARK    1  A    between atoms: C_1  and  C_2
REMARK    2  A    between atoms: C_2  and  C_3
REMARK    3  A    between atoms: C_3  and  C_4
REMARK    4  A    between atoms: C_4  and  S_5
REMARK    5  A    between atoms: S_5  and  C_6
REMARK                            x       y       z     vdW  Elec       q    Type
REMARK                         _______ _______ _______ _____ _____    ______ ____
ROOT
ATOM      1  C   UNL     1       3.973   5.932  17.346  0.00  0.00    +0.000 C 
ATOM      2  C   UNL     1       3.492   6.788  18.260  0.00  0.00    +0.000 C 
ATOM      3  C   UNL     1       2.581   6.362  19.340  0.00  0.00    +0.000 C 
ATOM      4  O   UNL     1       2.194   7.164  20.175  0.00  0.00    +0.000 OA
ATOM      5  C   UNL     1       2.153   4.951  19.367  0.00  0.00    +0.000 A 
ATOM      6  C   UNL     1       1.213   4.532  20.317  0.00  0.00    +0.000 A 
ATOM      7  C   UNL     1       0.803   3.198  20.352  0.00  0.00    +0.000 A 
ATOM      8  C   UNL     1       1.341   2.282  19.451  0.00  0.00    +0.000 A 
ATOM      9  C   UNL     1       2.280   2.699  18.505  0.00  0.00    +0.000 A 
ATOM     10  C   UNL     1       2.680   4.041  18.454  0.00  0.00    +0.000 A 
ATOM     11  C   UNL     1       3.646   4.476  17.424  0.00  0.00    +0.000 C 
ATOM     12  O   UNL     1       4.138   3.643  16.668  0.00  0.00    +0.000 OA
ENDROOT
BRANCH   1  13
ATOM     13  S   UNL     1       5.089   6.463  16.124  0.00  0.00    +0.000 S 
BRANCH  13  14
ATOM     14  C   UNL     1       6.695   5.871  16.771  0.00  0.00    +0.000 C 
BRANCH  14  15
ATOM     15  C   UNL     1       7.181   4.694  15.921  0.00  0.00    +0.000 C 
BRANCH  15  17
ATOM     16  C   UNL     1       6.183   3.800  13.783  0.00  0.00    +0.000 C 
ATOM     17  C   UNL     1       6.960   4.941  14.426  0.00  0.00    +0.000 C 
ENDBRANCH  15  17
ENDBRANCH  14  15
ENDBRANCH  13  14
ENDBRANCH   1  13
TORSDOF 4
ENDMDL
MODEL 7
REMARK VINA RESULT:      -6.6      1.926      5.663
REMARK  Name = 
REMARK  5 active torsions:
REMARK  status: ('A' for Active; 'I' for Inactive)
REMARK    1  A    between atoms: C_1  and  C_2
REMARK    2  A    between atoms: C_2  and  C_3
REMARK    3  A    between atoms: C_3  and  C_4
REMARK    4  A    between atoms: C_4  and  S_5
REMARK    5  A    between atoms: S_5  and  C_6
REMARK                            x       y       z     vdW  Elec       q    Type
REMARK                         _______ _______ _______ _____ _____    ______ ____
ROOT
ATOM      1  C   UNL     1       4.487   4.053  17.488  0.00  0.00    +0.000 C 
ATOM      2  C   UNL     1       3.284   4.203  16.913  0.00  0.00    +0.000 C 
ATOM      3  C   UNL     1       2.023   3.976  17.647  0.00  0.00    +0.000 C 
ATOM      4  O   UNL     1       0.947   4.159  17.100  0.00  0.00    +0.000 OA
ATOM      5  C   UNL     1       2.112   3.517  19.045  0.00  0.00    +0.000 A 
ATOM      6  C   UNL     1       0.939   3.197  19.742  0.00  0.00    +0.000 A 
ATOM      7  C   UNL     1       1.011   2.763  21.068  0.00  0.00    +0.000 A 
ATOM      8  C   UNL     1       2.249   2.663  21.700  0.00  0.00    +0.000 A 
ATOM      9  C   UNL     1       3.417   2.984  21.006  0.00  0.00    +0.000 A 
ATOM     10  C   UNL     1       3.351   3.402  19.670  0.00  0.00    +0.000 A 
ATOM     11  C   UNL     1       4.597   3.702  18.936  0.00  0.00    +0.000 C 
ATOM     12  O   UNL     1       5.673   3.648  19.526  0.00  0.00    +0.000 OA
ENDROOT
BRANCH   1  13
ATOM     13  S   UNL     1       5.946   4.385  16.604  0.00  0.00    +0.000 S 
BRANCH  13  14
ATOM     14  C   UNL     1       6.003   6.214  16.608  0.00  0.00    +0.000 C 
BRANCH  14  15
ATOM     15  C   UNL     1       7.293   6.680  17.289  0.00  0.00    +0.000 C 
BRANCH  15  17
ATOM     16  C   UNL     1       8.537   8.623  18.310  0.00  0.00    +0.000 C 
ATOM     17  C   UNL     1       7.261   8.177  17.608  0.00  0.00    +0.000 C 
ENDBRANCH  15  17
ENDBRANCH  14  15
ENDBRANCH  13  14
ENDBRANCH   1  13
TORSDOF 4
ENDMDL
MODEL 8
REMARK VINA RESULT:      -6.6      2.018      5.801
REMARK  Name = 
REMARK  5 active torsions:
REMARK  status: ('A' for Active; 'I' for Inactive)
REMARK    1  A    between atoms: C_1  and  C_2
REMARK    2  A    between atoms: C_2  and  C_3
REMARK    3  A    between atoms: C_3  and  C_4
REMARK    4  A    between atoms: C_4  and  S_5
REMARK    5  A    between atoms: S_5  and  C_6
REMARK                            x       y       z     vdW  Elec       q    Type
REMARK                         _______ _______ _______ _____ _____    ______ ____
ROOT
ATOM      1  C   UNL     1       4.915   4.519  17.410  0.00  0.00    +0.000 C 
ATOM      2  C   UNL     1       4.643   3.210  17.288  0.00  0.00    +0.000 C 
ATOM      3  C   UNL     1       3.518   2.568  17.994  0.00  0.00    +0.000 C 
ATOM      4  O   UNL     1       3.280   1.382  17.828  0.00  0.00    +0.000 OA
ATOM      5  C   UNL     1       2.708   3.399  18.903  0.00  0.00    +0.000 A 
ATOM      6  C   UNL     1       1.694   2.803  19.665  0.00  0.00    +0.000 A 
ATOM      7  C   UNL     1       0.920   3.581  20.527  0.00  0.00    +0.000 A 
ATOM      8  C   UNL     1       1.146   4.953  20.618  0.00  0.00    +0.000 A 
ATOM      9  C   UNL     1       2.156   5.547  19.858  0.00  0.00    +0.000 A 
ATOM     10  C   UNL     1       2.948   4.767  19.005  0.00  0.00    +0.000 A 
ATOM     11  C   UNL     1       4.036   5.402  18.234  0.00  0.00    +0.000 C 
ATOM     12  O   UNL     1       4.191   6.618  18.299  0.00  0.00    +0.000 OA
ENDROOT
BRANCH   1  13
ATOM     13  S   UNL     1       6.216   5.248  16.517  0.00  0.00    +0.000 S 
BRANCH  13  14
ATOM     14  C   UNL     1       7.618   5.124  17.686  0.00  0.00    +0.000 C 
BRANCH  14  15
ATOM     15  C   UNL     1       7.790   6.460  18.414  0.00  0.00    +0.000 C 
BRANCH  15  17
ATOM     16  C   UNL     1       8.219   8.910  17.993  0.00  0.00    +0.000 C 
ATOM     17  C   UNL     1       7.527   7.651  17.487  0.00  0.00    +0.000 C 
ENDBRANCH  15  17
ENDBRANCH  14  15
ENDBRANCH  13  14
ENDBRANCH   1  13
TORSDOF 4
ENDMDL
MODEL 9
REMARK VINA RESULT:      -6.6      2.363      6.175
REMARK  Name = 
REMARK  5 active torsions:
REMARK  status: ('A' for Active; 'I' for Inactive)
REMARK    1  A    between atoms: C_1  and  C_2
REMARK    2  A    between atoms: C_2  and  C_3
REMARK    3  A    between atoms: C_3  and  C_4
REMARK    4  A    between atoms: C_4  and  S_5
REMARK    5  A    between atoms: S_5  and  C_6
REMARK                            x       y       z     vdW  Elec       q    Type
REMARK                         _______ _______ _______ _____ _____    ______ ____
ROOT
ATOM      1  C   UNL     1       4.035   5.876  17.505  0.00  0.00    +0.000 C 
ATOM      2  C   UNL     1       3.449   6.657  18.425  0.00  0.00    +0.000 C 
ATOM      3  C   UNL     1       2.452   6.138  19.382  0.00  0.00    +0.000 C 
ATOM      4  O   UNL     1       1.968   6.872  20.230  0.00  0.00    +0.000 OA
ATOM      5  C   UNL     1       2.060   4.721  19.272  0.00  0.00    +0.000 A 
ATOM      6  C   UNL     1       1.046   4.219  20.098  0.00  0.00    +0.000 A 
ATOM      7  C   UNL     1       0.669   2.878  20.003  0.00  0.00    +0.000 A 
ATOM      8  C   UNL     1       1.313   2.037  19.097  0.00  0.00    +0.000 A 
ATOM      9  C   UNL     1       2.325   2.538  18.274  0.00  0.00    +0.000 A 
ATOM     10  C   UNL     1       2.693   3.887  18.353  0.00  0.00    +0.000 A 
ATOM     11  C   UNL     1       3.739   4.413  17.452  0.00  0.00    +0.000 C 
ATOM     12  O   UNL     1       4.321   3.644  16.691  0.00  0.00    +0.000 OA
ENDROOT
BRANCH   1  13
ATOM     13  S   UNL     1       5.246   6.514  16.433  0.00  0.00    +0.000 S 
BRANCH  13  14
ATOM     14  C   UNL     1       6.767   6.404  17.445  0.00  0.00    +0.000 C 
BRANCH  14  15
ATOM     15  C   UNL     1       7.667   7.604  17.137  0.00  0.00    +0.000 C 
BRANCH  15  17
ATOM     16  C   UNL     1       8.541   9.673  18.284  0.00  0.00    +0.000 C 
ATOM     17  C   UNL     1       8.310   8.173  18.406  0.00  0.00    +0.000 C 
ENDBRANCH  15  17
ENDBRANCH  14  15
ENDBRANCH  13  14
ENDBRANCH   1  13
TORSDOF 4
ENDMDL
