MODEL 1
REMARK VINA RESULT:      -8.5      0.000      0.000
REMARK  Name = 
REMARK  10 active torsions:
REMARK  status: ('A' for Active; 'I' for Inactive)
REMARK    1  A    between atoms: C_1  and  O_2
REMARK    2  A    between atoms: O_2  and  C_3
REMARK    3  A    between atoms: C_6  and  C_7
REMARK    4  A    between atoms: C_7  and  N_8
REMARK    5  A    between atoms: C_7  and  C_27
REMARK    6  A    between atoms: C_9  and  C_11
REMARK    7  A    between atoms: N_19  and  C_20
REMARK    8  A    between atoms: C_20  and  C_21
REMARK    9  A    between atoms: C_21  and  C_22
REMARK   10  A    between atoms: N_30  and  C_31
REMARK                            x       y       z     vdW  Elec       q    Type
REMARK                         _______ _______ _______ _____ _____    ______ ____
ROOT
ATOM      1  N   UNL     1       0.756   9.731  19.504  0.00  0.00    +0.000 N 
ATOM      2  C   UNL     1       1.249   8.806  20.386  0.00  0.00    +0.000 C 
ATOM      3  O   UNL     1       1.105   8.941  21.600  0.00  0.00    +0.000 OA
ATOM      4  H   UNL     1       0.743   9.547  18.511  0.00  0.00    +0.000 HD
ENDROOT
BRANCH   2   5
ATOM      5  C   UNL     1       1.868   7.540  19.861  0.00  0.00    +0.000 A 
ATOM      6  C   UNL     1       1.756   6.477  20.753  0.00  0.00    +0.000 A 
ATOM      7  C   UNL     1       1.878   5.205  20.263  0.00  0.00    +0.000 A 
ATOM      8  F   UNL     1       1.653   4.165  21.082  0.00  0.00    +0.000 F 
ATOM      9  C   UNL     1       2.303   4.979  18.954  0.00  0.00    +0.000 A 
ATOM     10  C   UNL     1       2.148   3.767  18.325  0.00  0.00    +0.000 A 
ATOM     11  N   UNL     1       2.928   3.374  17.312  0.00  0.00    +0.000 NA
ATOM     12  C   UNL     1       3.892   4.226  16.993  0.00  0.00    +0.000 A 
ATOM     13  N   UNL     1       5.115   3.527  16.967  0.00  0.00    +0.000 N 
ATOM     14  N   UNL     1       3.809   5.551  17.242  0.00  0.00    +0.000 NA
ATOM     15  C   UNL     1       2.915   5.967  18.217  0.00  0.00    +0.000 A 
ATOM     16  C   UNL     1       2.507   7.290  18.613  0.00  0.00    +0.000 A 
ATOM     17  H   UNL     1       4.774   2.571  17.111  0.00  0.00    +0.000 HD
BRANCH  13  18
ATOM     18  C   UNL     1       6.039   3.524  15.846  0.00  0.00    +0.000 C 
BRANCH  18  19
ATOM     19  C   UNL     1       7.221   4.470  16.020  0.00  0.00    +0.000 C 
BRANCH  19  20
ATOM     20  C   UNL     1       7.543   4.633  17.440  0.00  0.00    +0.000 C 
ATOM     21  N   UNL     1       7.794   4.781  18.574  0.00  0.00    +0.000 NA
ENDBRANCH  19  20
ENDBRANCH  18  19
ENDBRANCH  13  18
ENDBRANCH   2   5
BRANCH   1  22
ATOM     22  C   UNL     1       0.012  10.914  19.974  0.00  0.00    +0.000 C 
BRANCH  22  26
ATOM     23  C   UNL     1       2.474  14.513  19.909  0.00  0.00    +0.000 A 
ATOM     24  C   UNL     1       2.331  13.767  18.731  0.00  0.00    +0.000 A 
ATOM     25  C   UNL     1       1.527  12.613  18.695  0.00  0.00    +0.000 A 
ATOM     26  C   UNL     1       0.870  12.162  19.849  0.00  0.00    +0.000 A 
ATOM     27  C   UNL     1       0.936  12.995  20.984  0.00  0.00    +0.000 A 
ATOM     28  C   UNL     1       1.735  14.124  21.019  0.00  0.00    +0.000 A 
ATOM     29  F   UNL     1       1.764  14.815  22.169  0.00  0.00    +0.000 F 
BRANCH  23  31
ATOM     30  C   UNL     1       3.975  15.773  18.578  0.00  0.00    +0.000 C 
ATOM     31  O   UNL     1       3.341  15.572  19.839  0.00  0.00    +0.000 OA
ENDBRANCH  23  31
ENDBRANCH  22  26
BRANCH  22  32
ATOM     32  C   UNL     1      -1.224  11.012  19.129  0.00  0.00    +0.000 A 
ATOM     33  C   UNL     1      -2.338  11.880  19.257  0.00  0.00    +0.000 A 
ATOM     34  N   UNL     1      -3.156  11.838  18.202  0.00  0.00    +0.000 NA
ATOM     35  N   UNL     1      -2.557  10.966  17.374  0.00  0.00    +0.000 N 
ATOM     36  C   UNL     1      -2.941  10.902  15.982  0.00  0.00    +0.000 C 
ATOM     37  C   UNL     1      -1.475  10.350  17.937  0.00  0.00    +0.000 A 
ENDBRANCH  22  32
ENDBRANCH   1  22
TORSDOF 8
ENDMDL
MODEL 2
REMARK VINA RESULT:      -8.5      0.943      1.234
REMARK  Name = 
REMARK  10 active torsions:
REMARK  status: ('A' for Active; 'I' for Inactive)
REMARK    1  A    between atoms: C_1  and  O_2
REMARK    2  A    between atoms: O_2  and  C_3
REMARK    3  A    between atoms: C_6  and  C_7
REMARK    4  A    between atoms: C_7  and  N_8
REMARK    5  A    between atoms: C_7  and  C_27
REMARK    6  A    between atoms: C_9  and  C_11
REMARK    7  A    between atoms: N_19  and  C_20
REMARK    8  A    between atoms: C_20  and  C_21
REMARK    9  A    between atoms: C_21  and  C_22
REMARK   10  A    between atoms: N_30  and  C_31
REMARK                            x       y       z     vdW  Elec       q    Type
REMARK                         _______ _______ _______ _____ _____    ______ ____
ROOT
ATOM      1  N   UNL     1       0.966   9.795  19.803  0.00  0.00    +0.000 N 
ATOM      2  C   UNL     1       1.192   8.711  20.611  0.00  0.00    +0.000 C 
ATOM      3  O   UNL     1       0.799   8.691  21.776  0.00  0.00    +0.000 OA
ATOM      4  H   UNL     1       1.155   9.753  18.812  0.00  0.00    +0.000 HD
ENDROOT
BRANCH   2   5
ATOM      5  C   UNL     1       1.821   7.475  20.030  0.00  0.00    +0.000 A 
ATOM      6  C   UNL     1       1.704   6.369  20.867  0.00  0.00    +0.000 A 
ATOM      7  C   UNL     1       1.836   5.123  20.316  0.00  0.00    +0.000 A 
ATOM      8  F   UNL     1       1.606   4.043  21.079  0.00  0.00    +0.000 F 
ATOM      9  C   UNL     1       2.276   4.964  19.003  0.00  0.00    +0.000 A 
ATOM     10  C   UNL     1       2.132   3.784  18.313  0.00  0.00    +0.000 A 
ATOM     11  N   UNL     1       2.924   3.444  17.289  0.00  0.00    +0.000 NA
ATOM     12  C   UNL     1       3.889   4.314  17.024  0.00  0.00    +0.000 A 
ATOM     13  N   UNL     1       5.115   3.621  16.977  0.00  0.00    +0.000 N 
ATOM     14  N   UNL     1       3.798   5.625  17.338  0.00  0.00    +0.000 NA
ATOM     15  C   UNL     1       2.892   5.989  18.322  0.00  0.00    +0.000 A 
ATOM     16  C   UNL     1       2.475   7.289  18.779  0.00  0.00    +0.000 A 
ATOM     17  H   UNL     1       4.775   2.659  17.070  0.00  0.00    +0.000 HD
BRANCH  13  18
ATOM     18  C   UNL     1       6.050   3.677  15.868  0.00  0.00    +0.000 C 
BRANCH  18  19
ATOM     19  C   UNL     1       7.258   4.570  16.125  0.00  0.00    +0.000 C 
BRANCH  19  20
ATOM     20  C   UNL     1       7.526   4.670  17.563  0.00  0.00    +0.000 C 
ATOM     21  N   UNL     1       7.739   4.768  18.709  0.00  0.00    +0.000 NA
ENDBRANCH  19  20
ENDBRANCH  18  19
ENDBRANCH  13  18
ENDBRANCH   2   5
BRANCH   1  22
ATOM     22  C   UNL     1       0.221  10.970  20.291  0.00  0.00    +0.000 C 
BRANCH  22  26
ATOM     23  C   UNL     1       2.721  14.495  19.710  0.00  0.00    +0.000 A 
ATOM     24  C   UNL     1       1.994  14.368  20.901  0.00  0.00    +0.000 A 
ATOM     25  C   UNL     1       1.193  13.237  21.146  0.00  0.00    +0.000 A 
ATOM     26  C   UNL     1       1.079  12.220  20.188  0.00  0.00    +0.000 A 
ATOM     27  C   UNL     1       1.913  12.318  19.056  0.00  0.00    +0.000 A 
ATOM     28  C   UNL     1       2.692  13.435  18.813  0.00  0.00    +0.000 A 
ATOM     29  F   UNL     1       3.406  13.445  17.677  0.00  0.00    +0.000 F 
BRANCH  23  31
ATOM     30  C   UNL     1       2.611  16.814  19.234  0.00  0.00    +0.000 C 
ATOM     31  O   UNL     1       3.404  15.674  19.555  0.00  0.00    +0.000 OA
ENDBRANCH  23  31
ENDBRANCH  22  26
BRANCH  22  32
ATOM     32  C   UNL     1      -1.014  11.082  19.446  0.00  0.00    +0.000 A 
ATOM     33  C   UNL     1      -2.108  11.976  19.563  0.00  0.00    +0.000 A 
ATOM     34  N   UNL     1      -2.929  11.935  18.510  0.00  0.00    +0.000 NA
ATOM     35  N   UNL     1      -2.350  11.036  17.694  0.00  0.00    +0.000 N 
ATOM     36  C   UNL     1      -2.738  10.959  16.305  0.00  0.00    +0.000 C 
ATOM     37  C   UNL     1      -1.282  10.406  18.266  0.00  0.00    +0.000 A 
ENDBRANCH  22  32
ENDBRANCH   1  22
TORSDOF 8
ENDMDL
MODEL 3
REMARK VINA RESULT:      -8.5      1.491      1.759
REMARK  Name = 
REMARK  10 active torsions:
REMARK  status: ('A' for Active; 'I' for Inactive)
REMARK    1  A    between atoms: C_1  and  O_2
REMARK    2  A    between atoms: O_2  and  C_3
REMARK    3  A    between atoms: C_6  and  C_7
REMARK    4  A    between atoms: C_7  and  N_8
REMARK    5  A    between atoms: C_7  and  C_27
REMARK    6  A    between atoms: C_9  and  C_11
REMARK    7  A    between atoms: N_19  and  C_20
REMARK    8  A    between atoms: C_20  and  C_21
REMARK    9  A    between atoms: C_21  and  C_22
REMARK   10  A    between atoms: N_30  and  C_31
REMARK                            x       y       z     vdW  Elec       q    Type
REMARK                         _______ _______ _______ _____ _____    ______ ____
ROOT
ATOM      1  N   UNL     1       0.666   9.870  19.230  0.00  0.00    +0.000 N 
ATOM      2  C   UNL     1       1.053   8.940  20.160  0.00  0.00    +0.000 C 
ATOM      3  O   UNL     1       0.665   9.002  21.324  0.00  0.00    +0.000 OA
ATOM      4  H   UNL     1       0.861   9.736  18.249  0.00  0.00    +0.000 HD
ENDROOT
BRANCH   2   5
ATOM      5  C   UNL     1       1.863   7.751  19.722  0.00  0.00    +0.000 A 
ATOM      6  C   UNL     1       1.805   6.697  20.630  0.00  0.00    +0.000 A 
ATOM      7  C   UNL     1       2.122   5.442  20.186  0.00  0.00    +0.000 A 
ATOM      8  F   UNL     1       1.955   4.396  21.011  0.00  0.00    +0.000 F 
ATOM      9  C   UNL     1       2.684   5.249  18.925  0.00  0.00    +0.000 A 
ATOM     10  C   UNL     1       2.732   4.017  18.318  0.00  0.00    +0.000 A 
ATOM     11  N   UNL     1       3.639   3.707  17.384  0.00  0.00    +0.000 NA
ATOM     12  C   UNL     1       4.517   4.666  17.125  0.00  0.00    +0.000 A 
ATOM     13  N   UNL     1       5.814   4.122  17.222  0.00  0.00    +0.000 N 
ATOM     14  N   UNL     1       4.252   5.974  17.331  0.00  0.00    +0.000 NA
ATOM     15  C   UNL     1       3.233   6.293  18.215  0.00  0.00    +0.000 A 
ATOM     16  C   UNL     1       2.635   7.561  18.540  0.00  0.00    +0.000 A 
ATOM     17  H   UNL     1       5.579   3.134  17.362  0.00  0.00    +0.000 HD
BRANCH  13  18
ATOM     18  C   UNL     1       6.824   4.215  16.184  0.00  0.00    +0.000 C 
BRANCH  18  19
ATOM     19  C   UNL     1       6.256   4.235  14.770  0.00  0.00    +0.000 C 
BRANCH  19  20
ATOM     20  C   UNL     1       7.171   4.928  13.858  0.00  0.00    +0.000 C 
ATOM     21  N   UNL     1       7.893   5.497  13.135  0.00  0.00    +0.000 NA
ENDBRANCH  19  20
ENDBRANCH  18  19
ENDBRANCH  13  18
ENDBRANCH   2   5
BRANCH   1  22
ATOM     22  C   UNL     1      -0.250  10.970  19.585  0.00  0.00    +0.000 C 
BRANCH  22  26
ATOM     23  C   UNL     1       1.974  14.687  19.088  0.00  0.00    +0.000 A 
ATOM     24  C   UNL     1       0.785  14.702  19.830  0.00  0.00    +0.000 A 
ATOM     25  C   UNL     1       0.046  13.523  20.041  0.00  0.00    +0.000 A 
ATOM     26  C   UNL     1       0.465  12.306  19.485  0.00  0.00    +0.000 A 
ATOM     27  C   UNL     1       1.722  12.300  18.846  0.00  0.00    +0.000 A 
ATOM     28  C   UNL     1       2.443  13.462  18.633  0.00  0.00    +0.000 A 
ATOM     29  F   UNL     1       3.602  13.346  17.967  0.00  0.00    +0.000 F 
BRANCH  23  31
ATOM     30  C   UNL     1       1.755  16.893  18.251  0.00  0.00    +0.000 C 
ATOM     31  O   UNL     1       2.564  15.909  18.890  0.00  0.00    +0.000 OA
ENDBRANCH  23  31
ENDBRANCH  22  26
BRANCH  22  32
ATOM     32  C   UNL     1      -1.407  10.894  18.633  0.00  0.00    +0.000 A 
ATOM     33  C   UNL     1      -2.606  11.651  18.608  0.00  0.00    +0.000 A 
ATOM     34  N   UNL     1      -3.316  11.466  17.492  0.00  0.00    +0.000 NA
ATOM     35  N   UNL     1      -2.563  10.612  16.777  0.00  0.00    +0.000 N 
ATOM     36  C   UNL     1      -2.810  10.430  15.365  0.00  0.00    +0.000 C 
ATOM     37  C   UNL     1      -1.484  10.142  17.471  0.00  0.00    +0.000 A 
ENDBRANCH  22  32
ENDBRANCH   1  22
TORSDOF 8
ENDMDL
MODEL 4
REMARK VINA RESULT:      -8.3      1.234      1.563
REMARK  Name = 
REMARK  10 active torsions:
REMARK  status: ('A' for Active; 'I' for Inactive)
REMARK    1  A    between atoms: C_1  and  O_2
REMARK    2  A    between atoms: O_2  and  C_3
REMARK    3  A    between atoms: C_6  and  C_7
REMARK    4  A    between atoms: C_7  and  N_8
REMARK    5  A    between atoms: C_7  and  C_27
REMARK    6  A    between atoms: C_9  and  C_11
REMARK    7  A    between atoms: N_19  and  C_20
REMARK    8  A    between atoms: C_20  and  C_21
REMARK    9  A    between atoms: C_21  and  C_22
REMARK   10  A    between atoms: N_30  and  C_31
REMARK                            x       y       z     vdW  Elec       q    Type
REMARK                         _______ _______ _______ _____ _____    ______ ____
ROOT
ATOM      1  N   UNL     1       0.846  10.256  19.270  0.00  0.00    +0.000 N 
ATOM      2  C   UNL     1       0.996   9.240  20.178  0.00  0.00    +0.000 C 
ATOM      3  O   UNL     1       0.479   9.298  21.292  0.00  0.00    +0.000 OA
ATOM      4  H   UNL     1       1.141  10.145  18.311  0.00  0.00    +0.000 HD
ENDROOT
BRANCH   2   5
ATOM      5  C   UNL     1       1.697   7.977  19.763  0.00  0.00    +0.000 A 
ATOM      6  C   UNL     1       1.670   6.997  20.752  0.00  0.00    +0.000 A 
ATOM      7  C   UNL     1       1.877   5.696  20.381  0.00  0.00    +0.000 A 
ATOM      8  F   UNL     1       1.735   4.725  21.296  0.00  0.00    +0.000 F 
ATOM      9  C   UNL     1       2.305   5.379  19.092  0.00  0.00    +0.000 A 
ATOM     10  C   UNL     1       2.231   4.105  18.582  0.00  0.00    +0.000 A 
ATOM     11  N   UNL     1       3.026   3.674  17.597  0.00  0.00    +0.000 NA
ATOM     12  C   UNL     1       3.925   4.557  17.184  0.00  0.00    +0.000 A 
ATOM     13  N   UNL     1       5.194   3.946  17.205  0.00  0.00    +0.000 N 
ATOM     14  N   UNL     1       3.750   5.890  17.310  0.00  0.00    +0.000 NA
ATOM     15  C   UNL     1       2.838   6.333  18.256  0.00  0.00    +0.000 A 
ATOM     16  C   UNL     1       2.341   7.655  18.534  0.00  0.00    +0.000 A 
ATOM     17  H   UNL     1       4.923   2.986  17.443  0.00  0.00    +0.000 HD
BRANCH  13  18
ATOM     18  C   UNL     1       6.105   3.902  16.074  0.00  0.00    +0.000 C 
BRANCH  18  19
ATOM     19  C   UNL     1       7.474   4.506  16.362  0.00  0.00    +0.000 C 
BRANCH  19  20
ATOM     20  C   UNL     1       7.629   4.766  17.797  0.00  0.00    +0.000 C 
ATOM     21  N   UNL     1       7.762   4.989  18.938  0.00  0.00    +0.000 NA
ENDBRANCH  19  20
ENDBRANCH  18  19
ENDBRANCH  13  18
ENDBRANCH   2   5
BRANCH   1  22
ATOM     22  C   UNL     1       0.039  11.450  19.586  0.00  0.00    +0.000 C 
BRANCH  22  26
ATOM     23  C   UNL     1       2.426  14.909  18.425  0.00  0.00    +0.000 A 
ATOM     24  C   UNL     1       1.174  15.117  19.018  0.00  0.00    +0.000 A 
ATOM     25  C   UNL     1       0.378  14.034  19.434  0.00  0.00    +0.000 A 
ATOM     26  C   UNL     1       0.806  12.714  19.235  0.00  0.00    +0.000 A 
ATOM     27  C   UNL     1       2.117  12.538  18.747  0.00  0.00    +0.000 A 
ATOM     28  C   UNL     1       2.894  13.605  18.330  0.00  0.00    +0.000 A 
ATOM     29  F   UNL     1       4.106  13.318  17.833  0.00  0.00    +0.000 F 
BRANCH  23  31
ATOM     30  C   UNL     1       4.097  16.533  18.857  0.00  0.00    +0.000 C 
ATOM     31  O   UNL     1       3.074  16.039  17.996  0.00  0.00    +0.000 OA
ENDBRANCH  23  31
ENDBRANCH  22  26
BRANCH  22  32
ATOM     32  C   UNL     1      -1.227  11.339  18.790  0.00  0.00    +0.000 A 
ATOM     33  C   UNL     1      -1.541  10.476  17.710  0.00  0.00    +0.000 A 
ATOM     34  N   UNL     1      -2.836  10.501  17.382  0.00  0.00    +0.000 NA
ATOM     35  N   UNL     1      -3.369  11.358  18.269  0.00  0.00    +0.000 N 
ATOM     36  C   UNL     1      -4.799  11.398  18.474  0.00  0.00    +0.000 C 
ATOM     37  C   UNL     1      -2.430  11.981  19.041  0.00  0.00    +0.000 A 
ENDBRANCH  22  32
ENDBRANCH   1  22
TORSDOF 8
ENDMDL
MODEL 5
REMARK VINA RESULT:      -8.2      0.779      1.053
REMARK  Name = 
REMARK  10 active torsions:
REMARK  status: ('A' for Active; 'I' for Inactive)
REMARK    1  A    between atoms: C_1  and  O_2
REMARK    2  A    between atoms: O_2  and  C_3
REMARK    3  A    between atoms: C_6  and  C_7
REMARK    4  A    between atoms: C_7  and  N_8
REMARK    5  A    between atoms: C_7  and  C_27
REMARK    6  A    between atoms: C_9  and  C_11
REMARK    7  A    between atoms: N_19  and  C_20
REMARK    8  A    between atoms: C_20  and  C_21
REMARK    9  A    between atoms: C_21  and  C_22
REMARK   10  A    between atoms: N_30  and  C_31
REMARK                            x       y       z     vdW  Elec       q    Type
REMARK                         _______ _______ _______ _____ _____    ______ ____
ROOT
ATOM      1  N   UNL     1       0.988  10.074  19.291  0.00  0.00    +0.000 N 
ATOM      2  C   UNL     1       1.209   9.078  20.206  0.00  0.00    +0.000 C 
ATOM      3  O   UNL     1       0.821   9.182  21.368  0.00  0.00    +0.000 OA
ATOM      4  H   UNL     1       1.172   9.928  18.309  0.00  0.00    +0.000 HD
ENDROOT
BRANCH   2   5
ATOM      5  C   UNL     1       1.826   7.784  19.754  0.00  0.00    +0.000 A 
ATOM      6  C   UNL     1       1.727   6.778  20.712  0.00  0.00    +0.000 A 
ATOM      7  C   UNL     1       1.848   5.478  20.301  0.00  0.00    +0.000 A 
ATOM      8  F   UNL     1       1.635   4.491  21.185  0.00  0.00    +0.000 F 
ATOM      9  C   UNL     1       2.261   5.173  19.005  0.00  0.00    +0.000 A 
ATOM     10  C   UNL     1       2.104   3.923  18.454  0.00  0.00    +0.000 A 
ATOM     11  N   UNL     1       2.874   3.470  17.459  0.00  0.00    +0.000 NA
ATOM     12  C   UNL     1       3.833   4.303  17.078  0.00  0.00    +0.000 A 
ATOM     13  N   UNL     1       5.058   3.607  17.084  0.00  0.00    +0.000 N 
ATOM     14  N   UNL     1       3.748   5.640  17.245  0.00  0.00    +0.000 NA
ATOM     15  C   UNL     1       2.862   6.115  18.201  0.00  0.00    +0.000 A 
ATOM     16  C   UNL     1       2.454   7.458  18.518  0.00  0.00    +0.000 A 
ATOM     17  H   UNL     1       4.721   2.661  17.290  0.00  0.00    +0.000 HD
BRANCH  13  18
ATOM     18  C   UNL     1       5.970   3.537  15.956  0.00  0.00    +0.000 C 
BRANCH  18  19
ATOM     19  C   UNL     1       7.159   4.484  16.065  0.00  0.00    +0.000 C 
BRANCH  19  20
ATOM     20  C   UNL     1       7.554   4.652  17.467  0.00  0.00    +0.000 C 
ATOM     21  N   UNL     1       7.868   4.767  18.589  0.00  0.00    +0.000 NA
ENDBRANCH  19  20
ENDBRANCH  18  19
ENDBRANCH  13  18
ENDBRANCH   2   5
BRANCH   1  22
ATOM     22  C   UNL     1       0.253  11.299  19.658  0.00  0.00    +0.000 C 
BRANCH  22  26
ATOM     23  C   UNL     1       2.511  14.959  18.936  0.00  0.00    +0.000 A 
ATOM     24  C   UNL     1       2.828  13.810  18.199  0.00  0.00    +0.000 A 
ATOM     25  C   UNL     1       2.112  12.612  18.378  0.00  0.00    +0.000 A 
ATOM     26  C   UNL     1       1.079  12.530  19.322  0.00  0.00    +0.000 A 
ATOM     27  C   UNL     1       0.705  13.730  19.961  0.00  0.00    +0.000 A 
ATOM     28  C   UNL     1       1.418  14.904  19.790  0.00  0.00    +0.000 A 
ATOM     29  F   UNL     1       1.006  15.973  20.488  0.00  0.00    +0.000 F 
BRANCH  23  31
ATOM     30  C   UNL     1       4.691  15.743  18.437  0.00  0.00    +0.000 C 
ATOM     31  O   UNL     1       3.327  16.041  18.728  0.00  0.00    +0.000 OA
ENDBRANCH  23  31
ENDBRANCH  22  26
BRANCH  22  32
ATOM     32  C   UNL     1      -1.035  11.278  18.890  0.00  0.00    +0.000 A 
ATOM     33  C   UNL     1      -1.452  10.407  17.851  0.00  0.00    +0.000 A 
ATOM     34  N   UNL     1      -2.746  10.541  17.546  0.00  0.00    +0.000 NA
ATOM     35  N   UNL     1      -3.177  11.479  18.408  0.00  0.00    +0.000 N 
ATOM     36  C   UNL     1      -4.592  11.662  18.636  0.00  0.00    +0.000 C 
ATOM     37  C   UNL     1      -2.167  12.040  19.136  0.00  0.00    +0.000 A 
ENDBRANCH  22  32
ENDBRANCH   1  22
TORSDOF 8
ENDMDL
MODEL 6
REMARK VINA RESULT:      -8.2      1.416      1.742
REMARK  Name = 
REMARK  10 active torsions:
REMARK  status: ('A' for Active; 'I' for Inactive)
REMARK    1  A    between atoms: C_1  and  O_2
REMARK    2  A    between atoms: O_2  and  C_3
REMARK    3  A    between atoms: C_6  and  C_7
REMARK    4  A    between atoms: C_7  and  N_8
REMARK    5  A    between atoms: C_7  and  C_27
REMARK    6  A    between atoms: C_9  and  C_11
REMARK    7  A    between atoms: N_19  and  C_20
REMARK    8  A    between atoms: C_20  and  C_21
REMARK    9  A    between atoms: C_21  and  C_22
REMARK   10  A    between atoms: N_30  and  C_31
REMARK                            x       y       z     vdW  Elec       q    Type
REMARK                         _______ _______ _______ _____ _____    ______ ____
ROOT
ATOM      1  N   UNL     1       0.872  10.004  19.084  0.00  0.00    +0.000 N 
ATOM      2  C   UNL     1       1.110   9.004  19.991  0.00  0.00    +0.000 C 
ATOM      3  O   UNL     1       0.604   9.026  21.111  0.00  0.00    +0.000 OA
ATOM      4  H   UNL     1       1.163   9.912  18.122  0.00  0.00    +0.000 HD
ENDROOT
BRANCH   2   5
ATOM      5  C   UNL     1       1.901   7.797  19.570  0.00  0.00    +0.000 A 
ATOM      6  C   UNL     1       1.913   6.798  20.539  0.00  0.00    +0.000 A 
ATOM      7  C   UNL     1       2.213   5.520  20.148  0.00  0.00    +0.000 A 
ATOM      8  F   UNL     1       2.111   4.523  21.041  0.00  0.00    +0.000 F 
ATOM      9  C   UNL     1       2.690   5.257  18.864  0.00  0.00    +0.000 A 
ATOM     10  C   UNL     1       2.709   3.992  18.328  0.00  0.00    +0.000 A 
ATOM     11  N   UNL     1       3.553   3.633  17.355  0.00  0.00    +0.000 NA
ATOM     12  C   UNL     1       4.403   4.580  16.981  0.00  0.00    +0.000 A 
ATOM     13  N   UNL     1       5.708   4.050  17.021  0.00  0.00    +0.000 N 
ATOM     14  N   UNL     1       4.140   5.897  17.129  0.00  0.00    +0.000 NA
ATOM     15  C   UNL     1       3.179   6.261  18.060  0.00  0.00    +0.000 A 
ATOM     16  C   UNL     1       2.592   7.543  18.351  0.00  0.00    +0.000 A 
ATOM     17  H   UNL     1       5.493   3.071  17.234  0.00  0.00    +0.000 HD
BRANCH  13  18
ATOM     18  C   UNL     1       6.645   4.088  15.913  0.00  0.00    +0.000 C 
BRANCH  18  19
ATOM     19  C   UNL     1       6.125   4.836  14.691  0.00  0.00    +0.000 C 
BRANCH  19  20
ATOM     20  C   UNL     1       6.175   3.977  13.504  0.00  0.00    +0.000 C 
ATOM     21  N   UNL     1       6.204   3.278  12.566  0.00  0.00    +0.000 NA
ENDBRANCH  19  20
ENDBRANCH  18  19
ENDBRANCH  13  18
ENDBRANCH   2   5
BRANCH   1  22
ATOM     22  C   UNL     1      -0.019  11.133  19.408  0.00  0.00    +0.000 C 
BRANCH  22  26
ATOM     23  C   UNL     1       1.718  15.058  18.636  0.00  0.00    +0.000 A 
ATOM     24  C   UNL     1       2.514  13.917  18.463  0.00  0.00    +0.000 A 
ATOM     25  C   UNL     1       1.992  12.628  18.674  0.00  0.00    +0.000 A 
ATOM     26  C   UNL     1       0.666  12.453  19.095  0.00  0.00    +0.000 A 
ATOM     27  C   UNL     1      -0.142  13.607  19.145  0.00  0.00    +0.000 A 
ATOM     28  C   UNL     1       0.376  14.875  18.946  0.00  0.00    +0.000 A 
ATOM     29  F   UNL     1      -0.472  15.906  19.070  0.00  0.00    +0.000 F 
BRANCH  23  31
ATOM     30  C   UNL     1       3.291  16.323  17.395  0.00  0.00    +0.000 C 
ATOM     31  O   UNL     1       2.359  16.258  18.472  0.00  0.00    +0.000 OA
ENDBRANCH  23  31
ENDBRANCH  22  26
BRANCH  22  32
ATOM     32  C   UNL     1      -1.262  10.953  18.588  0.00  0.00    +0.000 A 
ATOM     33  C   UNL     1      -2.543  11.541  18.749  0.00  0.00    +0.000 A 
ATOM     34  N   UNL     1      -3.352  11.321  17.708  0.00  0.00    +0.000 NA
ATOM     35  N   UNL     1      -2.586  10.616  16.858  0.00  0.00    +0.000 N 
ATOM     36  C   UNL     1      -2.975  10.478  15.473  0.00  0.00    +0.000 C 
ATOM     37  C   UNL     1      -1.381  10.260  17.393  0.00  0.00    +0.000 A 
ENDBRANCH  22  32
ENDBRANCH   1  22
TORSDOF 8
ENDMDL
MODEL 7
REMARK VINA RESULT:      -8.1      1.222      1.507
REMARK  Name = 
REMARK  10 active torsions:
REMARK  status: ('A' for Active; 'I' for Inactive)
REMARK    1  A    between atoms: C_1  and  O_2
REMARK    2  A    between atoms: O_2  and  C_3
REMARK    3  A    between atoms: C_6  and  C_7
REMARK    4  A    between atoms: C_7  and  N_8
REMARK    5  A    between atoms: C_7  and  C_27
REMARK    6  A    between atoms: C_9  and  C_11
REMARK    7  A    between atoms: N_19  and  C_20
REMARK    8  A    between atoms: C_20  and  C_21
REMARK    9  A    between atoms: C_21  and  C_22
REMARK   10  A    between atoms: N_30  and  C_31
REMARK                            x       y       z     vdW  Elec       q    Type
REMARK                         _______ _______ _______ _____ _____    ______ ____
ROOT
ATOM      1  N   UNL     1       0.646   9.816  19.148  0.00  0.00    +0.000 N 
ATOM      2  C   UNL     1       1.100   8.932  20.091  0.00  0.00    +0.000 C 
ATOM      3  O   UNL     1       0.764   9.028  21.270  0.00  0.00    +0.000 OA
ATOM      4  H   UNL     1       0.799   9.651  18.164  0.00  0.00    +0.000 HD
ENDROOT
BRANCH   2   5
ATOM      5  C   UNL     1       1.922   7.749  19.660  0.00  0.00    +0.000 A 
ATOM      6  C   UNL     1       1.871   6.698  20.571  0.00  0.00    +0.000 A 
ATOM      7  C   UNL     1       2.200   5.444  20.133  0.00  0.00    +0.000 A 
ATOM      8  F   UNL     1       2.041   4.399  20.961  0.00  0.00    +0.000 F 
ATOM      9  C   UNL     1       2.766   5.251  18.873  0.00  0.00    +0.000 A 
ATOM     10  C   UNL     1       2.826   4.017  18.271  0.00  0.00    +0.000 A 
ATOM     11  N   UNL     1       3.736   3.711  17.340  0.00  0.00    +0.000 NA
ATOM     12  C   UNL     1       4.606   4.677  17.078  0.00  0.00    +0.000 A 
ATOM     13  N   UNL     1       5.907   4.145  17.179  0.00  0.00    +0.000 N 
ATOM     14  N   UNL     1       4.330   5.984  17.279  0.00  0.00    +0.000 NA
ATOM     15  C   UNL     1       3.306   6.297  18.160  0.00  0.00    +0.000 A 
ATOM     16  C   UNL     1       2.697   7.561  18.479  0.00  0.00    +0.000 A 
ATOM     17  H   UNL     1       5.682   3.156  17.323  0.00  0.00    +0.000 HD
BRANCH  13  18
ATOM     18  C   UNL     1       6.919   4.243  16.141  0.00  0.00    +0.000 C 
BRANCH  18  19
ATOM     19  C   UNL     1       6.353   4.231  14.726  0.00  0.00    +0.000 C 
BRANCH  19  20
ATOM     20  C   UNL     1       7.242   4.953  13.812  0.00  0.00    +0.000 C 
ATOM     21  N   UNL     1       7.939   5.531  13.070  0.00  0.00    +0.000 NA
ENDBRANCH  19  20
ENDBRANCH  18  19
ENDBRANCH  13  18
ENDBRANCH   2   5
BRANCH   1  22
ATOM     22  C   UNL     1      -0.283  10.905  19.506  0.00  0.00    +0.000 C 
BRANCH  22  26
ATOM     23  C   UNL     1       1.843  14.678  20.011  0.00  0.00    +0.000 A 
ATOM     24  C   UNL     1       1.769  14.107  18.734  0.00  0.00    +0.000 A 
ATOM     25  C   UNL     1       1.072  12.904  18.515  0.00  0.00    +0.000 A 
ATOM     26  C   UNL     1       0.459  12.228  19.580  0.00  0.00    +0.000 A 
ATOM     27  C   UNL     1       0.449  12.886  20.827  0.00  0.00    +0.000 A 
ATOM     28  C   UNL     1       1.142  14.064  21.041  0.00  0.00    +0.000 A 
ATOM     29  F   UNL     1       1.107  14.574  22.281  0.00  0.00    +0.000 F 
BRANCH  23  31
ATOM     30  C   UNL     1       3.429  16.106  18.982  0.00  0.00    +0.000 C 
ATOM     31  O   UNL     1       2.611  15.809  20.111  0.00  0.00    +0.000 OA
ENDBRANCH  23  31
ENDBRANCH  22  26
BRANCH  22  32
ATOM     32  C   UNL     1      -1.347  10.931  18.448  0.00  0.00    +0.000 A 
ATOM     33  C   UNL     1      -1.568  10.039  17.368  0.00  0.00    +0.000 A 
ATOM     34  N   UNL     1      -2.736  10.244  16.753  0.00  0.00    +0.000 NA
ATOM     35  N   UNL     1      -3.288  11.250  17.453  0.00  0.00    +0.000 N 
ATOM     36  C   UNL     1      -4.698  11.538  17.324  0.00  0.00    +0.000 C 
ATOM     37  C   UNL     1      -2.442  11.778  18.387  0.00  0.00    +0.000 A 
ENDBRANCH  22  32
ENDBRANCH   1  22
TORSDOF 8
ENDMDL
MODEL 8
REMARK VINA RESULT:      -8.1      1.411      2.008
REMARK  Name = 
REMARK  10 active torsions:
REMARK  status: ('A' for Active; 'I' for Inactive)
REMARK    1  A    between atoms: C_1  and  O_2
REMARK    2  A    between atoms: O_2  and  C_3
REMARK    3  A    between atoms: C_6  and  C_7
REMARK    4  A    between atoms: C_7  and  N_8
REMARK    5  A    between atoms: C_7  and  C_27
REMARK    6  A    between atoms: C_9  and  C_11
REMARK    7  A    between atoms: N_19  and  C_20
REMARK    8  A    between atoms: C_20  and  C_21
REMARK    9  A    between atoms: C_21  and  C_22
REMARK   10  A    between atoms: N_30  and  C_31
REMARK                            x       y       z     vdW  Elec       q    Type
REMARK                         _______ _______ _______ _____ _____    ______ ____
ROOT
ATOM      1  N   UNL     1       0.599   9.693  19.346  0.00  0.00    +0.000 N 
ATOM      2  C   UNL     1       1.173   8.837  20.249  0.00  0.00    +0.000 C 
ATOM      3  O   UNL     1       0.997   8.973  21.458  0.00  0.00    +0.000 OA
ATOM      4  H   UNL     1       0.619   9.495  18.356  0.00  0.00    +0.000 HD
ENDROOT
BRANCH   2   5
ATOM      5  C   UNL     1       1.928   7.636  19.751  0.00  0.00    +0.000 A 
ATOM      6  C   UNL     1       1.923   6.582  20.661  0.00  0.00    +0.000 A 
ATOM      7  C   UNL     1       2.185   5.322  20.195  0.00  0.00    +0.000 A 
ATOM      8  F   UNL     1       2.065   4.278  21.031  0.00  0.00    +0.000 F 
ATOM      9  C   UNL     1       2.643   5.121  18.894  0.00  0.00    +0.000 A 
ATOM     10  C   UNL     1       2.624   3.888  18.286  0.00  0.00    +0.000 A 
ATOM     11  N   UNL     1       3.450   3.564  17.285  0.00  0.00    +0.000 NA
ATOM     12  C   UNL     1       4.321   4.509  16.957  0.00  0.00    +0.000 A 
ATOM     13  N   UNL     1       5.612   3.944  16.953  0.00  0.00    +0.000 N 
ATOM     14  N   UNL     1       4.094   5.821  17.182  0.00  0.00    +0.000 NA
ATOM     15  C   UNL     1       3.152   6.156  18.143  0.00  0.00    +0.000 A 
ATOM     16  C   UNL     1       2.602   7.434  18.512  0.00  0.00    +0.000 A 
ATOM     17  H   UNL     1       5.374   2.960  17.112  0.00  0.00    +0.000 HD
BRANCH  13  18
ATOM     18  C   UNL     1       6.540   4.022  15.839  0.00  0.00    +0.000 C 
BRANCH  18  19
ATOM     19  C   UNL     1       5.977   4.734  14.615  0.00  0.00    +0.000 C 
BRANCH  19  20
ATOM     20  C   UNL     1       6.155   3.911  13.415  0.00  0.00    +0.000 C 
ATOM     21  N   UNL     1       6.316   3.257  12.458  0.00  0.00    +0.000 NA
ENDBRANCH  19  20
ENDBRANCH  18  19
ENDBRANCH  13  18
ENDBRANCH   2   5
BRANCH   1  22
ATOM     22  C   UNL     1      -0.272  10.798  19.789  0.00  0.00    +0.000 C 
BRANCH  22  26
ATOM     23  C   UNL     1       2.060  14.481  19.886  0.00  0.00    +0.000 A 
ATOM     24  C   UNL     1       1.389  14.072  21.047  0.00  0.00    +0.000 A 
ATOM     25  C   UNL     1       0.645  12.877  21.073  0.00  0.00    +0.000 A 
ATOM     26  C   UNL     1       0.531  12.081  19.925  0.00  0.00    +0.000 A 
ATOM     27  C   UNL     1       1.310  12.455  18.812  0.00  0.00    +0.000 A 
ATOM     28  C   UNL     1       2.034  13.635  18.786  0.00  0.00    +0.000 A 
ATOM     29  F   UNL     1       2.697  13.918  17.655  0.00  0.00    +0.000 F 
BRANCH  23  31
ATOM     30  C   UNL     1       3.554  15.879  21.081  0.00  0.00    +0.000 C 
ATOM     31  O   UNL     1       2.688  15.697  19.963  0.00  0.00    +0.000 OA
ENDBRANCH  23  31
ENDBRANCH  22  26
BRANCH  22  32
ATOM     32  C   UNL     1      -1.354  10.936  18.758  0.00  0.00    +0.000 A 
ATOM     33  C   UNL     1      -1.590  10.168  17.590  0.00  0.00    +0.000 A 
ATOM     34  N   UNL     1      -2.769  10.433  17.020  0.00  0.00    +0.000 NA
ATOM     35  N   UNL     1      -3.313  11.351  17.837  0.00  0.00    +0.000 N 
ATOM     36  C   UNL     1      -4.726  11.644  17.765  0.00  0.00    +0.000 C 
ATOM     37  C   UNL     1      -2.454  11.778  18.810  0.00  0.00    +0.000 A 
ENDBRANCH  22  32
ENDBRANCH   1  22
TORSDOF 8
ENDMDL
MODEL 9
REMARK VINA RESULT:      -8.1      0.856      1.022
REMARK  Name = 
REMARK  10 active torsions:
REMARK  status: ('A' for Active; 'I' for Inactive)
REMARK    1  A    between atoms: C_1  and  O_2
REMARK    2  A    between atoms: O_2  and  C_3
REMARK    3  A    between atoms: C_6  and  C_7
REMARK    4  A    between atoms: C_7  and  N_8
REMARK    5  A    between atoms: C_7  and  C_27
REMARK    6  A    between atoms: C_9  and  C_11
REMARK    7  A    between atoms: N_19  and  C_20
REMARK    8  A    between atoms: C_20  and  C_21
REMARK    9  A    between atoms: C_21  and  C_22
REMARK   10  A    between atoms: N_30  and  C_31
REMARK                            x       y       z     vdW  Elec       q    Type
REMARK                         _______ _______ _______ _____ _____    ______ ____
ROOT
ATOM      1  N   UNL     1       1.020   9.760  19.578  0.00  0.00    +0.000 N 
ATOM      2  C   UNL     1       1.275   8.726  20.440  0.00  0.00    +0.000 C 
ATOM      3  O   UNL     1       0.944   8.784  21.622  0.00  0.00    +0.000 OA
ATOM      4  H   UNL     1       1.155   9.654  18.584  0.00  0.00    +0.000 HD
ENDROOT
BRANCH   2   5
ATOM      5  C   UNL     1       1.856   7.446  19.906  0.00  0.00    +0.000 A 
ATOM      6  C   UNL     1       1.694   6.376  20.781  0.00  0.00    +0.000 A 
ATOM      7  C   UNL     1       1.779   5.107  20.275  0.00  0.00    +0.000 A 
ATOM      8  F   UNL     1       1.506   4.064  21.076  0.00  0.00    +0.000 F 
ATOM      9  C   UNL     1       2.215   4.884  18.970  0.00  0.00    +0.000 A 
ATOM     10  C   UNL     1       2.027   3.686  18.322  0.00  0.00    +0.000 A 
ATOM     11  N   UNL     1       2.807   3.280  17.314  0.00  0.00    +0.000 NA
ATOM     12  C   UNL     1       3.806   4.102  17.021  0.00  0.00    +0.000 A 
ATOM     13  N   UNL     1       5.004   3.360  17.004  0.00  0.00    +0.000 N 
ATOM     14  N   UNL     1       3.766   5.425  17.288  0.00  0.00    +0.000 NA
ATOM     15  C   UNL     1       2.872   5.860  18.255  0.00  0.00    +0.000 A 
ATOM     16  C   UNL     1       2.505   7.190  18.664  0.00  0.00    +0.000 A 
ATOM     17  H   UNL     1       4.627   2.415  17.129  0.00  0.00    +0.000 HD
BRANCH  13  18
ATOM     18  C   UNL     1       5.943   3.340  15.896  0.00  0.00    +0.000 C 
BRANCH  18  19
ATOM     19  C   UNL     1       6.997   4.439  15.962  0.00  0.00    +0.000 C 
BRANCH  19  20
ATOM     20  C   UNL     1       7.253   4.985  14.627  0.00  0.00    +0.000 C 
ATOM     21  N   UNL     1       7.464   5.405  13.554  0.00  0.00    +0.000 NA
ENDBRANCH  19  20
ENDBRANCH  18  19
ENDBRANCH  13  18
ENDBRANCH   2   5
BRANCH   1  22
ATOM     22  C   UNL     1       0.317  10.975  20.031  0.00  0.00    +0.000 C 
BRANCH  22  26
ATOM     23  C   UNL     1       2.805  14.537  19.658  0.00  0.00    +0.000 A 
ATOM     24  C   UNL     1       2.626  13.714  18.538  0.00  0.00    +0.000 A 
ATOM     25  C   UNL     1       1.811  12.568  18.601  0.00  0.00    +0.000 A 
ATOM     26  C   UNL     1       1.181  12.203  19.799  0.00  0.00    +0.000 A 
ATOM     27  C   UNL     1       1.284  13.111  20.873  0.00  0.00    +0.000 A 
ATOM     28  C   UNL     1       2.093  14.232  20.811  0.00  0.00    +0.000 A 
ATOM     29  F   UNL     1       2.156  14.998  21.910  0.00  0.00    +0.000 F 
BRANCH  23  31
ATOM     30  C   UNL     1       4.498  15.526  18.329  0.00  0.00    +0.000 C 
ATOM     31  O   UNL     1       3.679  15.580  19.494  0.00  0.00    +0.000 OA
ENDBRANCH  23  31
ENDBRANCH  22  26
BRANCH  22  32
ATOM     32  C   UNL     1      -0.962  11.051  19.250  0.00  0.00    +0.000 A 
ATOM     33  C   UNL     1      -2.086  11.896  19.439  0.00  0.00    +0.000 A 
ATOM     34  N   UNL     1      -2.956  11.840  18.427  0.00  0.00    +0.000 NA
ATOM     35  N   UNL     1      -2.383  10.982  17.566  0.00  0.00    +0.000 N 
ATOM     36  C   UNL     1      -2.836  10.914  16.195  0.00  0.00    +0.000 C 
ATOM     37  C   UNL     1      -1.261  10.387  18.071  0.00  0.00    +0.000 A 
ENDBRANCH  22  32
ENDBRANCH   1  22
TORSDOF 8
ENDMDL
