MODEL 1
REMARK VINA RESULT:      -7.7      0.000      0.000
REMARK  Name = 
REMARK  13 active torsions:
REMARK  status: ('A' for Active; 'I' for Inactive)
REMARK    1  A    between atoms: C_1  and  C_2
REMARK    2  A    between atoms: C_2  and  C_3
REMARK    3  A    between atoms: C_3  and  C_4
REMARK    4  A    between atoms: C_4  and  C_5
REMARK    5  A    between atoms: C_5  and  N_6
REMARK    6  A    between atoms: N_6  and  C_7
REMARK    7  A    between atoms: CA_9  and  C_10
REMARK    8  A    between atoms: C_10  and  OXT_12
REMARK    9  A    between atoms: C_15  and  C_16
REMARK   10  A    between atoms: C_16  and  C_17
REMARK   11  A    between atoms: C_17  and  C_18
REMARK   12  A    between atoms: C_21  and  C_22
REMARK   13  A    between atoms: C_22  and  O_24
REMARK                            x       y       z     vdW  Elec       q    Type
REMARK                         _______ _______ _______ _____ _____    ______ ____
ROOT
ATOM      1  C   UNL     1       4.546   5.065  17.030  0.00  0.00    +0.000 A 
ATOM      2  C   UNL     1       4.819   3.752  17.402  0.00  0.00    +0.000 A 
ATOM      3  CA  UNL     1       4.146   3.211  18.474  0.00  0.00    +0.000 A 
ATOM      4  N   UNL     1       3.232   3.876  19.225  0.00  0.00    +0.000 NA
ATOM      5  C   UNL     1       3.023   5.181  18.958  0.00  0.00    +0.000 A 
ATOM      6  C   UNL     1       2.184   5.934  19.809  0.00  0.00    +0.000 A 
ATOM      7  C   UNL     1       1.926   7.297  19.539  0.00  0.00    +0.000 A 
ATOM      8  O   UNL     1       1.094   7.997  20.388  0.00  0.00    +0.000 OA
ATOM      9  C   UNL     1       0.802   9.326  20.090  0.00  0.00    +0.000 A 
ATOM     10  C   UNL     1       1.287   9.997  19.037  0.00  0.00    +0.000 A 
ATOM     11  C   UNL     1       2.195   9.304  18.119  0.00  0.00    +0.000 A 
ATOM     12  O   UNL     1       2.655   9.873  17.138  0.00  0.00    +0.000 OA
ATOM     13  C   UNL     1       2.501   7.898  18.427  0.00  0.00    +0.000 A 
ATOM     14  C   UNL     1       3.361   7.176  17.597  0.00  0.00    +0.000 A 
ATOM     15  C   UNL     1       3.647   5.816  17.845  0.00  0.00    +0.000 A 
ENDROOT
BRANCH   1  16
ATOM     16  N   UNL     1       5.239   5.668  15.958  0.00  0.00    +0.000 N 
ATOM     17  H   UNL     1       4.659   5.782  15.129  0.00  0.00    +0.000 HD
BRANCH  16  18
ATOM     18  C   UNL     1       6.599   5.222  15.655  0.00  0.00    +0.000 C 
BRANCH  18  19
ATOM     19  C   UNL     1       6.754   4.873  14.179  0.00  0.00    +0.000 C 
BRANCH  19  20
ATOM     20  C   UNL     1       5.853   3.686  13.830  0.00  0.00    +0.000 C 
BRANCH  20  22
ATOM     21  C   UNL     1       4.600   3.218  11.700  0.00  0.00    +0.000 C 
ATOM     22  C   UNL     1       5.969   3.304  12.357  0.00  0.00    +0.000 C 
ENDBRANCH  20  22
ENDBRANCH  19  20
ENDBRANCH  18  19
ENDBRANCH  16  18
ENDBRANCH   1  16
BRANCH   3  23
ATOM     23  C   UNL     1       4.390   1.780  18.818  0.00  0.00    +0.000 C 
ATOM     24  O   UNL     1       3.828   0.837  18.292  0.00  0.00    +0.000 OA
BRANCH  23  25
ATOM     25  OXT UNL     1       5.279   1.674  19.837  0.00  0.00    +0.000 OA
ATOM     26  HXT UNL     1       4.809   1.769  20.694  0.00  0.00    +0.000 HD
ENDBRANCH  23  25
ENDBRANCH   3  23
BRANCH   9  27
ATOM     27  C   UNL     1      -0.121  10.071  20.998  0.00  0.00    +0.000 C 
ATOM     28  O   UNL     1      -0.271   9.825  22.182  0.00  0.00    +0.000 OA
BRANCH  27  29
ATOM     29  O   UNL     1      -0.773  11.056  20.360  0.00  0.00    +0.000 OA
ATOM     30  H   UNL     1      -0.760  11.904  20.849  0.00  0.00    +0.000 HD
ENDBRANCH  27  29
ENDBRANCH   9  27
BRANCH   6  31
ATOM     31  C   UNL     1       1.561   5.267  21.028  0.00  0.00    +0.000 C 
BRANCH  31  32
ATOM     32  C   UNL     1       0.809   3.959  20.750  0.00  0.00    +0.000 C 
ATOM     33  C   UNL     1       1.207   2.792  21.644  0.00  0.00    +0.000 C 
ENDBRANCH  31  32
ENDBRANCH   6  31
TORSDOF 11
ENDMDL
MODEL 2
REMARK VINA RESULT:      -7.4      1.489      2.407
REMARK  Name = 
REMARK  13 active torsions:
REMARK  status: ('A' for Active; 'I' for Inactive)
REMARK    1  A    between atoms: C_1  and  C_2
REMARK    2  A    between atoms: C_2  and  C_3
REMARK    3  A    between atoms: C_3  and  C_4
REMARK    4  A    between atoms: C_4  and  C_5
REMARK    5  A    between atoms: C_5  and  N_6
REMARK    6  A    between atoms: N_6  and  C_7
REMARK    7  A    between atoms: CA_9  and  C_10
REMARK    8  A    between atoms: C_10  and  OXT_12
REMARK    9  A    between atoms: C_15  and  C_16
REMARK   10  A    between atoms: C_16  and  C_17
REMARK   11  A    between atoms: C_17  and  C_18
REMARK   12  A    between atoms: C_21  and  C_22
REMARK   13  A    between atoms: C_22  and  O_24
REMARK                            x       y       z     vdW  Elec       q    Type
REMARK                         _______ _______ _______ _____ _____    ______ ____
ROOT
ATOM      1  C   UNL     1       4.475   5.079  17.030  0.00  0.00    +0.000 A 
ATOM      2  C   UNL     1       4.765   3.761  17.371  0.00  0.00    +0.000 A 
ATOM      3  CA  UNL     1       4.121   3.196  18.448  0.00  0.00    +0.000 A 
ATOM      4  N   UNL     1       3.221   3.842  19.233  0.00  0.00    +0.000 NA
ATOM      5  C   UNL     1       2.999   5.150  18.995  0.00  0.00    +0.000 A 
ATOM      6  C   UNL     1       2.176   5.883  19.879  0.00  0.00    +0.000 A 
ATOM      7  C   UNL     1       1.904   7.249  19.641  0.00  0.00    +0.000 A 
ATOM      8  O   UNL     1       1.088   7.928  20.523  0.00  0.00    +0.000 OA
ATOM      9  C   UNL     1       0.782   9.260  20.256  0.00  0.00    +0.000 A 
ATOM     10  C   UNL     1       1.237   9.953  19.204  0.00  0.00    +0.000 A 
ATOM     11  C   UNL     1       2.126   9.283  18.252  0.00  0.00    +0.000 A 
ATOM     12  O   UNL     1       2.560   9.872  17.271  0.00  0.00    +0.000 OA
ATOM     13  C   UNL     1       2.449   7.874  18.526  0.00  0.00    +0.000 A 
ATOM     14  C   UNL     1       3.292   7.172  17.663  0.00  0.00    +0.000 A 
ATOM     15  C   UNL     1       3.592   5.810  17.879  0.00  0.00    +0.000 A 
ENDROOT
BRANCH   1  16
ATOM     16  N   UNL     1       5.138   5.706  15.953  0.00  0.00    +0.000 N 
ATOM     17  H   UNL     1       4.815   5.376  15.046  0.00  0.00    +0.000 HD
BRANCH  16  18
ATOM     18  C   UNL     1       6.590   5.878  16.019  0.00  0.00    +0.000 C 
BRANCH  18  19
ATOM     19  C   UNL     1       6.963   7.253  16.563  0.00  0.00    +0.000 C 
BRANCH  19  20
ATOM     20  C   UNL     1       7.637   7.104  17.930  0.00  0.00    +0.000 C 
BRANCH  20  22
ATOM     21  C   UNL     1       7.079   5.403  19.696  0.00  0.00    +0.000 C 
ATOM     22  C   UNL     1       7.744   5.641  18.350  0.00  0.00    +0.000 C 
ENDBRANCH  20  22
ENDBRANCH  19  20
ENDBRANCH  18  19
ENDBRANCH  16  18
ENDBRANCH   1  16
BRANCH   3  23
ATOM     23  C   UNL     1       4.381   1.761  18.760  0.00  0.00    +0.000 C 
ATOM     24  O   UNL     1       3.930   0.823  18.129  0.00  0.00    +0.000 OA
BRANCH  23  25
ATOM     25  OXT UNL     1       5.142   1.641  19.877  0.00  0.00    +0.000 OA
ATOM     26  HXT UNL     1       4.807   2.251  20.569  0.00  0.00    +0.000 HD
ENDBRANCH  23  25
ENDBRANCH   3  23
BRANCH   9  27
ATOM     27  C   UNL     1      -0.123   9.983  21.199  0.00  0.00    +0.000 C 
ATOM     28  O   UNL     1      -0.619  11.074  20.979  0.00  0.00    +0.000 OA
BRANCH  27  29
ATOM     29  O   UNL     1      -0.336   9.290  22.329  0.00  0.00    +0.000 OA
ATOM     30  H   UNL     1      -0.482   8.334  22.171  0.00  0.00    +0.000 HD
ENDBRANCH  27  29
ENDBRANCH   9  27
BRANCH   6  31
ATOM     31  C   UNL     1       1.587   5.190  21.101  0.00  0.00    +0.000 C 
BRANCH  31  32
ATOM     32  C   UNL     1       0.963   3.813  20.839  0.00  0.00    +0.000 C 
ATOM     33  C   UNL     1       1.507   2.690  21.712  0.00  0.00    +0.000 C 
ENDBRANCH  31  32
ENDBRANCH   6  31
TORSDOF 11
ENDMDL
MODEL 3
REMARK VINA RESULT:      -7.3      1.636      2.855
REMARK  Name = 
REMARK  13 active torsions:
REMARK  status: ('A' for Active; 'I' for Inactive)
REMARK    1  A    between atoms: C_1  and  C_2
REMARK    2  A    between atoms: C_2  and  C_3
REMARK    3  A    between atoms: C_3  and  C_4
REMARK    4  A    between atoms: C_4  and  C_5
REMARK    5  A    between atoms: C_5  and  N_6
REMARK    6  A    between atoms: N_6  and  C_7
REMARK    7  A    between atoms: CA_9  and  C_10
REMARK    8  A    between atoms: C_10  and  OXT_12
REMARK    9  A    between atoms: C_15  and  C_16
REMARK   10  A    between atoms: C_16  and  C_17
REMARK   11  A    between atoms: C_17  and  C_18
REMARK   12  A    between atoms: C_21  and  C_22
REMARK   13  A    between atoms: C_22  and  O_24
REMARK                            x       y       z     vdW  Elec       q    Type
REMARK                         _______ _______ _______ _____ _____    ______ ____
ROOT
ATOM      1  C   UNL     1       4.447   5.312  17.036  0.00  0.00    +0.000 A 
ATOM      2  C   UNL     1       4.743   3.988  17.348  0.00  0.00    +0.000 A 
ATOM      3  CA  UNL     1       4.087   3.391  18.400  0.00  0.00    +0.000 A 
ATOM      4  N   UNL     1       3.170   4.009  19.188  0.00  0.00    +0.000 NA
ATOM      5  C   UNL     1       2.941   5.321  18.979  0.00  0.00    +0.000 A 
ATOM      6  C   UNL     1       2.098   6.025  19.869  0.00  0.00    +0.000 A 
ATOM      7  C   UNL     1       1.819   7.394  19.661  0.00  0.00    +0.000 A 
ATOM      8  O   UNL     1       0.984   8.044  20.547  0.00  0.00    +0.000 OA
ATOM      9  C   UNL     1       0.671   9.379  20.310  0.00  0.00    +0.000 A 
ATOM     10  C   UNL     1       1.136  10.103  19.283  0.00  0.00    +0.000 A 
ATOM     11  C   UNL     1       2.045   9.464  18.328  0.00  0.00    +0.000 A 
ATOM     12  O   UNL     1       2.488  10.082  17.369  0.00  0.00    +0.000 OA
ATOM     13  C   UNL     1       2.375   8.051  18.571  0.00  0.00    +0.000 A 
ATOM     14  C   UNL     1       3.237   7.378  17.704  0.00  0.00    +0.000 A 
ATOM     15  C   UNL     1       3.545   6.014  17.889  0.00  0.00    +0.000 A 
ENDROOT
BRANCH   1  16
ATOM     16  N   UNL     1       5.121   5.971  15.985  0.00  0.00    +0.000 N 
ATOM     17  H   UNL     1       4.959   5.537  15.079  0.00  0.00    +0.000 HD
BRANCH  16  18
ATOM     18  C   UNL     1       6.511   6.385  16.186  0.00  0.00    +0.000 C 
BRANCH  18  19
ATOM     19  C   UNL     1       6.717   6.990  17.570  0.00  0.00    +0.000 C 
BRANCH  19  20
ATOM     20  C   UNL     1       8.084   7.676  17.637  0.00  0.00    +0.000 C 
BRANCH  20  22
ATOM     21  C   UNL     1       8.949   9.739  18.786  0.00  0.00    +0.000 C 
ATOM     22  C   UNL     1       7.950   9.189  17.780  0.00  0.00    +0.000 C 
ENDBRANCH  20  22
ENDBRANCH  19  20
ENDBRANCH  18  19
ENDBRANCH  16  18
ENDBRANCH   1  16
BRANCH   3  23
ATOM     23  C   UNL     1       4.355   1.950  18.680  0.00  0.00    +0.000 C 
ATOM     24  O   UNL     1       3.856   1.023  18.070  0.00  0.00    +0.000 OA
BRANCH  23  25
ATOM     25  OXT UNL     1       5.185   1.812  19.744  0.00  0.00    +0.000 OA
ATOM     26  HXT UNL     1       4.736   2.137  20.554  0.00  0.00    +0.000 HD
ENDBRANCH  23  25
ENDBRANCH   3  23
BRANCH   9  27
ATOM     27  C   UNL     1      -0.255  10.071  21.257  0.00  0.00    +0.000 C 
ATOM     28  O   UNL     1      -0.917  11.056  20.979  0.00  0.00    +0.000 OA
BRANCH  27  29
ATOM     29  O   UNL     1      -0.279   9.482  22.463  0.00  0.00    +0.000 OA
ATOM     30  H   UNL     1       0.232   8.647  22.492  0.00  0.00    +0.000 HD
ENDBRANCH  27  29
ENDBRANCH   9  27
BRANCH   6  31
ATOM     31  C   UNL     1       1.496   5.296  21.063  0.00  0.00    +0.000 C 
BRANCH  31  32
ATOM     32  C   UNL     1       0.888   3.921  20.757  0.00  0.00    +0.000 C 
ATOM     33  C   UNL     1       1.384   2.791  21.650  0.00  0.00    +0.000 C 
ENDBRANCH  31  32
ENDBRANCH   6  31
TORSDOF 11
ENDMDL
MODEL 4
REMARK VINA RESULT:      -7.2      3.205      6.037
REMARK  Name = 
REMARK  13 active torsions:
REMARK  status: ('A' for Active; 'I' for Inactive)
REMARK    1  A    between atoms: C_1  and  C_2
REMARK    2  A    between atoms: C_2  and  C_3
REMARK    3  A    between atoms: C_3  and  C_4
REMARK    4  A    between atoms: C_4  and  C_5
REMARK    5  A    between atoms: C_5  and  N_6
REMARK    6  A    between atoms: N_6  and  C_7
REMARK    7  A    between atoms: CA_9  and  C_10
REMARK    8  A    between atoms: C_10  and  OXT_12
REMARK    9  A    between atoms: C_15  and  C_16
REMARK   10  A    between atoms: C_16  and  C_17
REMARK   11  A    between atoms: C_17  and  C_18
REMARK   12  A    between atoms: C_21  and  C_22
REMARK   13  A    between atoms: C_22  and  O_24
REMARK                            x       y       z     vdW  Elec       q    Type
REMARK                         _______ _______ _______ _____ _____    ______ ____
ROOT
ATOM      1  C   UNL     1       6.077   3.549  13.509  0.00  0.00    +0.000 A 
ATOM      2  C   UNL     1       7.075   4.277  12.868  0.00  0.00    +0.000 A 
ATOM      3  CA  UNL     1       7.606   5.378  13.501  0.00  0.00    +0.000 A 
ATOM      4  N   UNL     1       7.211   5.832  14.719  0.00  0.00    +0.000 NA
ATOM      5  C   UNL     1       6.174   5.213  15.317  0.00  0.00    +0.000 A 
ATOM      6  C   UNL     1       5.651   5.747  16.517  0.00  0.00    +0.000 A 
ATOM      7  C   UNL     1       4.581   5.106  17.181  0.00  0.00    +0.000 A 
ATOM      8  O   UNL     1       4.104   5.653  18.354  0.00  0.00    +0.000 OA
ATOM      9  C   UNL     1       3.084   4.990  19.031  0.00  0.00    +0.000 A 
ATOM     10  C   UNL     1       2.506   3.854  18.620  0.00  0.00    +0.000 A 
ATOM     11  C   UNL     1       2.961   3.246  17.367  0.00  0.00    +0.000 A 
ATOM     12  O   UNL     1       2.470   2.204  16.956  0.00  0.00    +0.000 OA
ATOM     13  C   UNL     1       4.043   3.940  16.651  0.00  0.00    +0.000 A 
ATOM     14  C   UNL     1       4.526   3.421  15.448  0.00  0.00    +0.000 A 
ATOM     15  C   UNL     1       5.586   4.043  14.755  0.00  0.00    +0.000 A 
ENDROOT
BRANCH   1  16
ATOM     16  N   UNL     1       5.483   2.434  12.880  0.00  0.00    +0.000 N 
ATOM     17  H   UNL     1       5.987   1.568  13.057  0.00  0.00    +0.000 HD
BRANCH  16  18
ATOM     18  C   UNL     1       5.024   2.563  11.496  0.00  0.00    +0.000 C 
BRANCH  18  19
ATOM     19  C   UNL     1       3.826   3.499  11.392  0.00  0.00    +0.000 C 
BRANCH  19  20
ATOM     20  C   UNL     1       3.046   3.200  10.108  0.00  0.00    +0.000 C 
BRANCH  20  22
ATOM     21  C   UNL     1       1.947   5.155   8.970  0.00  0.00    +0.000 C 
ATOM     22  C   UNL     1       3.209   4.314   9.078  0.00  0.00    +0.000 C 
ENDBRANCH  20  22
ENDBRANCH  19  20
ENDBRANCH  18  19
ENDBRANCH  16  18
ENDBRANCH   1  16
BRANCH   3  23
ATOM     23  C   UNL     1       8.727   6.107  12.840  0.00  0.00    +0.000 C 
ATOM     24  O   UNL     1       9.832   6.264  13.326  0.00  0.00    +0.000 OA
BRANCH  23  25
ATOM     25  OXT UNL     1       8.331   6.622  11.649  0.00  0.00    +0.000 OA
ATOM     26  HXT UNL     1       7.367   6.476  11.533  0.00  0.00    +0.000 HD
ENDBRANCH  23  25
ENDBRANCH   3  23
BRANCH   9  27
ATOM     27  C   UNL     1       2.588   5.572  20.315  0.00  0.00    +0.000 C 
ATOM     28  O   UNL     1       2.281   4.917  21.296  0.00  0.00    +0.000 OA
BRANCH  27  29
ATOM     29  O   UNL     1       2.521   6.912  20.272  0.00  0.00    +0.000 OA
ATOM     30  H   UNL     1       3.133   7.306  19.616  0.00  0.00    +0.000 HD
ENDBRANCH  27  29
ENDBRANCH   9  27
BRANCH   6  31
ATOM     31  C   UNL     1       6.245   7.028  17.088  0.00  0.00    +0.000 C 
BRANCH  31  32
ATOM     32  C   UNL     1       7.514   6.845  17.931  0.00  0.00    +0.000 C 
ATOM     33  C   UNL     1       8.251   8.136  18.261  0.00  0.00    +0.000 C 
ENDBRANCH  31  32
ENDBRANCH   6  31
TORSDOF 11
ENDMDL
MODEL 5
REMARK VINA RESULT:      -7.0      2.587      8.901
REMARK  Name = 
REMARK  13 active torsions:
REMARK  status: ('A' for Active; 'I' for Inactive)
REMARK    1  A    between atoms: C_1  and  C_2
REMARK    2  A    between atoms: C_2  and  C_3
REMARK    3  A    between atoms: C_3  and  C_4
REMARK    4  A    between atoms: C_4  and  C_5
REMARK    5  A    between atoms: C_5  and  N_6
REMARK    6  A    between atoms: N_6  and  C_7
REMARK    7  A    between atoms: CA_9  and  C_10
REMARK    8  A    between atoms: C_10  and  OXT_12
REMARK    9  A    between atoms: C_15  and  C_16
REMARK   10  A    between atoms: C_16  and  C_17
REMARK   11  A    between atoms: C_17  and  C_18
REMARK   12  A    between atoms: C_21  and  C_22
REMARK   13  A    between atoms: C_22  and  O_24
REMARK                            x       y       z     vdW  Elec       q    Type
REMARK                         _______ _______ _______ _____ _____    ______ ____
ROOT
ATOM      1  C   UNL     1       0.862   8.865  20.889  0.00  0.00    +0.000 A 
ATOM      2  C   UNL     1       0.979  10.125  20.311  0.00  0.00    +0.000 A 
ATOM      3  CA  UNL     1       1.580  10.238  19.078  0.00  0.00    +0.000 A 
ATOM      4  N   UNL     1       2.097   9.198  18.375  0.00  0.00    +0.000 NA
ATOM      5  C   UNL     1       2.097   7.981  18.955  0.00  0.00    +0.000 A 
ATOM      6  C   UNL     1       2.752   6.908  18.309  0.00  0.00    +0.000 A 
ATOM      7  C   UNL     1       2.746   5.616  18.880  0.00  0.00    +0.000 A 
ATOM      8  O   UNL     1       3.389   4.592  18.215  0.00  0.00    +0.000 OA
ATOM      9  C   UNL     1       3.337   3.310  18.756  0.00  0.00    +0.000 A 
ATOM     10  C   UNL     1       2.717   2.987  19.898  0.00  0.00    +0.000 A 
ATOM     11  C   UNL     1       2.040   4.043  20.654  0.00  0.00    +0.000 A 
ATOM     12  O   UNL     1       1.452   3.795  21.698  0.00  0.00    +0.000 OA
ATOM     13  C   UNL     1       2.087   5.399  20.084  0.00  0.00    +0.000 A 
ATOM     14  C   UNL     1       1.466   6.457  20.751  0.00  0.00    +0.000 A 
ATOM     15  C   UNL     1       1.463   7.761  20.212  0.00  0.00    +0.000 A 
ENDROOT
BRANCH   1  16
ATOM     16  N   UNL     1       0.283   8.710  22.167  0.00  0.00    +0.000 N 
ATOM     17  H   UNL     1      -0.590   8.186  22.143  0.00  0.00    +0.000 HD
BRANCH  16  18
ATOM     18  C   UNL     1       0.239   9.863  23.068  0.00  0.00    +0.000 C 
BRANCH  18  19
ATOM     19  C   UNL     1      -1.177  10.412  23.200  0.00  0.00    +0.000 C 
BRANCH  19  20
ATOM     20  C   UNL     1      -1.180  11.914  22.901  0.00  0.00    +0.000 C 
BRANCH  20  22
ATOM     21  C   UNL     1      -3.465  12.492  23.777  0.00  0.00    +0.000 C 
ATOM     22  C   UNL     1      -2.577  12.415  22.546  0.00  0.00    +0.000 C 
ENDBRANCH  20  22
ENDBRANCH  19  20
ENDBRANCH  18  19
ENDBRANCH  16  18
ENDBRANCH   1  16
BRANCH   3  23
ATOM     23  C   UNL     1       1.632  11.581  18.432  0.00  0.00    +0.000 C 
ATOM     24  O   UNL     1       0.994  12.550  18.799  0.00  0.00    +0.000 OA
BRANCH  23  25
ATOM     25  OXT UNL     1       2.442  11.562  17.344  0.00  0.00    +0.000 OA
ATOM     26  HXT UNL     1       2.666  12.482  17.085  0.00  0.00    +0.000 HD
ENDBRANCH  23  25
ENDBRANCH   3  23
BRANCH   9  27
ATOM     27  C   UNL     1       4.012   2.200  18.018  0.00  0.00    +0.000 C 
ATOM     28  O   UNL     1       3.863   1.016  18.266  0.00  0.00    +0.000 OA
BRANCH  27  29
ATOM     29  O   UNL     1       4.809   2.654  17.037  0.00  0.00    +0.000 OA
ATOM     30  H   UNL     1       5.059   1.960  16.394  0.00  0.00    +0.000 HD
ENDBRANCH  27  29
ENDBRANCH   9  27
BRANCH   6  31
ATOM     31  C   UNL     1       3.474   7.156  16.992  0.00  0.00    +0.000 C 
BRANCH  31  32
ATOM     32  C   UNL     1       4.986   6.893  17.010  0.00  0.00    +0.000 C 
ATOM     33  C   UNL     1       5.496   6.031  15.862  0.00  0.00    +0.000 C 
ENDBRANCH  31  32
ENDBRANCH   6  31
TORSDOF 11
ENDMDL
MODEL 6
REMARK VINA RESULT:      -7.0      2.783      5.541
REMARK  Name = 
REMARK  13 active torsions:
REMARK  status: ('A' for Active; 'I' for Inactive)
REMARK    1  A    between atoms: C_1  and  C_2
REMARK    2  A    between atoms: C_2  and  C_3
REMARK    3  A    between atoms: C_3  and  C_4
REMARK    4  A    between atoms: C_4  and  C_5
REMARK    5  A    between atoms: C_5  and  N_6
REMARK    6  A    between atoms: N_6  and  C_7
REMARK    7  A    between atoms: CA_9  and  C_10
REMARK    8  A    between atoms: C_10  and  OXT_12
REMARK    9  A    between atoms: C_15  and  C_16
REMARK   10  A    between atoms: C_16  and  C_17
REMARK   11  A    between atoms: C_17  and  C_18
REMARK   12  A    between atoms: C_21  and  C_22
REMARK   13  A    between atoms: C_22  and  O_24
REMARK                            x       y       z     vdW  Elec       q    Type
REMARK                         _______ _______ _______ _____ _____    ______ ____
ROOT
ATOM      1  C   UNL     1       2.597   6.326  20.018  0.00  0.00    +0.000 A 
ATOM      2  C   UNL     1       3.360   5.967  18.911  0.00  0.00    +0.000 A 
ATOM      3  CA  UNL     1       3.550   6.890  17.908  0.00  0.00    +0.000 A 
ATOM      4  N   UNL     1       3.025   8.142  17.903  0.00  0.00    +0.000 NA
ATOM      5  C   UNL     1       2.194   8.483  18.909  0.00  0.00    +0.000 A 
ATOM      6  C   UNL     1       1.524   9.726  18.860  0.00  0.00    +0.000 A 
ATOM      7  C   UNL     1       0.667  10.120  19.912  0.00  0.00    +0.000 A 
ATOM      8  O   UNL     1       0.037  11.345  19.831  0.00  0.00    +0.000 OA
ATOM      9  C   UNL     1      -0.766  11.752  20.893  0.00  0.00    +0.000 A 
ATOM     10  C   UNL     1      -0.995  11.031  21.998  0.00  0.00    +0.000 A 
ATOM     11  C   UNL     1      -0.368   9.713  22.121  0.00  0.00    +0.000 A 
ATOM     12  O   UNL     1      -0.540   9.022  23.116  0.00  0.00    +0.000 OA
ATOM     13  C   UNL     1       0.486   9.280  21.003  0.00  0.00    +0.000 A 
ATOM     14  C   UNL     1       1.115   8.034  21.049  0.00  0.00    +0.000 A 
ATOM     15  C   UNL     1       1.968   7.606  20.010  0.00  0.00    +0.000 A 
ENDROOT
BRANCH   1  16
ATOM     16  N   UNL     1       2.350   5.397  21.053  0.00  0.00    +0.000 N 
ATOM     17  H   UNL     1       2.809   5.649  21.926  0.00  0.00    +0.000 HD
BRANCH  16  18
ATOM     18  C   UNL     1       2.427   3.966  20.753  0.00  0.00    +0.000 C 
BRANCH  18  19
ATOM     19  C   UNL     1       1.045   3.324  20.747  0.00  0.00    +0.000 C 
BRANCH  19  20
ATOM     20  C   UNL     1       0.834   2.559  19.437  0.00  0.00    +0.000 C 
BRANCH  20  22
ATOM     21  C   UNL     1       2.572   2.160  17.664  0.00  0.00    +0.000 C 
ATOM     22  C   UNL     1       1.630   3.176  18.290  0.00  0.00    +0.000 C 
ENDBRANCH  20  22
ENDBRANCH  19  20
ENDBRANCH  18  19
ENDBRANCH  16  18
ENDBRANCH   1  16
BRANCH   3  23
ATOM     23  C   UNL     1       4.432   6.524  16.762  0.00  0.00    +0.000 C 
ATOM     24  O   UNL     1       4.941   7.323  15.998  0.00  0.00    +0.000 OA
BRANCH  23  25
ATOM     25  OXT UNL     1       4.542   5.177  16.650  0.00  0.00    +0.000 OA
ATOM     26  HXT UNL     1       4.302   4.903  15.738  0.00  0.00    +0.000 HD
ENDBRANCH  23  25
ENDBRANCH   3  23
BRANCH   9  27
ATOM     27  C   UNL     1      -1.425  13.091  20.814  0.00  0.00    +0.000 C 
ATOM     28  O   UNL     1      -1.871  13.698  21.771  0.00  0.00    +0.000 OA
BRANCH  27  29
ATOM     29  O   UNL     1      -1.471  13.559  19.556  0.00  0.00    +0.000 OA
ATOM     30  H   UNL     1      -0.586  13.639  19.144  0.00  0.00    +0.000 HD
ENDBRANCH  27  29
ENDBRANCH   9  27
BRANCH   6  31
ATOM     31  C   UNL     1       1.725  10.638  17.657  0.00  0.00    +0.000 C 
BRANCH  31  32
ATOM     32  C   UNL     1       2.727  11.782  17.860  0.00  0.00    +0.000 C 
ATOM     33  C   UNL     1       2.097  13.157  18.037  0.00  0.00    +0.000 C 
ENDBRANCH  31  32
ENDBRANCH   6  31
TORSDOF 11
ENDMDL
MODEL 7
REMARK VINA RESULT:      -6.9      6.999     10.250
REMARK  Name = 
REMARK  13 active torsions:
REMARK  status: ('A' for Active; 'I' for Inactive)
REMARK    1  A    between atoms: C_1  and  C_2
REMARK    2  A    between atoms: C_2  and  C_3
REMARK    3  A    between atoms: C_3  and  C_4
REMARK    4  A    between atoms: C_4  and  C_5
REMARK    5  A    between atoms: C_5  and  N_6
REMARK    6  A    between atoms: N_6  and  C_7
REMARK    7  A    between atoms: CA_9  and  C_10
REMARK    8  A    between atoms: C_10  and  OXT_12
REMARK    9  A    between atoms: C_15  and  C_16
REMARK   10  A    between atoms: C_16  and  C_17
REMARK   11  A    between atoms: C_17  and  C_18
REMARK   12  A    between atoms: C_21  and  C_22
REMARK   13  A    between atoms: C_22  and  O_24
REMARK                            x       y       z     vdW  Elec       q    Type
REMARK                         _______ _______ _______ _____ _____    ______ ____
ROOT
ATOM      1  C   UNL     1      -1.263  11.754  19.118  0.00  0.00    +0.000 A 
ATOM      2  C   UNL     1      -1.409  11.199  17.850  0.00  0.00    +0.000 A 
ATOM      3  CA  UNL     1      -2.669  11.111  17.304  0.00  0.00    +0.000 A 
ATOM      4  N   UNL     1      -3.808  11.514  17.924  0.00  0.00    +0.000 NA
ATOM      5  C   UNL     1      -3.713  11.957  19.193  0.00  0.00    +0.000 A 
ATOM      6  C   UNL     1      -4.893  12.251  19.912  0.00  0.00    +0.000 A 
ATOM      7  C   UNL     1      -4.824  12.741  21.235  0.00  0.00    +0.000 A 
ATOM      8  O   UNL     1      -5.999  13.025  21.901  0.00  0.00    +0.000 OA
ATOM      9  C   UNL     1      -5.925  13.556  23.186  0.00  0.00    +0.000 A 
ATOM     10  C   UNL     1      -4.787  13.801  23.847  0.00  0.00    +0.000 A 
ATOM     11  C   UNL     1      -3.513  13.494  23.192  0.00  0.00    +0.000 A 
ATOM     12  O   UNL     1      -2.447  13.710  23.753  0.00  0.00    +0.000 OA
ATOM     13  C   UNL     1      -3.585  12.938  21.832  0.00  0.00    +0.000 A 
ATOM     14  C   UNL     1      -2.411  12.619  21.147  0.00  0.00    +0.000 A 
ATOM     15  C   UNL     1      -2.447  12.118  19.828  0.00  0.00    +0.000 A 
ENDROOT
BRANCH   1  16
ATOM     16  N   UNL     1       0.007  11.832  19.728  0.00  0.00    +0.000 N 
ATOM     17  H   UNL     1       0.391  12.774  19.720  0.00  0.00    +0.000 HD
BRANCH  16  18
ATOM     18  C   UNL     1       1.002  10.801  19.425  0.00  0.00    +0.000 C 
BRANCH  18  19
ATOM     19  C   UNL     1       0.585   9.444  19.980  0.00  0.00    +0.000 C 
BRANCH  19  20
ATOM     20  C   UNL     1       0.883   9.384  21.481  0.00  0.00    +0.000 C 
BRANCH  20  22
ATOM     21  C   UNL     1      -0.815  10.307  23.091  0.00  0.00    +0.000 C 
ATOM     22  C   UNL     1      -0.374   9.089  22.294  0.00  0.00    +0.000 C 
ENDBRANCH  20  22
ENDBRANCH  19  20
ENDBRANCH  18  19
ENDBRANCH  16  18
ENDBRANCH   1  16
BRANCH   3  23
ATOM     23  C   UNL     1      -2.807  10.585  15.915  0.00  0.00    +0.000 C 
ATOM     24  O   UNL     1      -2.611   9.428  15.591  0.00  0.00    +0.000 OA
BRANCH  23  25
ATOM     25  OXT UNL     1      -3.124  11.581  15.051  0.00  0.00    +0.000 OA
ATOM     26  HXT UNL     1      -2.562  12.366  15.235  0.00  0.00    +0.000 HD
ENDBRANCH  23  25
ENDBRANCH   3  23
BRANCH   9  27
ATOM     27  C   UNL     1      -7.200  13.887  23.892  0.00  0.00    +0.000 C 
ATOM     28  O   UNL     1      -7.560  15.017  24.171  0.00  0.00    +0.000 OA
BRANCH  27  29
ATOM     29  O   UNL     1      -7.915  12.790  24.188  0.00  0.00    +0.000 OA
ATOM     30  H   UNL     1      -8.747  12.991  24.664  0.00  0.00    +0.000 HD
ENDBRANCH  27  29
ENDBRANCH   9  27
BRANCH   6  31
ATOM     31  C   UNL     1      -6.247  12.028  19.251  0.00  0.00    +0.000 C 
BRANCH  31  32
ATOM     32  C   UNL     1      -6.867  13.265  18.587  0.00  0.00    +0.000 C 
ATOM     33  C   UNL     1      -6.904  13.220  17.065  0.00  0.00    +0.000 C 
ENDBRANCH  31  32
ENDBRANCH   6  31
TORSDOF 11
ENDMDL
MODEL 8
REMARK VINA RESULT:      -6.8      2.840      7.751
REMARK  Name = 
REMARK  13 active torsions:
REMARK  status: ('A' for Active; 'I' for Inactive)
REMARK    1  A    between atoms: C_1  and  C_2
REMARK    2  A    between atoms: C_2  and  C_3
REMARK    3  A    between atoms: C_3  and  C_4
REMARK    4  A    between atoms: C_4  and  C_5
REMARK    5  A    between atoms: C_5  and  N_6
REMARK    6  A    between atoms: N_6  and  C_7
REMARK    7  A    between atoms: CA_9  and  C_10
REMARK    8  A    between atoms: C_10  and  OXT_12
REMARK    9  A    between atoms: C_15  and  C_16
REMARK   10  A    between atoms: C_16  and  C_17
REMARK   11  A    between atoms: C_17  and  C_18
REMARK   12  A    between atoms: C_21  and  C_22
REMARK   13  A    between atoms: C_22  and  O_24
REMARK                            x       y       z     vdW  Elec       q    Type
REMARK                         _______ _______ _______ _____ _____    ______ ____
ROOT
ATOM      1  C   UNL     1       1.455  10.103  19.278  0.00  0.00    +0.000 A 
ATOM      2  C   UNL     1       0.660  10.353  20.393  0.00  0.00    +0.000 A 
ATOM      3  CA  UNL     1       0.491   9.355  21.326  0.00  0.00    +0.000 A 
ATOM      4  N   UNL     1       1.033   8.114  21.233  0.00  0.00    +0.000 NA
ATOM      5  C   UNL     1       1.719   7.806  20.114  0.00  0.00    +0.000 A 
ATOM      6  C   UNL     1       2.176   6.482  19.926  0.00  0.00    +0.000 A 
ATOM      7  C   UNL     1       2.919   6.136  18.776  0.00  0.00    +0.000 A 
ATOM      8  O   UNL     1       3.355   4.834  18.633  0.00  0.00    +0.000 OA
ATOM      9  C   UNL     1       4.131   4.510  17.523  0.00  0.00    +0.000 A 
ATOM     10  C   UNL     1       4.480   5.369  16.557  0.00  0.00    +0.000 A 
ATOM     11  C   UNL     1       4.021   6.757  16.651  0.00  0.00    +0.000 A 
ATOM     12  O   UNL     1       4.323   7.580  15.797  0.00  0.00    +0.000 OA
ATOM     13  C   UNL     1       3.206   7.107  17.825  0.00  0.00    +0.000 A 
ATOM     14  C   UNL     1       2.731   8.411  17.979  0.00  0.00    +0.000 A 
ATOM     15  C   UNL     1       1.977   8.786  19.112  0.00  0.00    +0.000 A 
ENDROOT
BRANCH   1  16
ATOM     16  N   UNL     1       1.626  11.088  18.281  0.00  0.00    +0.000 N 
ATOM     17  H   UNL     1       2.421  10.900  17.674  0.00  0.00    +0.000 HD
BRANCH  16  18
ATOM     18  C   UNL     1       1.505  12.499  18.652  0.00  0.00    +0.000 C 
BRANCH  18  19
ATOM     19  C   UNL     1       2.764  13.279  18.292  0.00  0.00    +0.000 C 
BRANCH  19  20
ATOM     20  C   UNL     1       3.111  14.253  19.422  0.00  0.00    +0.000 C 
BRANCH  20  22
ATOM     21  C   UNL     1       2.167  16.328  18.359  0.00  0.00    +0.000 C 
ATOM     22  C   UNL     1       2.080  15.372  19.538  0.00  0.00    +0.000 C 
ENDBRANCH  20  22
ENDBRANCH  19  20
ENDBRANCH  18  19
ENDBRANCH  16  18
ENDBRANCH   1  16
BRANCH   3  23
ATOM     23  C   UNL     1      -0.300   9.656  22.554  0.00  0.00    +0.000 C 
ATOM     24  O   UNL     1      -0.288  10.722  23.140  0.00  0.00    +0.000 OA
BRANCH  23  25
ATOM     25  OXT UNL     1      -0.989   8.562  22.963  0.00  0.00    +0.000 OA
ATOM     26  HXT UNL     1      -1.371   8.728  23.853  0.00  0.00    +0.000 HD
ENDBRANCH  23  25
ENDBRANCH   3  23
BRANCH   9  27
ATOM     27  C   UNL     1       4.623   3.105  17.387  0.00  0.00    +0.000 C 
ATOM     28  O   UNL     1       4.198   2.160  18.028  0.00  0.00    +0.000 OA
BRANCH  27  29
ATOM     29  O   UNL     1       5.595   2.996  16.467  0.00  0.00    +0.000 OA
ATOM     30  H   UNL     1       6.492   3.114  16.842  0.00  0.00    +0.000 HD
ENDBRANCH  27  29
ENDBRANCH   9  27
BRANCH   6  31
ATOM     31  C   UNL     1       1.853   5.424  20.973  0.00  0.00    +0.000 C 
BRANCH  31  32
ATOM     32  C   UNL     1       0.978   4.261  20.486  0.00  0.00    +0.000 C 
ATOM     33  C   UNL     1       1.312   2.910  21.103  0.00  0.00    +0.000 C 
ENDBRANCH  31  32
ENDBRANCH   6  31
TORSDOF 11
ENDMDL
MODEL 9
REMARK VINA RESULT:      -6.8      2.644      7.744
REMARK  Name = 
REMARK  13 active torsions:
REMARK  status: ('A' for Active; 'I' for Inactive)
REMARK    1  A    between atoms: C_1  and  C_2
REMARK    2  A    between atoms: C_2  and  C_3
REMARK    3  A    between atoms: C_3  and  C_4
REMARK    4  A    between atoms: C_4  and  C_5
REMARK    5  A    between atoms: C_5  and  N_6
REMARK    6  A    between atoms: N_6  and  C_7
REMARK    7  A    between atoms: CA_9  and  C_10
REMARK    8  A    between atoms: C_10  and  OXT_12
REMARK    9  A    between atoms: C_15  and  C_16
REMARK   10  A    between atoms: C_16  and  C_17
REMARK   11  A    between atoms: C_17  and  C_18
REMARK   12  A    between atoms: C_21  and  C_22
REMARK   13  A    between atoms: C_22  and  O_24
REMARK                            x       y       z     vdW  Elec       q    Type
REMARK                         _______ _______ _______ _____ _____    ______ ____
ROOT
ATOM      1  C   UNL     1       1.362  10.107  19.293  0.00  0.00    +0.000 A 
ATOM      2  C   UNL     1       0.573  10.336  20.416  0.00  0.00    +0.000 A 
ATOM      3  CA  UNL     1       0.438   9.333  21.350  0.00  0.00    +0.000 A 
ATOM      4  N   UNL     1       1.009   8.106  21.249  0.00  0.00    +0.000 NA
ATOM      5  C   UNL     1       1.690   7.816  20.123  0.00  0.00    +0.000 A 
ATOM      6  C   UNL     1       2.177   6.503  19.928  0.00  0.00    +0.000 A 
ATOM      7  C   UNL     1       2.916   6.177  18.769  0.00  0.00    +0.000 A 
ATOM      8  O   UNL     1       3.381   4.886  18.620  0.00  0.00    +0.000 OA
ATOM      9  C   UNL     1       4.153   4.582  17.501  0.00  0.00    +0.000 A 
ATOM     10  C   UNL     1       4.471   5.451  16.532  0.00  0.00    +0.000 A 
ATOM     11  C   UNL     1       3.980   6.827  16.633  0.00  0.00    +0.000 A 
ATOM     12  O   UNL     1       4.252   7.659  15.778  0.00  0.00    +0.000 OA
ATOM     13  C   UNL     1       3.169   7.156  17.816  0.00  0.00    +0.000 A 
ATOM     14  C   UNL     1       2.665   8.448  17.978  0.00  0.00    +0.000 A 
ATOM     15  C   UNL     1       1.914   8.803  19.119  0.00  0.00    +0.000 A 
ENDROOT
BRANCH   1  16
ATOM     16  N   UNL     1       1.499  11.097  18.296  0.00  0.00    +0.000 N 
ATOM     17  H   UNL     1       1.621  10.704  17.365  0.00  0.00    +0.000 HD
BRANCH  16  18
ATOM     18  C   UNL     1       2.367  12.247  18.555  0.00  0.00    +0.000 C 
BRANCH  18  19
ATOM     19  C   UNL     1       1.634  13.562  18.317  0.00  0.00    +0.000 C 
BRANCH  19  20
ATOM     20  C   UNL     1       0.122  13.332  18.383  0.00  0.00    +0.000 C 
BRANCH  20  22
ATOM     21  C   UNL     1      -1.175  13.618  20.519  0.00  0.00    +0.000 C 
ATOM     22  C   UNL     1      -0.559  14.325  19.321  0.00  0.00    +0.000 C 
ENDBRANCH  20  22
ENDBRANCH  19  20
ENDBRANCH  18  19
ENDBRANCH  16  18
ENDBRANCH   1  16
BRANCH   3  23
ATOM     23  C   UNL     1      -0.346   9.614  22.587  0.00  0.00    +0.000 C 
ATOM     24  O   UNL     1      -0.327  10.668  23.194  0.00  0.00    +0.000 OA
BRANCH  23  25
ATOM     25  OXT UNL     1      -1.040   8.515  22.976  0.00  0.00    +0.000 OA
ATOM     26  HXT UNL     1      -1.848   8.792  23.461  0.00  0.00    +0.000 HD
ENDBRANCH  23  25
ENDBRANCH   3  23
BRANCH   9  27
ATOM     27  C   UNL     1       4.677   3.190  17.357  0.00  0.00    +0.000 C 
ATOM     28  O   UNL     1       4.255   2.227  17.973  0.00  0.00    +0.000 OA
BRANCH  27  29
ATOM     29  O   UNL     1       5.675   3.115  16.462  0.00  0.00    +0.000 OA
ATOM     30  H   UNL     1       6.254   2.336  16.598  0.00  0.00    +0.000 HD
ENDBRANCH  27  29
ENDBRANCH   9  27
BRANCH   6  31
ATOM     31  C   UNL     1       1.891   5.437  20.976  0.00  0.00    +0.000 C 
BRANCH  31  32
ATOM     32  C   UNL     1       1.005   4.275  20.508  0.00  0.00    +0.000 C 
ATOM     33  C   UNL     1       1.347   2.924  21.124  0.00  0.00    +0.000 C 
ENDBRANCH  31  32
ENDBRANCH   6  31
TORSDOF 11
ENDMDL
