MODEL 1
REMARK VINA RESULT:      -7.6      0.000      0.000
REMARK  Name = 
REMARK  4 active torsions:
REMARK  status: ('A' for Active; 'I' for Inactive)
REMARK    1  A    between atoms: C_1  and  C_2
REMARK    2  A    between atoms: C_2  and  C_3
REMARK    3  A    between atoms: C_3  and  C_4
REMARK    4  A    between atoms: C_3  and  C_15
REMARK                            x       y       z     vdW  Elec       q    Type
REMARK                         _______ _______ _______ _____ _____    ______ ____
ROOT
ATOM      1  C   UNL     1       5.126   6.026  16.696  0.00  0.00    +0.000 C 
ATOM      2  O   UNL     1       4.574   6.885  15.993  0.00  0.00    +0.000 OA
ATOM      3  N   UNL     1       4.441   5.420  17.737  0.00  0.00    +0.000 N 
ATOM      4  C   UNL     1       2.997   5.661  17.893  0.00  0.00    +0.000 C 
ATOM      5  C   UNL     1       2.242   4.359  18.222  0.00  0.00    +0.000 C 
ATOM      6  C   UNL     1       2.911   3.595  19.343  0.00  0.00    +0.000 C 
ATOM      7  C   UNL     1       2.270   3.154  20.406  0.00  0.00    +0.000 C 
ATOM      8  C   UNL     1       2.383   2.462  21.629  0.00  0.00    +0.000 C 
ATOM      9  C   UNL     1       1.042   3.046  21.082  0.00  0.00    +0.000 C 
ATOM     10  C   UNL     1       4.397   3.414  19.170  0.00  0.00    +0.000 C 
ATOM     11  C   UNL     1       5.062   4.764  18.891  0.00  0.00    +0.000 C 
ENDROOT
BRANCH   1  12
ATOM     12  C   UNL     1       6.553   5.568  16.312  0.00  0.00    +0.000 C 
BRANCH  12  13
ATOM     13  C   UNL     1       6.684   4.975  14.905  0.00  0.00    +0.000 A 
ATOM     14  C   UNL     1       5.808   3.983  14.424  0.00  0.00    +0.000 A 
ATOM     15  C   UNL     1       5.881   3.521  13.109  0.00  0.00    +0.000 A 
ATOM     16  C   UNL     1       6.836   4.042  12.244  0.00  0.00    +0.000 A 
ATOM     17  C   UNL     1       7.714   5.023  12.695  0.00  0.00    +0.000 A 
ATOM     18  C   UNL     1       7.639   5.490  14.012  0.00  0.00    +0.000 A 
ENDBRANCH  12  13
BRANCH  12  20
ATOM     19  C   UNL     1       7.747   6.915  18.166  0.00  0.00    +0.000 C 
ATOM     20  C   UNL     1       7.625   6.623  16.679  0.00  0.00    +0.000 C 
ENDBRANCH  12  20
ENDBRANCH   1  12
TORSDOF 3
ENDMDL
MODEL 2
REMARK VINA RESULT:      -7.5      2.684      4.534
REMARK  Name = 
REMARK  4 active torsions:
REMARK  status: ('A' for Active; 'I' for Inactive)
REMARK    1  A    between atoms: C_1  and  C_2
REMARK    2  A    between atoms: C_2  and  C_3
REMARK    3  A    between atoms: C_3  and  C_4
REMARK    4  A    between atoms: C_3  and  C_15
REMARK                            x       y       z     vdW  Elec       q    Type
REMARK                         _______ _______ _______ _____ _____    ______ ____
ROOT
ATOM      1  C   UNL     1       3.566   4.517  17.740  0.00  0.00    +0.000 C 
ATOM      2  O   UNL     1       3.455   3.304  17.971  0.00  0.00    +0.000 OA
ATOM      3  N   UNL     1       2.763   5.437  18.397  0.00  0.00    +0.000 N 
ATOM      4  C   UNL     1       1.906   4.988  19.507  0.00  0.00    +0.000 C 
ATOM      5  C   UNL     1       1.951   5.978  20.687  0.00  0.00    +0.000 C 
ATOM      6  C   UNL     1       1.746   7.403  20.226  0.00  0.00    +0.000 C 
ATOM      7  C   UNL     1       0.867   8.224  20.765  0.00  0.00    +0.000 C 
ATOM      8  C   UNL     1       0.311   9.518  20.732  0.00  0.00    +0.000 C 
ATOM      9  C   UNL     1      -0.128   8.409  21.740  0.00  0.00    +0.000 C 
ATOM     10  C   UNL     1       2.606   7.807  19.056  0.00  0.00    +0.000 C 
ATOM     11  C   UNL     1       2.461   6.789  17.922  0.00  0.00    +0.000 C 
ENDROOT
BRANCH   1  12
ATOM     12  C   UNL     1       4.693   4.984  16.790  0.00  0.00    +0.000 C 
BRANCH  12  13
ATOM     13  C   UNL     1       5.855   5.711  17.476  0.00  0.00    +0.000 A 
ATOM     14  C   UNL     1       6.586   5.130  18.530  0.00  0.00    +0.000 A 
ATOM     15  C   UNL     1       7.700   5.764  19.082  0.00  0.00    +0.000 A 
ATOM     16  C   UNL     1       8.108   6.998  18.590  0.00  0.00    +0.000 A 
ATOM     17  C   UNL     1       7.402   7.595  17.549  0.00  0.00    +0.000 A 
ATOM     18  C   UNL     1       6.287   6.957  16.994  0.00  0.00    +0.000 A 
ENDBRANCH  12  13
BRANCH  12  20
ATOM     19  C   UNL     1       5.730   4.393  14.499  0.00  0.00    +0.000 C 
ATOM     20  C   UNL     1       5.113   3.880  15.790  0.00  0.00    +0.000 C 
ENDBRANCH  12  20
ENDBRANCH   1  12
TORSDOF 3
ENDMDL
MODEL 3
REMARK VINA RESULT:      -7.5      0.207      1.093
REMARK  Name = 
REMARK  4 active torsions:
REMARK  status: ('A' for Active; 'I' for Inactive)
REMARK    1  A    between atoms: C_1  and  C_2
REMARK    2  A    between atoms: C_2  and  C_3
REMARK    3  A    between atoms: C_3  and  C_4
REMARK    4  A    between atoms: C_3  and  C_15
REMARK                            x       y       z     vdW  Elec       q    Type
REMARK                         _______ _______ _______ _____ _____    ______ ____
ROOT
ATOM      1  C   UNL     1       4.982   6.149  16.837  0.00  0.00    +0.000 C 
ATOM      2  O   UNL     1       4.413   7.036  16.182  0.00  0.00    +0.000 OA
ATOM      3  N   UNL     1       4.322   5.504  17.872  0.00  0.00    +0.000 N 
ATOM      4  C   UNL     1       2.883   5.741  18.073  0.00  0.00    +0.000 C 
ATOM      5  C   UNL     1       2.134   4.428  18.371  0.00  0.00    +0.000 C 
ATOM      6  C   UNL     1       2.829   3.621  19.444  0.00  0.00    +0.000 C 
ATOM      7  C   UNL     1       2.214   3.139  20.505  0.00  0.00    +0.000 C 
ATOM      8  C   UNL     1       2.357   2.400  21.696  0.00  0.00    +0.000 C 
ATOM      9  C   UNL     1       1.004   3.007  21.207  0.00  0.00    +0.000 C 
ATOM     10  C   UNL     1       4.310   3.444  19.226  0.00  0.00    +0.000 C 
ATOM     11  C   UNL     1       4.970   4.804  18.983  0.00  0.00    +0.000 C 
ENDROOT
BRANCH   1  12
ATOM     12  C   UNL     1       6.397   5.705  16.400  0.00  0.00    +0.000 C 
BRANCH  12  13
ATOM     13  C   UNL     1       6.486   5.146  14.976  0.00  0.00    +0.000 A 
ATOM     14  C   UNL     1       7.536   5.482  14.101  0.00  0.00    +0.000 A 
ATOM     15  C   UNL     1       7.655   4.891  12.842  0.00  0.00    +0.000 A 
ATOM     16  C   UNL     1       6.720   3.949  12.429  0.00  0.00    +0.000 A 
ATOM     17  C   UNL     1       5.671   3.600  13.275  0.00  0.00    +0.000 A 
ATOM     18  C   UNL     1       5.555   4.189  14.539  0.00  0.00    +0.000 A 
ENDBRANCH  12  13
BRANCH  12  20
ATOM     19  C   UNL     1       7.807   6.848  18.239  0.00  0.00    +0.000 C 
ATOM     20  C   UNL     1       7.477   6.754  16.758  0.00  0.00    +0.000 C 
ENDBRANCH  12  20
ENDBRANCH   1  12
TORSDOF 3
ENDMDL
MODEL 4
REMARK VINA RESULT:      -7.3      2.707      4.607
REMARK  Name = 
REMARK  4 active torsions:
REMARK  status: ('A' for Active; 'I' for Inactive)
REMARK    1  A    between atoms: C_1  and  C_2
REMARK    2  A    between atoms: C_2  and  C_3
REMARK    3  A    between atoms: C_3  and  C_4
REMARK    4  A    between atoms: C_3  and  C_15
REMARK                            x       y       z     vdW  Elec       q    Type
REMARK                         _______ _______ _______ _____ _____    ______ ____
ROOT
ATOM      1  C   UNL     1       3.665   4.487  17.850  0.00  0.00    +0.000 C 
ATOM      2  O   UNL     1       3.632   3.297  18.199  0.00  0.00    +0.000 OA
ATOM      3  N   UNL     1       2.846   5.424  18.461  0.00  0.00    +0.000 N 
ATOM      4  C   UNL     1       2.070   5.043  19.652  0.00  0.00    +0.000 C 
ATOM      5  C   UNL     1       2.118   6.141  20.730  0.00  0.00    +0.000 C 
ATOM      6  C   UNL     1       1.814   7.505  20.151  0.00  0.00    +0.000 C 
ATOM      7  C   UNL     1       0.918   8.328  20.657  0.00  0.00    +0.000 C 
ATOM      8  C   UNL     1       0.292   9.584  20.534  0.00  0.00    +0.000 C 
ATOM      9  C   UNL     1      -0.037   8.556  21.663  0.00  0.00    +0.000 C 
ATOM     10  C   UNL     1       2.592   7.836  18.904  0.00  0.00    +0.000 C 
ATOM     11  C   UNL     1       2.448   6.708  17.879  0.00  0.00    +0.000 C 
ENDROOT
BRANCH   1  12
ATOM     12  C   UNL     1       4.718   4.917  16.802  0.00  0.00    +0.000 C 
BRANCH  12  13
ATOM     13  C   UNL     1       5.940   5.642  17.375  0.00  0.00    +0.000 A 
ATOM     14  C   UNL     1       6.300   6.942  16.971  0.00  0.00    +0.000 A 
ATOM     15  C   UNL     1       7.360   7.625  17.570  0.00  0.00    +0.000 A 
ATOM     16  C   UNL     1       8.086   7.019  18.589  0.00  0.00    +0.000 A 
ATOM     17  C   UNL     1       7.751   5.734  19.006  0.00  0.00    +0.000 A 
ATOM     18  C   UNL     1       6.686   5.050  18.408  0.00  0.00    +0.000 A 
ENDBRANCH  12  13
BRANCH  12  20
ATOM     19  C   UNL     1       6.084   4.142  14.751  0.00  0.00    +0.000 C 
ATOM     20  C   UNL     1       5.041   3.784  15.798  0.00  0.00    +0.000 C 
ENDBRANCH  12  20
ENDBRANCH   1  12
TORSDOF 3
ENDMDL
MODEL 5
REMARK VINA RESULT:      -7.1      3.182      5.213
REMARK  Name = 
REMARK  4 active torsions:
REMARK  status: ('A' for Active; 'I' for Inactive)
REMARK    1  A    between atoms: C_1  and  C_2
REMARK    2  A    between atoms: C_2  and  C_3
REMARK    3  A    between atoms: C_3  and  C_4
REMARK    4  A    between atoms: C_3  and  C_15
REMARK                            x       y       z     vdW  Elec       q    Type
REMARK                         _______ _______ _______ _____ _____    ______ ____
ROOT
ATOM      1  C   UNL     1       3.372   5.185  18.716  0.00  0.00    +0.000 C 
ATOM      2  O   UNL     1       3.352   4.228  19.505  0.00  0.00    +0.000 OA
ATOM      3  N   UNL     1       2.524   6.266  18.897  0.00  0.00    +0.000 N 
ATOM      4  C   UNL     1       1.729   6.365  20.132  0.00  0.00    +0.000 C 
ATOM      5  C   UNL     1       1.734   7.801  20.691  0.00  0.00    +0.000 C 
ATOM      6  C   UNL     1       1.418   8.818  19.617  0.00  0.00    +0.000 C 
ATOM      7  C   UNL     1       0.498   9.751  19.747  0.00  0.00    +0.000 C 
ATOM      8  C   UNL     1      -0.148  10.842  19.130  0.00  0.00    +0.000 C 
ATOM      9  C   UNL     1      -0.483  10.333  20.568  0.00  0.00    +0.000 C 
ATOM     10  C   UNL     1       2.218   8.651  18.350  0.00  0.00    +0.000 C 
ATOM     11  C   UNL     1       2.115   7.207  17.851  0.00  0.00    +0.000 C 
ENDROOT
BRANCH   1  12
ATOM     12  C   UNL     1       4.439   5.193  17.597  0.00  0.00    +0.000 C 
BRANCH  12  13
ATOM     13  C   UNL     1       5.748   5.902  17.959  0.00  0.00    +0.000 A 
ATOM     14  C   UNL     1       6.626   5.403  18.940  0.00  0.00    +0.000 A 
ATOM     15  C   UNL     1       7.858   6.008  19.193  0.00  0.00    +0.000 A 
ATOM     16  C   UNL     1       8.240   7.131  18.468  0.00  0.00    +0.000 A 
ATOM     17  C   UNL     1       7.389   7.646  17.493  0.00  0.00    +0.000 A 
ATOM     18  C   UNL     1       6.156   7.037  17.237  0.00  0.00    +0.000 A 
ENDBRANCH  12  13
BRANCH  12  20
ATOM     19  C   UNL     1       5.612   3.758  15.797  0.00  0.00    +0.000 C 
ATOM     20  C   UNL     1       4.610   3.803  16.940  0.00  0.00    +0.000 C 
ENDBRANCH  12  20
ENDBRANCH   1  12
TORSDOF 3
ENDMDL
MODEL 6
REMARK VINA RESULT:      -7.0      3.307      5.549
REMARK  Name = 
REMARK  4 active torsions:
REMARK  status: ('A' for Active; 'I' for Inactive)
REMARK    1  A    between atoms: C_1  and  C_2
REMARK    2  A    between atoms: C_2  and  C_3
REMARK    3  A    between atoms: C_3  and  C_4
REMARK    4  A    between atoms: C_3  and  C_15
REMARK                            x       y       z     vdW  Elec       q    Type
REMARK                         _______ _______ _______ _____ _____    ______ ____
ROOT
ATOM      1  C   UNL     1       3.284   5.405  19.157  0.00  0.00    +0.000 C 
ATOM      2  O   UNL     1       3.398   4.675  20.154  0.00  0.00    +0.000 OA
ATOM      3  N   UNL     1       2.409   6.479  19.166  0.00  0.00    +0.000 N 
ATOM      4  C   UNL     1       1.750   6.868  20.424  0.00  0.00    +0.000 C 
ATOM      5  C   UNL     1       1.746   8.397  20.607  0.00  0.00    +0.000 C 
ATOM      6  C   UNL     1       1.265   9.107  19.362  0.00  0.00    +0.000 C 
ATOM      7  C   UNL     1       0.320  10.025  19.365  0.00  0.00    +0.000 C 
ATOM      8  C   UNL     1      -0.442  10.913  18.580  0.00  0.00    +0.000 C 
ATOM      9  C   UNL     1      -0.592  10.774  20.128  0.00  0.00    +0.000 C 
ATOM     10  C   UNL     1       1.929   8.645  18.089  0.00  0.00    +0.000 C 
ATOM     11  C   UNL     1       1.843   7.120  17.977  0.00  0.00    +0.000 C 
ENDROOT
BRANCH   1  12
ATOM     12  C   UNL     1       4.221   5.154  17.953  0.00  0.00    +0.000 C 
BRANCH  12  13
ATOM     13  C   UNL     1       5.624   5.757  18.091  0.00  0.00    +0.000 A 
ATOM     14  C   UNL     1       6.070   6.814  17.276  0.00  0.00    +0.000 A 
ATOM     15  C   UNL     1       7.314   7.415  17.475  0.00  0.00    +0.000 A 
ATOM     16  C   UNL     1       8.142   6.967  18.498  0.00  0.00    +0.000 A 
ATOM     17  C   UNL     1       7.725   5.922  19.318  0.00  0.00    +0.000 A 
ATOM     18  C   UNL     1       6.476   5.323  19.120  0.00  0.00    +0.000 A 
ENDBRANCH  12  13
BRANCH  12  20
ATOM     19  C   UNL     1       2.808   3.168  17.098  0.00  0.00    +0.000 C 
ATOM     20  C   UNL     1       4.187   3.681  17.480  0.00  0.00    +0.000 C 
ENDBRANCH  12  20
ENDBRANCH   1  12
TORSDOF 3
ENDMDL
MODEL 7
REMARK VINA RESULT:      -6.9      1.448      1.987
REMARK  Name = 
REMARK  4 active torsions:
REMARK  status: ('A' for Active; 'I' for Inactive)
REMARK    1  A    between atoms: C_1  and  C_2
REMARK    2  A    between atoms: C_2  and  C_3
REMARK    3  A    between atoms: C_3  and  C_4
REMARK    4  A    between atoms: C_3  and  C_15
REMARK                            x       y       z     vdW  Elec       q    Type
REMARK                         _______ _______ _______ _____ _____    ______ ____
ROOT
ATOM      1  C   UNL     1       6.392   4.662  17.000  0.00  0.00    +0.000 C 
ATOM      2  O   UNL     1       7.506   4.448  17.502  0.00  0.00    +0.000 OA
ATOM      3  N   UNL     1       5.241   4.185  17.608  0.00  0.00    +0.000 N 
ATOM      4  C   UNL     1       5.325   3.585  18.949  0.00  0.00    +0.000 C 
ATOM      5  C   UNL     1       4.172   4.062  19.852  0.00  0.00    +0.000 C 
ATOM      6  C   UNL     1       2.835   3.944  19.157  0.00  0.00    +0.000 C 
ATOM      7  C   UNL     1       1.786   3.351  19.691  0.00  0.00    +0.000 C 
ATOM      8  C   UNL     1       0.437   2.988  19.508  0.00  0.00    +0.000 C 
ATOM      9  C   UNL     1       1.255   2.671  20.800  0.00  0.00    +0.000 C 
ATOM     10  C   UNL     1       2.805   4.527  17.767  0.00  0.00    +0.000 C 
ATOM     11  C   UNL     1       3.959   3.961  16.936  0.00  0.00    +0.000 C 
ENDROOT
BRANCH   1  12
ATOM     12  C   UNL     1       6.312   5.565  15.746  0.00  0.00    +0.000 C 
BRANCH  12  13
ATOM     13  C   UNL     1       6.464   4.829  14.411  0.00  0.00    +0.000 A 
ATOM     14  C   UNL     1       5.511   3.899  13.952  0.00  0.00    +0.000 A 
ATOM     15  C   UNL     1       5.616   3.308  12.693  0.00  0.00    +0.000 A 
ATOM     16  C   UNL     1       6.681   3.633  11.862  0.00  0.00    +0.000 A 
ATOM     17  C   UNL     1       7.638   4.549  12.292  0.00  0.00    +0.000 A 
ATOM     18  C   UNL     1       7.531   5.145  13.553  0.00  0.00    +0.000 A 
ENDBRANCH  12  13
BRANCH  12  20
ATOM     19  C   UNL     1       5.084   7.413  17.070  0.00  0.00    +0.000 C 
ATOM     20  C   UNL     1       5.126   6.557  15.814  0.00  0.00    +0.000 C 
ENDBRANCH  12  20
ENDBRANCH   1  12
TORSDOF 3
ENDMDL
MODEL 8
REMARK VINA RESULT:      -6.9      4.398      6.670
REMARK  Name = 
REMARK  4 active torsions:
REMARK  status: ('A' for Active; 'I' for Inactive)
REMARK    1  A    between atoms: C_1  and  C_2
REMARK    2  A    between atoms: C_2  and  C_3
REMARK    3  A    between atoms: C_3  and  C_4
REMARK    4  A    between atoms: C_3  and  C_15
REMARK                            x       y       z     vdW  Elec       q    Type
REMARK                         _______ _______ _______ _____ _____    ______ ____
ROOT
ATOM      1  C   UNL     1       2.494   7.917  18.363  0.00  0.00    +0.000 C 
ATOM      2  O   UNL     1       2.530   8.192  17.154  0.00  0.00    +0.000 OA
ATOM      3  N   UNL     1       1.764   8.700  19.243  0.00  0.00    +0.000 N 
ATOM      4  C   UNL     1       0.877   9.750  18.716  0.00  0.00    +0.000 C 
ATOM      5  C   UNL     1      -0.476   9.766  19.451  0.00  0.00    +0.000 C 
ATOM      6  C   UNL     1      -0.295   9.745  20.952  0.00  0.00    +0.000 C 
ATOM      7  C   UNL     1      -0.882  10.597  21.768  0.00  0.00    +0.000 C 
ATOM      8  C   UNL     1      -1.049  10.997  23.109  0.00  0.00    +0.000 C 
ATOM      9  C   UNL     1      -1.750  11.695  21.900  0.00  0.00    +0.000 C 
ATOM     10  C   UNL     1       0.658   8.688  21.447  0.00  0.00    +0.000 C 
ATOM     11  C   UNL     1       1.985   8.781  20.689  0.00  0.00    +0.000 C 
ENDROOT
BRANCH   1  12
ATOM     12  C   UNL     1       3.189   6.621  18.843  0.00  0.00    +0.000 C 
BRANCH  12  13
ATOM     13  C   UNL     1       2.253   5.424  19.041  0.00  0.00    +0.000 A 
ATOM     14  C   UNL     1       1.902   4.562  17.985  0.00  0.00    +0.000 A 
ATOM     15  C   UNL     1       1.125   3.422  18.200  0.00  0.00    +0.000 A 
ATOM     16  C   UNL     1       0.680   3.120  19.481  0.00  0.00    +0.000 A 
ATOM     17  C   UNL     1       1.013   3.956  20.543  0.00  0.00    +0.000 A 
ATOM     18  C   UNL     1       1.795   5.097  20.328  0.00  0.00    +0.000 A 
ENDBRANCH  12  13
BRANCH  12  20
ATOM     19  C   UNL     1       5.469   5.410  18.756  0.00  0.00    +0.000 C 
ATOM     20  C   UNL     1       4.479   6.317  18.044  0.00  0.00    +0.000 C 
ENDBRANCH  12  20
ENDBRANCH   1  12
TORSDOF 3
ENDMDL
MODEL 9
REMARK VINA RESULT:      -6.8      1.619      6.832
REMARK  Name = 
REMARK  4 active torsions:
REMARK  status: ('A' for Active; 'I' for Inactive)
REMARK    1  A    between atoms: C_1  and  C_2
REMARK    2  A    between atoms: C_2  and  C_3
REMARK    3  A    between atoms: C_3  and  C_4
REMARK    4  A    between atoms: C_3  and  C_15
REMARK                            x       y       z     vdW  Elec       q    Type
REMARK                         _______ _______ _______ _____ _____    ______ ____
ROOT
ATOM      1  C   UNL     1       4.674   5.793  18.382  0.00  0.00    +0.000 C 
ATOM      2  O   UNL     1       5.207   5.582  19.483  0.00  0.00    +0.000 OA
ATOM      3  N   UNL     1       5.432   5.799  17.222  0.00  0.00    +0.000 N 
ATOM      4  C   UNL     1       6.839   5.371  17.272  0.00  0.00    +0.000 C 
ATOM      5  C   UNL     1       7.194   4.464  16.078  0.00  0.00    +0.000 C 
ATOM      6  C   UNL     1       6.730   5.060  14.769  0.00  0.00    +0.000 C 
ATOM      7  C   UNL     1       7.509   5.199  13.715  0.00  0.00    +0.000 C 
ATOM      8  C   UNL     1       7.593   5.645  12.381  0.00  0.00    +0.000 C 
ATOM      9  C   UNL     1       8.786   5.006  13.160  0.00  0.00    +0.000 C 
ATOM     10  C   UNL     1       5.298   5.532  14.774  0.00  0.00    +0.000 C 
ATOM     11  C   UNL     1       5.056   6.458  15.969  0.00  0.00    +0.000 C 
ENDROOT
BRANCH   1  12
ATOM     12  C   UNL     1       3.135   5.935  18.326  0.00  0.00    +0.000 C 
BRANCH  12  13
ATOM     13  C   UNL     1       2.357   4.738  18.881  0.00  0.00    +0.000 A 
ATOM     14  C   UNL     1       1.849   4.715  20.194  0.00  0.00    +0.000 A 
ATOM     15  C   UNL     1       1.062   3.658  20.654  0.00  0.00    +0.000 A 
ATOM     16  C   UNL     1       0.766   2.596  19.808  0.00  0.00    +0.000 A 
ATOM     17  C   UNL     1       1.257   2.593  18.505  0.00  0.00    +0.000 A 
ATOM     18  C   UNL     1       2.042   3.655  18.042  0.00  0.00    +0.000 A 
ENDBRANCH  12  13
BRANCH  12  20
ATOM     19  C   UNL     1       2.232   8.283  17.736  0.00  0.00    +0.000 C 
ATOM     20  C   UNL     1       2.655   7.317  18.832  0.00  0.00    +0.000 C 
ENDBRANCH  12  20
ENDBRANCH   1  12
TORSDOF 3
ENDMDL
