MODEL 1
REMARK VINA RESULT:      -7.5      0.000      0.000
REMARK  Name = 
REMARK  4 active torsions:
REMARK  status: ('A' for Active; 'I' for Inactive)
REMARK    1  A    between atoms: C_1  and  N_2
REMARK    2  A    between atoms: N_2  and  C_3
REMARK    3  A    between atoms: N_2  and  C_4
REMARK    4  A    between atoms: C_7  and  C_8
REMARK                            x       y       z     vdW  Elec       q    Type
REMARK                         _______ _______ _______ _____ _____    ______ ____
ROOT
ATOM      1  C   UNL     1       2.410   7.233  19.626  0.00  0.00    +0.000 C 
ATOM      2  C   UNL     1       1.819   8.440  19.495  0.00  0.00    +0.000 A 
ATOM      3  S   UNL     1       1.805   9.242  17.921  0.00  0.00    +0.000 S 
ATOM      4  C   UNL     1       0.252   9.791  18.299  0.00  0.00    +0.000 A 
ATOM      5  N   UNL     1      -0.794   9.970  17.552  0.00  0.00    +0.000 NA
ATOM      6  C   UNL     1      -1.622  10.639  18.398  0.00  0.00    +0.000 A 
ATOM      7  C   UNL     1      -2.833  11.253  18.050  0.00  0.00    +0.000 A 
ATOM      8  C   UNL     1      -3.350  12.198  18.923  0.00  0.00    +0.000 A 
ATOM      9  C   UNL     1      -2.735  12.439  20.156  0.00  0.00    +0.000 A 
ATOM     10  C   UNL     1      -1.626  11.684  20.606  0.00  0.00    +0.000 A 
ATOM     11  C   UNL     1      -1.073  10.779  19.686  0.00  0.00    +0.000 A 
ATOM     12  N   UNL     1       0.018   9.929  19.629  0.00  0.00    +0.000 N 
ATOM     13  C   UNL     1       0.896   9.206  20.452  0.00  0.00    +0.000 A 
ATOM     14  O   UNL     1       0.782   9.174  21.662  0.00  0.00    +0.000 OA
ENDROOT
BRANCH   1  18
ATOM     15  C   UNL     1       4.686   5.080  16.627  0.00  0.00    +0.000 A 
ATOM     16  C   UNL     1       3.615   4.466  17.299  0.00  0.00    +0.000 A 
ATOM     17  C   UNL     1       2.777   5.175  18.194  0.00  0.00    +0.000 A 
ATOM     18  C   UNL     1       2.960   6.543  18.418  0.00  0.00    +0.000 A 
ATOM     19  C   UNL     1       3.933   7.195  17.649  0.00  0.00    +0.000 A 
ATOM     20  C   UNL     1       4.774   6.474  16.779  0.00  0.00    +0.000 A 
BRANCH  15  22
ATOM     21  C   UNL     1       7.032   4.356  16.259  0.00  0.00    +0.000 C 
ATOM     22  N   UNL     1       5.626   4.373  15.856  0.00  0.00    +0.000 N 
ATOM     23  C   UNL     1       5.405   4.378  14.403  0.00  0.00    +0.000 C 
ENDBRANCH  15  22
ENDBRANCH   1  18
TORSDOF 2
ENDMDL
MODEL 2
REMARK VINA RESULT:      -7.4      2.593      8.281
REMARK  Name = 
REMARK  4 active torsions:
REMARK  status: ('A' for Active; 'I' for Inactive)
REMARK    1  A    between atoms: C_1  and  N_2
REMARK    2  A    between atoms: N_2  and  C_3
REMARK    3  A    between atoms: N_2  and  C_4
REMARK    4  A    between atoms: C_7  and  C_8
REMARK                            x       y       z     vdW  Elec       q    Type
REMARK                         _______ _______ _______ _____ _____    ______ ____
ROOT
ATOM      1  C   UNL     1       2.092   9.182  17.829  0.00  0.00    +0.000 C 
ATOM      2  C   UNL     1       2.584   8.028  18.328  0.00  0.00    +0.000 A 
ATOM      3  S   UNL     1       1.992   7.422  19.878  0.00  0.00    +0.000 S 
ATOM      4  C   UNL     1       2.111   5.866  19.230  0.00  0.00    +0.000 A 
ATOM      5  N   UNL     1       1.369   4.814  19.397  0.00  0.00    +0.000 NA
ATOM      6  C   UNL     1       2.123   3.851  18.804  0.00  0.00    +0.000 A 
ATOM      7  C   UNL     1       1.885   2.471  18.855  0.00  0.00    +0.000 A 
ATOM      8  C   UNL     1       2.934   1.624  18.532  0.00  0.00    +0.000 A 
ATOM      9  C   UNL     1       4.147   2.141  18.064  0.00  0.00    +0.000 A 
ATOM     10  C   UNL     1       4.333   3.521  17.816  0.00  0.00    +0.000 A 
ATOM     11  C   UNL     1       3.288   4.372  18.211  0.00  0.00    +0.000 A 
ATOM     12  N   UNL     1       3.054   5.735  18.262  0.00  0.00    +0.000 N 
ATOM     13  C   UNL     1       3.447   6.944  17.667  0.00  0.00    +0.000 A 
ATOM     14  O   UNL     1       4.236   6.993  16.743  0.00  0.00    +0.000 OA
ENDROOT
BRANCH   1  18
ATOM     15  C   UNL     1      -0.963  11.858  19.348  0.00  0.00    +0.000 A 
ATOM     16  C   UNL     1      -1.302  10.766  18.531  0.00  0.00    +0.000 A 
ATOM     17  C   UNL     1      -0.347   9.806  18.117  0.00  0.00    +0.000 A 
ATOM     18  C   UNL     1       0.982   9.885  18.544  0.00  0.00    +0.000 A 
ATOM     19  C   UNL     1       1.301  10.887  19.471  0.00  0.00    +0.000 A 
ATOM     20  C   UNL     1       0.346  11.849  19.856  0.00  0.00    +0.000 A 
BRANCH  15  22
ATOM     21  C   UNL     1      -1.360  14.096  20.347  0.00  0.00    +0.000 C 
ATOM     22  N   UNL     1      -1.850  12.908  19.648  0.00  0.00    +0.000 N 
ATOM     23  C   UNL     1      -3.223  12.516  19.995  0.00  0.00    +0.000 C 
ENDBRANCH  15  22
ENDBRANCH   1  18
TORSDOF 2
ENDMDL
MODEL 3
REMARK VINA RESULT:      -7.3      2.767      8.092
REMARK  Name = 
REMARK  4 active torsions:
REMARK  status: ('A' for Active; 'I' for Inactive)
REMARK    1  A    between atoms: C_1  and  N_2
REMARK    2  A    between atoms: N_2  and  C_3
REMARK    3  A    between atoms: N_2  and  C_4
REMARK    4  A    between atoms: C_7  and  C_8
REMARK                            x       y       z     vdW  Elec       q    Type
REMARK                         _______ _______ _______ _____ _____    ______ ____
ROOT
ATOM      1  C   UNL     1       1.892   9.134  17.664  0.00  0.00    +0.000 C 
ATOM      2  C   UNL     1       2.375   8.211  18.524  0.00  0.00    +0.000 A 
ATOM      3  S   UNL     1       1.885   8.254  20.220  0.00  0.00    +0.000 S 
ATOM      4  C   UNL     1       1.890   6.564  20.186  0.00  0.00    +0.000 A 
ATOM      5  N   UNL     1       1.121   5.698  20.772  0.00  0.00    +0.000 NA
ATOM      6  C   UNL     1       1.787   4.537  20.532  0.00  0.00    +0.000 A 
ATOM      7  C   UNL     1       1.499   3.290  21.103  0.00  0.00    +0.000 A 
ATOM      8  C   UNL     1       2.484   2.316  21.054  0.00  0.00    +0.000 A 
ATOM      9  C   UNL     1       3.676   2.544  20.357  0.00  0.00    +0.000 A 
ATOM     10  C   UNL     1       3.897   3.724  19.607  0.00  0.00    +0.000 A 
ATOM     11  C   UNL     1       2.922   4.727  19.721  0.00  0.00    +0.000 A 
ATOM     12  N   UNL     1       2.746   6.027  19.280  0.00  0.00    +0.000 N 
ATOM     13  C   UNL     1       3.140   6.906  18.259  0.00  0.00    +0.000 A 
ATOM     14  O   UNL     1       3.854   6.562  17.337  0.00  0.00    +0.000 OA
ENDROOT
BRANCH   1  18
ATOM     15  C   UNL     1      -1.099  11.500  19.727  0.00  0.00    +0.000 A 
ATOM     16  C   UNL     1       0.240  11.923  19.665  0.00  0.00    +0.000 A 
ATOM     17  C   UNL     1       1.215  11.238  18.901  0.00  0.00    +0.000 A 
ATOM     18  C   UNL     1       0.872  10.121  18.133  0.00  0.00    +0.000 A 
ATOM     19  C   UNL     1      -0.485   9.775  18.074  0.00  0.00    +0.000 A 
ATOM     20  C   UNL     1      -1.441  10.451  18.858  0.00  0.00    +0.000 A 
BRANCH  15  22
ATOM     21  C   UNL     1      -3.261  12.678  20.044  0.00  0.00    +0.000 C 
ATOM     22  N   UNL     1      -2.053  12.064  20.594  0.00  0.00    +0.000 N 
ATOM     23  C   UNL     1      -1.524  12.721  21.798  0.00  0.00    +0.000 C 
ENDBRANCH  15  22
ENDBRANCH   1  18
TORSDOF 2
ENDMDL
MODEL 4
REMARK VINA RESULT:      -7.3      2.691      8.384
REMARK  Name = 
REMARK  4 active torsions:
REMARK  status: ('A' for Active; 'I' for Inactive)
REMARK    1  A    between atoms: C_1  and  N_2
REMARK    2  A    between atoms: N_2  and  C_3
REMARK    3  A    between atoms: N_2  and  C_4
REMARK    4  A    between atoms: C_7  and  C_8
REMARK                            x       y       z     vdW  Elec       q    Type
REMARK                         _______ _______ _______ _____ _____    ______ ____
ROOT
ATOM      1  C   UNL     1       1.321   9.332  18.116  0.00  0.00    +0.000 C 
ATOM      2  C   UNL     1       2.029   8.404  18.795  0.00  0.00    +0.000 A 
ATOM      3  S   UNL     1       1.638   8.069  20.485  0.00  0.00    +0.000 S 
ATOM      4  C   UNL     1       1.980   6.445  20.164  0.00  0.00    +0.000 A 
ATOM      5  N   UNL     1       1.436   5.355  20.612  0.00  0.00    +0.000 NA
ATOM      6  C   UNL     1       2.306   4.412  20.163  0.00  0.00    +0.000 A 
ATOM      7  C   UNL     1       2.308   3.057  20.521  0.00  0.00    +0.000 A 
ATOM      8  C   UNL     1       3.464   2.330  20.284  0.00  0.00    +0.000 A 
ATOM      9  C   UNL     1       4.544   2.910  19.609  0.00  0.00    +0.000 A 
ATOM     10  C   UNL     1       4.480   4.215  19.066  0.00  0.00    +0.000 A 
ATOM     11  C   UNL     1       3.331   4.962  19.371  0.00  0.00    +0.000 A 
ATOM     12  N   UNL     1       2.874   6.251  19.161  0.00  0.00    +0.000 N 
ATOM     13  C   UNL     1       3.023   7.346  18.296  0.00  0.00    +0.000 A 
ATOM     14  O   UNL     1       3.738   7.311  17.313  0.00  0.00    +0.000 OA
ENDROOT
BRANCH   1  18
ATOM     15  C   UNL     1      -1.785  11.965  19.606  0.00  0.00    +0.000 A 
ATOM     16  C   UNL     1      -2.049  11.049  18.572  0.00  0.00    +0.000 A 
ATOM     17  C   UNL     1      -1.094  10.095  18.145  0.00  0.00    +0.000 A 
ATOM     18  C   UNL     1       0.153   9.998  18.770  0.00  0.00    +0.000 A 
ATOM     19  C   UNL     1       0.374  10.808  19.892  0.00  0.00    +0.000 A 
ATOM     20  C   UNL     1      -0.576  11.768  20.292  0.00  0.00    +0.000 A 
BRANCH  15  22
ATOM     21  C   UNL     1      -2.173  14.101  20.810  0.00  0.00    +0.000 C 
ATOM     22  N   UNL     1      -2.651  13.020  19.947  0.00  0.00    +0.000 N 
ATOM     23  C   UNL     1      -4.064  12.663  20.137  0.00  0.00    +0.000 C 
ENDBRANCH  15  22
ENDBRANCH   1  18
TORSDOF 2
ENDMDL
MODEL 5
REMARK VINA RESULT:      -7.2      2.523      4.001
REMARK  Name = 
REMARK  4 active torsions:
REMARK  status: ('A' for Active; 'I' for Inactive)
REMARK    1  A    between atoms: C_1  and  N_2
REMARK    2  A    between atoms: N_2  and  C_3
REMARK    3  A    between atoms: N_2  and  C_4
REMARK    4  A    between atoms: C_7  and  C_8
REMARK                            x       y       z     vdW  Elec       q    Type
REMARK                         _______ _______ _______ _____ _____    ______ ____
ROOT
ATOM      1  C   UNL     1       4.742   4.203  18.064  0.00  0.00    +0.000 C 
ATOM      2  C   UNL     1       4.373   5.426  18.504  0.00  0.00    +0.000 A 
ATOM      3  S   UNL     1       4.911   6.867  17.637  0.00  0.00    +0.000 S 
ATOM      4  C   UNL     1       3.398   7.543  17.972  0.00  0.00    +0.000 A 
ATOM      5  N   UNL     1       2.641   8.328  17.269  0.00  0.00    +0.000 NA
ATOM      6  C   UNL     1       1.698   8.686  18.181  0.00  0.00    +0.000 A 
ATOM      7  C   UNL     1       0.726   9.681  18.013  0.00  0.00    +0.000 A 
ATOM      8  C   UNL     1       0.106  10.174  19.151  0.00  0.00    +0.000 A 
ATOM      9  C   UNL     1       0.369   9.612  20.405  0.00  0.00    +0.000 A 
ATOM     10  C   UNL     1       1.197   8.475  20.563  0.00  0.00    +0.000 A 
ATOM     11  C   UNL     1       1.870   8.029  19.415  0.00  0.00    +0.000 A 
ATOM     12  N   UNL     1       2.813   7.067  19.101  0.00  0.00    +0.000 N 
ATOM     13  C   UNL     1       3.320   5.835  19.543  0.00  0.00    +0.000 A 
ATOM     14  O   UNL     1       2.862   5.245  20.503  0.00  0.00    +0.000 OA
ENDROOT
BRANCH   1  18
ATOM     15  C   UNL     1       6.727   4.640  14.233  0.00  0.00    +0.000 A 
ATOM     16  C   UNL     1       7.449   4.736  15.436  0.00  0.00    +0.000 A 
ATOM     17  C   UNL     1       6.857   4.480  16.696  0.00  0.00    +0.000 A 
ATOM     18  C   UNL     1       5.521   4.077  16.794  0.00  0.00    +0.000 A 
ATOM     19  C   UNL     1       4.832   3.841  15.596  0.00  0.00    +0.000 A 
ATOM     20  C   UNL     1       5.427   4.121  14.350  0.00  0.00    +0.000 A 
BRANCH  15  22
ATOM     21  C   UNL     1       7.092   4.154  11.826  0.00  0.00    +0.000 C 
ATOM     22  N   UNL     1       7.241   5.035  12.985  0.00  0.00    +0.000 N 
ATOM     23  C   UNL     1       8.495   5.801  13.015  0.00  0.00    +0.000 C 
ENDBRANCH  15  22
ENDBRANCH   1  18
TORSDOF 2
ENDMDL
MODEL 6
REMARK VINA RESULT:      -7.2      3.300      8.208
REMARK  Name = 
REMARK  4 active torsions:
REMARK  status: ('A' for Active; 'I' for Inactive)
REMARK    1  A    between atoms: C_1  and  N_2
REMARK    2  A    between atoms: N_2  and  C_3
REMARK    3  A    between atoms: N_2  and  C_4
REMARK    4  A    between atoms: C_7  and  C_8
REMARK                            x       y       z     vdW  Elec       q    Type
REMARK                         _______ _______ _______ _____ _____    ______ ____
ROOT
ATOM      1  C   UNL     1       0.891  11.365  20.675  0.00  0.00    +0.000 C 
ATOM      2  C   UNL     1       0.894  10.132  20.123  0.00  0.00    +0.000 A 
ATOM      3  S   UNL     1       0.737   9.957  18.373  0.00  0.00    +0.000 S 
ATOM      4  C   UNL     1       1.826   8.669  18.480  0.00  0.00    +0.000 A 
ATOM      5  N   UNL     1       2.764   8.277  17.673  0.00  0.00    +0.000 NA
ATOM      6  C   UNL     1       3.101   7.074  18.210  0.00  0.00    +0.000 A 
ATOM      7  C   UNL     1       3.944   6.119  17.627  0.00  0.00    +0.000 A 
ATOM      8  C   UNL     1       3.878   4.821  18.110  0.00  0.00    +0.000 A 
ATOM      9  C   UNL     1       3.078   4.513  19.216  0.00  0.00    +0.000 A 
ATOM     10  C   UNL     1       2.377   5.507  19.939  0.00  0.00    +0.000 A 
ATOM     11  C   UNL     1       2.398   6.803  19.399  0.00  0.00    +0.000 A 
ATOM     12  N   UNL     1       1.814   8.027  19.676  0.00  0.00    +0.000 N 
ATOM     13  C   UNL     1       1.259   8.770  20.729  0.00  0.00    +0.000 A 
ATOM     14  O   UNL     1       1.230   8.362  21.874  0.00  0.00    +0.000 OA
ENDROOT
BRANCH   1  18
ATOM     15  C   UNL     1       0.731  15.298  18.857  0.00  0.00    +0.000 A 
ATOM     16  C   UNL     1       1.944  14.595  18.951  0.00  0.00    +0.000 A 
ATOM     17  C   UNL     1       2.012  13.263  19.427  0.00  0.00    +0.000 A 
ATOM     18  C   UNL     1       0.853  12.572  19.793  0.00  0.00    +0.000 A 
ATOM     19  C   UNL     1      -0.374  13.212  19.572  0.00  0.00    +0.000 A 
ATOM     20  C   UNL     1      -0.425  14.544  19.117  0.00  0.00    +0.000 A 
BRANCH  15  22
ATOM     21  C   UNL     1      -0.602  17.215  18.014  0.00  0.00    +0.000 C 
ATOM     22  N   UNL     1       0.649  16.665  18.535  0.00  0.00    +0.000 N 
ATOM     23  C   UNL     1       1.865  17.273  17.977  0.00  0.00    +0.000 C 
ENDBRANCH  15  22
ENDBRANCH   1  18
TORSDOF 2
ENDMDL
MODEL 7
REMARK VINA RESULT:      -6.9      1.659      2.256
REMARK  Name = 
REMARK  4 active torsions:
REMARK  status: ('A' for Active; 'I' for Inactive)
REMARK    1  A    between atoms: C_1  and  N_2
REMARK    2  A    between atoms: N_2  and  C_3
REMARK    3  A    between atoms: N_2  and  C_4
REMARK    4  A    between atoms: C_7  and  C_8
REMARK                            x       y       z     vdW  Elec       q    Type
REMARK                         _______ _______ _______ _____ _____    ______ ____
ROOT
ATOM      1  C   UNL     1       1.652   7.230  21.263  0.00  0.00    +0.000 C 
ATOM      2  C   UNL     1       1.364   8.533  21.056  0.00  0.00    +0.000 A 
ATOM      3  S   UNL     1       1.329   9.172  19.410  0.00  0.00    +0.000 S 
ATOM      4  C   UNL     1       0.027  10.136  19.892  0.00  0.00    +0.000 A 
ATOM      5  N   UNL     1      -1.036  10.514  19.251  0.00  0.00    +0.000 NA
ATOM      6  C   UNL     1      -1.549  11.445  20.098  0.00  0.00    +0.000 A 
ATOM      7  C   UNL     1      -2.608  12.319  19.818  0.00  0.00    +0.000 A 
ATOM      8  C   UNL     1      -2.751  13.437  20.625  0.00  0.00    +0.000 A 
ATOM      9  C   UNL     1      -1.930  13.617  21.744  0.00  0.00    +0.000 A 
ATOM     10  C   UNL     1      -0.990  12.642  22.153  0.00  0.00    +0.000 A 
ATOM     11  C   UNL     1      -0.809  11.549  21.291  0.00  0.00    +0.000 A 
ATOM     12  N   UNL     1       0.020  10.444  21.214  0.00  0.00    +0.000 N 
ATOM     13  C   UNL     1       0.799   9.593  22.013  0.00  0.00    +0.000 A 
ATOM     14  O   UNL     1       0.849   9.696  23.224  0.00  0.00    +0.000 OA
ENDROOT
BRANCH   1  18
ATOM     15  C   UNL     1       2.859   4.274  18.329  0.00  0.00    +0.000 A 
ATOM     16  C   UNL     1       1.730   4.067  19.140  0.00  0.00    +0.000 A 
ATOM     17  C   UNL     1       1.239   5.061  20.021  0.00  0.00    +0.000 A 
ATOM     18  C   UNL     1       1.843   6.320  20.092  0.00  0.00    +0.000 A 
ATOM     19  C   UNL     1       2.880   6.587  19.187  0.00  0.00    +0.000 A 
ATOM     20  C   UNL     1       3.373   5.581  18.332  0.00  0.00    +0.000 A 
BRANCH  15  22
ATOM     21  C   UNL     1       3.471   1.883  18.057  0.00  0.00    +0.000 C 
ATOM     22  N   UNL     1       3.460   3.260  17.561  0.00  0.00    +0.000 N 
ATOM     23  C   UNL     1       4.657   3.647  16.800  0.00  0.00    +0.000 C 
ENDBRANCH  15  22
ENDBRANCH   1  18
TORSDOF 2
ENDMDL
MODEL 8
REMARK VINA RESULT:      -6.9      2.622      8.088
REMARK  Name = 
REMARK  4 active torsions:
REMARK  status: ('A' for Active; 'I' for Inactive)
REMARK    1  A    between atoms: C_1  and  N_2
REMARK    2  A    between atoms: N_2  and  C_3
REMARK    3  A    between atoms: N_2  and  C_4
REMARK    4  A    between atoms: C_7  and  C_8
REMARK                            x       y       z     vdW  Elec       q    Type
REMARK                         _______ _______ _______ _____ _____    ______ ____
ROOT
ATOM      1  C   UNL     1       2.461   9.096  17.573  0.00  0.00    +0.000 C 
ATOM      2  C   UNL     1       2.809   7.954  18.206  0.00  0.00    +0.000 A 
ATOM      3  S   UNL     1       2.127   7.590  19.794  0.00  0.00    +0.000 S 
ATOM      4  C   UNL     1       2.076   5.969  19.318  0.00  0.00    +0.000 A 
ATOM      5  N   UNL     1       1.214   5.033  19.573  0.00  0.00    +0.000 NA
ATOM      6  C   UNL     1       1.861   3.932  19.107  0.00  0.00    +0.000 A 
ATOM      7  C   UNL     1       1.465   2.602  19.297  0.00  0.00    +0.000 A 
ATOM      8  C   UNL     1       2.414   1.612  19.095  0.00  0.00    +0.000 A 
ATOM      9  C   UNL     1       3.686   1.934  18.610  0.00  0.00    +0.000 A 
ATOM     10  C   UNL     1       4.034   3.250  18.223  0.00  0.00    +0.000 A 
ATOM     11  C   UNL     1       3.089   4.251  18.495  0.00  0.00    +0.000 A 
ATOM     12  N   UNL     1       3.012   5.629  18.396  0.00  0.00    +0.000 N 
ATOM     13  C   UNL     1       3.552   6.714  17.688  0.00  0.00    +0.000 A 
ATOM     14  O   UNL     1       4.356   6.573  16.786  0.00  0.00    +0.000 OA
ENDROOT
BRANCH   1  18
ATOM     15  C   UNL     1      -0.510  11.139  19.982  0.00  0.00    +0.000 A 
ATOM     16  C   UNL     1       0.807  11.623  19.896  0.00  0.00    +0.000 A 
ATOM     17  C   UNL     1       1.768  11.051  19.027  0.00  0.00    +0.000 A 
ATOM     18  C   UNL     1       1.429   9.993  18.179  0.00  0.00    +0.000 A 
ATOM     19  C   UNL     1       0.086   9.595  18.153  0.00  0.00    +0.000 A 
ATOM     20  C   UNL     1      -0.854  10.157  19.039  0.00  0.00    +0.000 A 
BRANCH  15  22
ATOM     21  C   UNL     1      -2.268  12.754  20.661  0.00  0.00    +0.000 C 
ATOM     22  N   UNL     1      -1.438  11.582  20.941  0.00  0.00    +0.000 N 
ATOM     23  C   UNL     1      -1.036  11.437  22.347  0.00  0.00    +0.000 C 
ENDBRANCH  15  22
ENDBRANCH   1  18
TORSDOF 2
ENDMDL
MODEL 9
REMARK VINA RESULT:      -6.8      3.759      4.860
REMARK  Name = 
REMARK  4 active torsions:
REMARK  status: ('A' for Active; 'I' for Inactive)
REMARK    1  A    between atoms: C_1  and  N_2
REMARK    2  A    between atoms: N_2  and  C_3
REMARK    3  A    between atoms: N_2  and  C_4
REMARK    4  A    between atoms: C_7  and  C_8
REMARK                            x       y       z     vdW  Elec       q    Type
REMARK                         _______ _______ _______ _____ _____    ______ ____
ROOT
ATOM      1  C   UNL     1      -0.196  10.412  19.246  0.00  0.00    +0.000 C 
ATOM      2  C   UNL     1      -0.022  11.693  19.640  0.00  0.00    +0.000 A 
ATOM      3  S   UNL     1       1.554  12.217  20.241  0.00  0.00    +0.000 S 
ATOM      4  C   UNL     1       1.278  13.691  19.462  0.00  0.00    +0.000 A 
ATOM      5  N   UNL     1       2.090  14.496  18.849  0.00  0.00    +0.000 NA
ATOM      6  C   UNL     1       1.302  15.588  18.662  0.00  0.00    +0.000 A 
ATOM      7  C   UNL     1       1.729  16.843  18.207  0.00  0.00    +0.000 A 
ATOM      8  C   UNL     1       0.896  17.927  18.434  0.00  0.00    +0.000 A 
ATOM      9  C   UNL     1      -0.373  17.745  18.996  0.00  0.00    +0.000 A 
ATOM     10  C   UNL     1      -0.896  16.460  19.275  0.00  0.00    +0.000 A 
ATOM     11  C   UNL     1      -0.018  15.378  19.104  0.00  0.00    +0.000 A 
ATOM     12  N   UNL     1      -0.034  14.012  19.327  0.00  0.00    +0.000 N 
ATOM     13  C   UNL     1      -0.915  12.926  19.443  0.00  0.00    +0.000 A 
ATOM     14  O   UNL     1      -2.115  13.036  19.286  0.00  0.00    +0.000 OA
ENDROOT
BRANCH   1  18
ATOM     15  C   UNL     1       2.593   7.098  19.041  0.00  0.00    +0.000 A 
ATOM     16  C   UNL     1       2.468   8.004  17.974  0.00  0.00    +0.000 A 
ATOM     17  C   UNL     1       1.658   9.163  18.055  0.00  0.00    +0.000 A 
ATOM     18  C   UNL     1       0.970   9.477  19.231  0.00  0.00    +0.000 A 
ATOM     19  C   UNL     1       1.198   8.659  20.346  0.00  0.00    +0.000 A 
ATOM     20  C   UNL     1       1.989   7.498  20.245  0.00  0.00    +0.000 A 
BRANCH  15  22
ATOM     21  C   UNL     1       3.490   5.269  17.623  0.00  0.00    +0.000 C 
ATOM     22  N   UNL     1       3.263   5.866  18.940  0.00  0.00    +0.000 N 
ATOM     23  C   UNL     1       3.006   4.898  20.015  0.00  0.00    +0.000 C 
ENDBRANCH  15  22
ENDBRANCH   1  18
TORSDOF 2
ENDMDL
