MODEL 1
REMARK VINA RESULT:      -9.7      0.000      0.000
REMARK  Name = 
REMARK  5 active torsions:
REMARK  status: ('A' for Active; 'I' for Inactive)
REMARK    1  A    between atoms: C_2  and  C_14
REMARK    2  A    between atoms: N_3  and  C_4
REMARK    3  A    between atoms: C_14  and  C_15
REMARK    4  A    between atoms: C_14  and  N_18
REMARK    5  A    between atoms: C_21  and  C_22
REMARK                            x       y       z     vdW  Elec       q    Type
REMARK                         _______ _______ _______ _____ _____    ______ ____
ROOT
ATOM      1  N   UNL     1       0.925  10.649  19.261  0.00  0.00    +0.000 N 
ATOM      2  C   UNL     1       1.651   9.728  18.520  0.00  0.00    +0.000 A 
ATOM      3  O   UNL     1       2.095   9.956  17.396  0.00  0.00    +0.000 OA
ATOM      4  C   UNL     1       1.878   8.353  19.156  0.00  0.00    +0.000 A 
ATOM      5  N   UNL     1       1.543   8.075  20.376  0.00  0.00    +0.000 NA
ATOM      6  C   UNL     1       0.878   9.064  21.122  0.00  0.00    +0.000 A 
ATOM      7  C   UNL     1       0.554   8.754  22.450  0.00  0.00    +0.000 A 
ATOM      8  C   UNL     1      -0.147   9.657  23.248  0.00  0.00    +0.000 A 
ATOM      9  C   UNL     1      -0.533  10.880  22.719  0.00  0.00    +0.000 A 
ATOM     10  C   UNL     1      -0.193  11.213  21.408  0.00  0.00    +0.000 A 
ATOM     11  C   UNL     1       0.522  10.322  20.592  0.00  0.00    +0.000 A 
ENDROOT
BRANCH   4  12
ATOM     12  C   UNL     1       2.540   7.370  18.326  0.00  0.00    +0.000 A 
ATOM     13  C   UNL     1       2.304   6.010  18.210  0.00  0.00    +0.000 A 
ATOM     14  C   UNL     1       3.501   5.449  17.685  0.00  0.00    +0.000 A 
ATOM     15  C   UNL     1       4.129   4.196  17.735  0.00  0.00    +0.000 A 
ATOM     16  C   UNL     1       5.327   4.020  17.031  0.00  0.00    +0.000 A 
ATOM     17  C   UNL     1       5.804   5.008  16.168  0.00  0.00    +0.000 A 
ATOM     18  C   UNL     1       5.215   6.271  16.133  0.00  0.00    +0.000 A 
ATOM     19  C   UNL     1       4.154   6.475  17.016  0.00  0.00    +0.000 A 
ATOM     20  N   UNL     1       3.662   7.630  17.565  0.00  0.00    +0.000 N 
ATOM     21  H   UNL     1       4.203   8.484  17.634  0.00  0.00    +0.000 HD
ENDBRANCH   4  12
BRANCH   1  22
ATOM     22  C   UNL     1       0.749  11.989  18.678  0.00  0.00    +0.000 C 
BRANCH  22  24
ATOM     23  O   UNL     1      -1.081  13.556  19.036  0.00  0.00    +0.000 OA
ATOM     24  C   UNL     1      -0.734  12.418  18.697  0.00  0.00    +0.000 C 
ATOM     25  N   UNL     1      -1.631  11.428  18.324  0.00  0.00    +0.000 N 
ATOM     26  H   UNL     1      -1.287  10.476  18.266  0.00  0.00    +0.000 HD
BRANCH  25  27
ATOM     27  C   UNL     1      -3.021  11.624  18.126  0.00  0.00    +0.000 A 
ATOM     28  C   UNL     1      -3.649  11.403  16.891  0.00  0.00    +0.000 A 
ATOM     29  C   UNL     1      -5.020  11.600  16.726  0.00  0.00    +0.000 A 
ATOM     30  C   UNL     1      -5.786  12.012  17.807  0.00  0.00    +0.000 A 
ATOM     31  C   UNL     1      -5.189  12.203  19.042  0.00  0.00    +0.000 A 
ATOM     32  C   UNL     1      -3.809  12.021  19.211  0.00  0.00    +0.000 A 
ATOM     33  O   UNL     1      -5.902  12.576  20.166  0.00  0.00    +0.000 OA
ATOM     34  C   UNL     1      -7.307  12.367  19.970  0.00  0.00    +0.000 C 
ATOM     35  C   UNL     1      -7.756  12.909  18.623  0.00  0.00    +0.000 C 
ATOM     36  O   UNL     1      -7.128  12.194  17.557  0.00  0.00    +0.000 OA
ENDBRANCH  25  27
ENDBRANCH  22  24
BRANCH  22  37
ATOM     37  C   UNL     1       1.818  12.937  19.208  0.00  0.00    +0.000 C 
ATOM     38  C   UNL     1       3.039  13.235  18.367  0.00  0.00    +0.000 C 
ATOM     39  C   UNL     1       2.088  14.341  18.713  0.00  0.00    +0.000 C 
ENDBRANCH  22  37
ENDBRANCH   1  22
TORSDOF 5
ENDMDL
MODEL 2
REMARK VINA RESULT:      -9.3      1.200      1.298
REMARK  Name = 
REMARK  5 active torsions:
REMARK  status: ('A' for Active; 'I' for Inactive)
REMARK    1  A    between atoms: C_2  and  C_14
REMARK    2  A    between atoms: N_3  and  C_4
REMARK    3  A    between atoms: C_14  and  C_15
REMARK    4  A    between atoms: C_14  and  N_18
REMARK    5  A    between atoms: C_21  and  C_22
REMARK                            x       y       z     vdW  Elec       q    Type
REMARK                         _______ _______ _______ _____ _____    ______ ____
ROOT
ATOM      1  N   UNL     1       0.837  10.427  19.442  0.00  0.00    +0.000 N 
ATOM      2  C   UNL     1       1.564   9.362  18.931  0.00  0.00    +0.000 A 
ATOM      3  O   UNL     1       2.098   9.371  17.824  0.00  0.00    +0.000 OA
ATOM      4  C   UNL     1       1.669   8.112  19.811  0.00  0.00    +0.000 A 
ATOM      5  N   UNL     1       1.233   8.066  21.030  0.00  0.00    +0.000 NA
ATOM      6  C   UNL     1       0.571   9.198  21.538  0.00  0.00    +0.000 A 
ATOM      7  C   UNL     1       0.135   9.139  22.869  0.00  0.00    +0.000 A 
ATOM      8  C   UNL     1      -0.571  10.196  23.442  0.00  0.00    +0.000 A 
ATOM      9  C   UNL     1      -0.852  11.322  22.681  0.00  0.00    +0.000 A 
ATOM     10  C   UNL     1      -0.401  11.404  21.363  0.00  0.00    +0.000 A 
ATOM     11  C   UNL     1       0.322  10.356  20.773  0.00  0.00    +0.000 A 
ENDROOT
BRANCH   4  12
ATOM     12  C   UNL     1       2.335   6.972  19.219  0.00  0.00    +0.000 A 
ATOM     13  C   UNL     1       2.173   6.409  17.964  0.00  0.00    +0.000 A 
ATOM     14  C   UNL     1       2.656   5.076  18.068  0.00  0.00    +0.000 A 
ATOM     15  C   UNL     1       2.406   3.863  17.408  0.00  0.00    +0.000 A 
ATOM     16  C   UNL     1       3.137   2.731  17.790  0.00  0.00    +0.000 A 
ATOM     17  C   UNL     1       4.201   2.833  18.687  0.00  0.00    +0.000 A 
ATOM     18  C   UNL     1       4.441   4.020  19.379  0.00  0.00    +0.000 A 
ATOM     19  C   UNL     1       3.549   5.063  19.131  0.00  0.00    +0.000 A 
ATOM     20  N   UNL     1       3.201   6.141  19.901  0.00  0.00    +0.000 N 
ATOM     21  H   UNL     1       3.331   6.167  20.906  0.00  0.00    +0.000 HD
ENDBRANCH   4  12
BRANCH   1  22
ATOM     22  C   UNL     1       0.776  11.650  18.625  0.00  0.00    +0.000 C 
BRANCH  22  24
ATOM     23  O   UNL     1      -0.921  13.398  18.645  0.00  0.00    +0.000 OA
ATOM     24  C   UNL     1      -0.668  12.191  18.533  0.00  0.00    +0.000 C 
ATOM     25  N   UNL     1      -1.641  11.223  18.338  0.00  0.00    +0.000 N 
ATOM     26  H   UNL     1      -1.376  10.253  18.467  0.00  0.00    +0.000 HD
BRANCH  25  27
ATOM     27  C   UNL     1      -3.010  11.488  18.079  0.00  0.00    +0.000 A 
ATOM     28  C   UNL     1      -3.599  11.275  16.824  0.00  0.00    +0.000 A 
ATOM     29  C   UNL     1      -4.950  11.541  16.599  0.00  0.00    +0.000 A 
ATOM     30  C   UNL     1      -5.735  12.015  17.640  0.00  0.00    +0.000 A 
ATOM     31  C   UNL     1      -5.178  12.200  18.895  0.00  0.00    +0.000 A 
ATOM     32  C   UNL     1      -3.817  11.949  19.124  0.00  0.00    +0.000 A 
ATOM     33  O   UNL     1      -5.914  12.632  19.982  0.00  0.00    +0.000 OA
ATOM     34  C   UNL     1      -7.320  12.494  19.731  0.00  0.00    +0.000 C 
ATOM     35  C   UNL     1      -7.685  13.031  18.357  0.00  0.00    +0.000 C 
ATOM     36  O   UNL     1      -7.054  12.262  17.332  0.00  0.00    +0.000 OA
ENDBRANCH  25  27
ENDBRANCH  22  24
BRANCH  22  37
ATOM     37  C   UNL     1       1.914  12.590  19.000  0.00  0.00    +0.000 C 
ATOM     38  C   UNL     1       3.077  12.775  18.052  0.00  0.00    +0.000 C 
ATOM     39  C   UNL     1       2.195  13.942  18.380  0.00  0.00    +0.000 C 
ENDBRANCH  22  37
ENDBRANCH   1  22
TORSDOF 5
ENDMDL
MODEL 3
REMARK VINA RESULT:      -9.1      3.176      9.797
REMARK  Name = 
REMARK  5 active torsions:
REMARK  status: ('A' for Active; 'I' for Inactive)
REMARK    1  A    between atoms: C_2  and  C_14
REMARK    2  A    between atoms: N_3  and  C_4
REMARK    3  A    between atoms: C_14  and  C_15
REMARK    4  A    between atoms: C_14  and  N_18
REMARK    5  A    between atoms: C_21  and  C_22
REMARK                            x       y       z     vdW  Elec       q    Type
REMARK                         _______ _______ _______ _____ _____    ______ ____
ROOT
ATOM      1  N   UNL     1      -1.196  11.451  19.762  0.00  0.00    +0.000 N 
ATOM      2  C   UNL     1      -1.739  12.249  20.758  0.00  0.00    +0.000 A 
ATOM      3  O   UNL     1      -1.100  12.662  21.724  0.00  0.00    +0.000 OA
ATOM      4  C   UNL     1      -3.224  12.601  20.629  0.00  0.00    +0.000 A 
ATOM      5  N   UNL     1      -3.934  12.302  19.588  0.00  0.00    +0.000 NA
ATOM      6  C   UNL     1      -3.323  11.559  18.563  0.00  0.00    +0.000 A 
ATOM      7  C   UNL     1      -4.100  11.273  17.431  0.00  0.00    +0.000 A 
ATOM      8  C   UNL     1      -3.591  10.503  16.386  0.00  0.00    +0.000 A 
ATOM      9  C   UNL     1      -2.299  10.005  16.470  0.00  0.00    +0.000 A 
ATOM     10  C   UNL     1      -1.506  10.304  17.579  0.00  0.00    +0.000 A 
ATOM     11  C   UNL     1      -1.995  11.089  18.635  0.00  0.00    +0.000 A 
ENDROOT
BRANCH   4  12
ATOM     12  C   UNL     1      -3.800  13.341  21.731  0.00  0.00    +0.000 A 
ATOM     13  C   UNL     1      -5.000  13.146  22.394  0.00  0.00    +0.000 A 
ATOM     14  C   UNL     1      -5.312  14.388  23.012  0.00  0.00    +0.000 A 
ATOM     15  C   UNL     1      -6.486  15.041  23.419  0.00  0.00    +0.000 A 
ATOM     16  C   UNL     1      -6.374  16.288  24.047  0.00  0.00    +0.000 A 
ATOM     17  C   UNL     1      -5.127  16.799  24.411  0.00  0.00    +0.000 A 
ATOM     18  C   UNL     1      -3.950  16.183  23.983  0.00  0.00    +0.000 A 
ATOM     19  C   UNL     1      -4.108  15.061  23.170  0.00  0.00    +0.000 A 
ATOM     20  N   UNL     1      -3.265  14.506  22.245  0.00  0.00    +0.000 N 
ATOM     21  H   UNL     1      -2.512  15.021  21.804  0.00  0.00    +0.000 HD
ENDBRANCH   4  12
BRANCH   1  22
ATOM     22  C   UNL     1       0.243  11.152  19.852  0.00  0.00    +0.000 C 
BRANCH  22  24
ATOM     23  O   UNL     1      -0.247   9.032  20.946  0.00  0.00    +0.000 OA
ATOM     24  C   UNL     1       0.487   9.662  20.173  0.00  0.00    +0.000 C 
ATOM     25  N   UNL     1       1.591   9.104  19.547  0.00  0.00    +0.000 N 
ATOM     26  H   UNL     1       2.252   9.733  19.105  0.00  0.00    +0.000 HD
BRANCH  25  27
ATOM     27  C   UNL     1       1.930   7.727  19.573  0.00  0.00    +0.000 A 
ATOM     28  C   UNL     1       1.594   6.884  20.642  0.00  0.00    +0.000 A 
ATOM     29  C   UNL     1       1.937   5.532  20.639  0.00  0.00    +0.000 A 
ATOM     30  C   UNL     1       2.616   5.002  19.550  0.00  0.00    +0.000 A 
ATOM     31  C   UNL     1       2.927   5.813  18.471  0.00  0.00    +0.000 A 
ATOM     32  C   UNL     1       2.598   7.176  18.475  0.00  0.00    +0.000 A 
ATOM     33  O   UNL     1       3.567   5.338  17.341  0.00  0.00    +0.000 OA
ATOM     34  C   UNL     1       3.512   3.905  17.290  0.00  0.00    +0.000 C 
ATOM     35  C   UNL     1       3.880   3.297  18.633  0.00  0.00    +0.000 C 
ATOM     36  O   UNL     1       2.926   3.663  19.630  0.00  0.00    +0.000 OA
ENDBRANCH  25  27
ENDBRANCH  22  24
BRANCH  22  37
ATOM     37  C   UNL     1       0.989  11.809  18.697  0.00  0.00    +0.000 C 
ATOM     38  C   UNL     1       0.902  13.307  18.505  0.00  0.00    +0.000 C 
ATOM     39  C   UNL     1       2.226  12.673  18.812  0.00  0.00    +0.000 C 
ENDBRANCH  22  37
ENDBRANCH   1  22
TORSDOF 5
ENDMDL
MODEL 4
REMARK VINA RESULT:      -9.0      2.779      9.860
REMARK  Name = 
REMARK  5 active torsions:
REMARK  status: ('A' for Active; 'I' for Inactive)
REMARK    1  A    between atoms: C_2  and  C_14
REMARK    2  A    between atoms: N_3  and  C_4
REMARK    3  A    between atoms: C_14  and  C_15
REMARK    4  A    between atoms: C_14  and  N_18
REMARK    5  A    between atoms: C_21  and  C_22
REMARK                            x       y       z     vdW  Elec       q    Type
REMARK                         _______ _______ _______ _____ _____    ______ ____
ROOT
ATOM      1  N   UNL     1      -1.609  11.477  19.538  0.00  0.00    +0.000 N 
ATOM      2  C   UNL     1      -2.312  12.216  20.479  0.00  0.00    +0.000 A 
ATOM      3  O   UNL     1      -1.805  12.680  21.498  0.00  0.00    +0.000 OA
ATOM      4  C   UNL     1      -3.805  12.432  20.213  0.00  0.00    +0.000 A 
ATOM      5  N   UNL     1      -4.386  12.075  19.112  0.00  0.00    +0.000 NA
ATOM      6  C   UNL     1      -3.618  11.397  18.149  0.00  0.00    +0.000 A 
ATOM      7  C   UNL     1      -4.258  11.049  16.951  0.00  0.00    +0.000 A 
ATOM      8  C   UNL     1      -3.587  10.334  15.959  0.00  0.00    +0.000 A 
ATOM      9  C   UNL     1      -2.267   9.957  16.163  0.00  0.00    +0.000 A 
ATOM     10  C   UNL     1      -1.611  10.321  17.339  0.00  0.00    +0.000 A 
ATOM     11  C   UNL     1      -2.264  11.051  18.343  0.00  0.00    +0.000 A 
ENDROOT
BRANCH   4  12
ATOM     12  C   UNL     1      -4.545  13.108  21.256  0.00  0.00    +0.000 A 
ATOM     13  C   UNL     1      -4.682  12.783  22.595  0.00  0.00    +0.000 A 
ATOM     14  C   UNL     1      -5.865  13.436  23.038  0.00  0.00    +0.000 A 
ATOM     15  C   UNL     1      -6.815  13.217  24.046  0.00  0.00    +0.000 A 
ATOM     16  C   UNL     1      -7.858  14.141  24.194  0.00  0.00    +0.000 A 
ATOM     17  C   UNL     1      -7.866  15.335  23.471  0.00  0.00    +0.000 A 
ATOM     18  C   UNL     1      -6.952  15.553  22.441  0.00  0.00    +0.000 A 
ATOM     19  C   UNL     1      -6.065  14.509  22.180  0.00  0.00    +0.000 A 
ATOM     20  N   UNL     1      -5.384  14.184  21.037  0.00  0.00    +0.000 N 
ATOM     21  H   UNL     1      -5.667  14.497  20.116  0.00  0.00    +0.000 HD
ENDBRANCH   4  12
BRANCH   1  22
ATOM     22  C   UNL     1      -0.163  11.312  19.761  0.00  0.00    +0.000 C 
BRANCH  22  24
ATOM     23  O   UNL     1      -0.523   9.164  20.852  0.00  0.00    +0.000 OA
ATOM     24  C   UNL     1       0.187   9.847  20.102  0.00  0.00    +0.000 C 
ATOM     25  N   UNL     1       1.355   9.376  19.522  0.00  0.00    +0.000 N 
ATOM     26  H   UNL     1       1.979  10.054  19.099  0.00  0.00    +0.000 HD
BRANCH  25  27
ATOM     27  C   UNL     1       1.802   8.032  19.570  0.00  0.00    +0.000 A 
ATOM     28  C   UNL     1       1.521   7.179  20.648  0.00  0.00    +0.000 A 
ATOM     29  C   UNL     1       1.971   5.858  20.667  0.00  0.00    +0.000 A 
ATOM     30  C   UNL     1       2.701   5.369  19.593  0.00  0.00    +0.000 A 
ATOM     31  C   UNL     1       2.958   6.188  18.505  0.00  0.00    +0.000 A 
ATOM     32  C   UNL     1       2.523   7.520  18.486  0.00  0.00    +0.000 A 
ATOM     33  O   UNL     1       3.646   5.750  17.389  0.00  0.00    +0.000 OA
ATOM     34  C   UNL     1       3.705   4.317  17.356  0.00  0.00    +0.000 C 
ATOM     35  C   UNL     1       4.106   3.758  18.711  0.00  0.00    +0.000 C 
ATOM     36  O   UNL     1       3.115   4.060  19.694  0.00  0.00    +0.000 OA
ENDBRANCH  25  27
ENDBRANCH  22  24
BRANCH  22  37
ATOM     37  C   UNL     1       0.622  12.045  18.681  0.00  0.00    +0.000 C 
ATOM     38  C   UNL     1       0.526  13.551  18.577  0.00  0.00    +0.000 C 
ATOM     39  C   UNL     1       1.843  12.912  18.900  0.00  0.00    +0.000 C 
ENDBRANCH  22  37
ENDBRANCH   1  22
TORSDOF 5
ENDMDL
MODEL 5
REMARK VINA RESULT:      -9.0      2.616      9.871
REMARK  Name = 
REMARK  5 active torsions:
REMARK  status: ('A' for Active; 'I' for Inactive)
REMARK    1  A    between atoms: C_2  and  C_14
REMARK    2  A    between atoms: N_3  and  C_4
REMARK    3  A    between atoms: C_14  and  C_15
REMARK    4  A    between atoms: C_14  and  N_18
REMARK    5  A    between atoms: C_21  and  C_22
REMARK                            x       y       z     vdW  Elec       q    Type
REMARK                         _______ _______ _______ _____ _____    ______ ____
ROOT
ATOM      1  N   UNL     1      -2.184  11.699  19.270  0.00  0.00    +0.000 N 
ATOM      2  C   UNL     1      -3.112  12.327  20.087  0.00  0.00    +0.000 A 
ATOM      3  O   UNL     1      -2.824  12.877  21.148  0.00  0.00    +0.000 OA
ATOM      4  C   UNL     1      -4.573  12.299  19.624  0.00  0.00    +0.000 A 
ATOM      5  N   UNL     1      -4.939  11.841  18.469  0.00  0.00    +0.000 NA
ATOM      6  C   UNL     1      -3.953  11.284  17.636  0.00  0.00    +0.000 A 
ATOM      7  C   UNL     1      -4.366  10.824  16.377  0.00  0.00    +0.000 A 
ATOM      8  C   UNL     1      -3.466  10.215  15.504  0.00  0.00    +0.000 A 
ATOM      9  C   UNL     1      -2.142  10.055  15.889  0.00  0.00    +0.000 A 
ATOM     10  C   UNL     1      -1.712  10.532  17.128  0.00  0.00    +0.000 A 
ATOM     11  C   UNL     1      -2.600  11.160  18.015  0.00  0.00    +0.000 A 
ENDROOT
BRANCH   4  12
ATOM     12  C   UNL     1      -5.541  12.861  20.540  0.00  0.00    +0.000 A 
ATOM     13  C   UNL     1      -6.096  14.129  20.569  0.00  0.00    +0.000 A 
ATOM     14  C   UNL     1      -6.565  14.321  21.898  0.00  0.00    +0.000 A 
ATOM     15  C   UNL     1      -6.794  15.425  22.733  0.00  0.00    +0.000 A 
ATOM     16  C   UNL     1      -7.315  15.198  24.013  0.00  0.00    +0.000 A 
ATOM     17  C   UNL     1      -7.753  13.929  24.395  0.00  0.00    +0.000 A 
ATOM     18  C   UNL     1      -7.501  12.815  23.594  0.00  0.00    +0.000 A 
ATOM     19  C   UNL     1      -6.781  13.055  22.424  0.00  0.00    +0.000 A 
ATOM     20  N   UNL     1      -5.998  12.218  21.674  0.00  0.00    +0.000 N 
ATOM     21  H   UNL     1      -5.589  11.366  22.040  0.00  0.00    +0.000 HD
ENDBRANCH   4  12
BRANCH   1  22
ATOM     22  C   UNL     1      -0.772  11.769  19.683  0.00  0.00    +0.000 C 
BRANCH  22  24
ATOM     23  O   UNL     1      -0.802   9.691  20.954  0.00  0.00    +0.000 OA
ATOM     24  C   UNL     1      -0.240  10.378  20.092  0.00  0.00    +0.000 C 
ATOM     25  N   UNL     1       0.915   9.980  19.435  0.00  0.00    +0.000 N 
ATOM     26  H   UNL     1       1.423  10.680  18.906  0.00  0.00    +0.000 HD
BRANCH  25  27
ATOM     27  C   UNL     1       1.505   8.695  19.535  0.00  0.00    +0.000 A 
ATOM     28  C   UNL     1       1.318   7.860  20.646  0.00  0.00    +0.000 A 
ATOM     29  C   UNL     1       1.908   6.597  20.716  0.00  0.00    +0.000 A 
ATOM     30  C   UNL     1       2.687   6.149  19.660  0.00  0.00    +0.000 A 
ATOM     31  C   UNL     1       2.856   6.946  18.539  0.00  0.00    +0.000 A 
ATOM     32  C   UNL     1       2.278   8.222  18.470  0.00  0.00    +0.000 A 
ATOM     33  O   UNL     1       3.588   6.542  17.439  0.00  0.00    +0.000 OA
ATOM     34  C   UNL     1       3.802   5.124  17.463  0.00  0.00    +0.000 C 
ATOM     35  C   UNL     1       4.260   4.665  18.838  0.00  0.00    +0.000 C 
ATOM     36  O   UNL     1       3.240   4.897  19.812  0.00  0.00    +0.000 OA
ENDBRANCH  25  27
ENDBRANCH  22  24
BRANCH  22  37
ATOM     37  C   UNL     1       0.020  12.625  18.703  0.00  0.00    +0.000 C 
ATOM     38  C   UNL     1      -0.224  14.116  18.643  0.00  0.00    +0.000 C 
ATOM     39  C   UNL     1       1.121  13.600  19.059  0.00  0.00    +0.000 C 
ENDBRANCH  22  37
ENDBRANCH   1  22
TORSDOF 5
ENDMDL
MODEL 6
REMARK VINA RESULT:      -8.9      2.360      5.833
REMARK  Name = 
REMARK  5 active torsions:
REMARK  status: ('A' for Active; 'I' for Inactive)
REMARK    1  A    between atoms: C_2  and  C_14
REMARK    2  A    between atoms: N_3  and  C_4
REMARK    3  A    between atoms: C_14  and  C_15
REMARK    4  A    between atoms: C_14  and  N_18
REMARK    5  A    between atoms: C_21  and  C_22
REMARK                            x       y       z     vdW  Elec       q    Type
REMARK                         _______ _______ _______ _____ _____    ______ ____
ROOT
ATOM      1  N   UNL     1      -0.057  10.086  19.374  0.00  0.00    +0.000 N 
ATOM      2  C   UNL     1       0.815   9.320  18.615  0.00  0.00    +0.000 A 
ATOM      3  O   UNL     1       0.950   9.446  17.399  0.00  0.00    +0.000 OA
ATOM      4  C   UNL     1       1.623   8.251  19.358  0.00  0.00    +0.000 A 
ATOM      5  N   UNL     1       1.620   8.133  20.648  0.00  0.00    +0.000 NA
ATOM      6  C   UNL     1       0.781   8.984  21.388  0.00  0.00    +0.000 A 
ATOM      7  C   UNL     1       0.819   8.861  22.784  0.00  0.00    +0.000 A 
ATOM      8  C   UNL     1      -0.013   9.631  23.596  0.00  0.00    +0.000 A 
ATOM      9  C   UNL     1      -0.896  10.529  23.013  0.00  0.00    +0.000 A 
ATOM     10  C   UNL     1      -0.924  10.681  21.626  0.00  0.00    +0.000 A 
ATOM     11  C   UNL     1      -0.085   9.924  20.793  0.00  0.00    +0.000 A 
ENDROOT
BRANCH   4  12
ATOM     12  C   UNL     1       2.443   7.388  18.535  0.00  0.00    +0.000 A 
ATOM     13  C   UNL     1       2.449   6.007  18.438  0.00  0.00    +0.000 A 
ATOM     14  C   UNL     1       3.723   5.658  17.911  0.00  0.00    +0.000 A 
ATOM     15  C   UNL     1       4.562   4.534  17.972  0.00  0.00    +0.000 A 
ATOM     16  C   UNL     1       5.769   4.562  17.261  0.00  0.00    +0.000 A 
ATOM     17  C   UNL     1       6.060   5.606  16.383  0.00  0.00    +0.000 A 
ATOM     18  C   UNL     1       5.258   6.746  16.336  0.00  0.00    +0.000 A 
ATOM     19  C   UNL     1       4.183   6.773  17.224  0.00  0.00    +0.000 A 
ATOM     20  N   UNL     1       3.498   7.830  17.762  0.00  0.00    +0.000 N 
ATOM     21  H   UNL     1       3.881   8.767  17.817  0.00  0.00    +0.000 HD
ENDBRANCH   4  12
BRANCH   1  22
ATOM     22  C   UNL     1      -0.797  11.150  18.675  0.00  0.00    +0.000 C 
BRANCH  22  24
ATOM     23  O   UNL     1      -0.416  13.480  18.075  0.00  0.00    +0.000 OA
ATOM     24  C   UNL     1       0.031  12.451  18.599  0.00  0.00    +0.000 C 
ATOM     25  N   UNL     1       1.304  12.364  19.142  0.00  0.00    +0.000 N 
ATOM     26  H   UNL     1       1.664  11.441  19.357  0.00  0.00    +0.000 HD
BRANCH  25  27
ATOM     27  C   UNL     1       2.188  13.458  19.318  0.00  0.00    +0.000 A 
ATOM     28  C   UNL     1       2.033  14.400  20.345  0.00  0.00    +0.000 A 
ATOM     29  C   UNL     1       2.922  15.465  20.497  0.00  0.00    +0.000 A 
ATOM     30  C   UNL     1       3.991  15.592  19.622  0.00  0.00    +0.000 A 
ATOM     31  C   UNL     1       4.179  14.652  18.622  0.00  0.00    +0.000 A 
ATOM     32  C   UNL     1       3.281  13.588  18.455  0.00  0.00    +0.000 A 
ATOM     33  O   UNL     1       5.245  14.701  17.743  0.00  0.00    +0.000 OA
ATOM     34  C   UNL     1       6.268  15.578  18.233  0.00  0.00    +0.000 C 
ATOM     35  C   UNL     1       5.675  16.892  18.715  0.00  0.00    +0.000 C 
ATOM     36  O   UNL     1       4.814  16.675  19.834  0.00  0.00    +0.000 OA
ENDBRANCH  25  27
ENDBRANCH  22  24
BRANCH  22  37
ATOM     37  C   UNL     1      -1.451  10.593  17.416  0.00  0.00    +0.000 C 
ATOM     38  C   UNL     1      -2.748   9.823  17.524  0.00  0.00    +0.000 C 
ATOM     39  C   UNL     1      -2.713  11.114  16.764  0.00  0.00    +0.000 C 
ENDBRANCH  22  37
ENDBRANCH   1  22
TORSDOF 5
ENDMDL
MODEL 7
REMARK VINA RESULT:      -8.9      1.111      1.329
REMARK  Name = 
REMARK  5 active torsions:
REMARK  status: ('A' for Active; 'I' for Inactive)
REMARK    1  A    between atoms: C_2  and  C_14
REMARK    2  A    between atoms: N_3  and  C_4
REMARK    3  A    between atoms: C_14  and  C_15
REMARK    4  A    between atoms: C_14  and  N_18
REMARK    5  A    between atoms: C_21  and  C_22
REMARK                            x       y       z     vdW  Elec       q    Type
REMARK                         _______ _______ _______ _____ _____    ______ ____
ROOT
ATOM      1  N   UNL     1       0.670  10.173  19.152  0.00  0.00    +0.000 N 
ATOM      2  C   UNL     1       1.465   9.311  18.411  0.00  0.00    +0.000 A 
ATOM      3  O   UNL     1       1.764   9.503  17.233  0.00  0.00    +0.000 OA
ATOM      4  C   UNL     1       1.965   8.048  19.120  0.00  0.00    +0.000 A 
ATOM      5  N   UNL     1       1.790   7.832  20.385  0.00  0.00    +0.000 NA
ATOM      6  C   UNL     1       1.045   8.771  21.120  0.00  0.00    +0.000 A 
ATOM      7  C   UNL     1       0.894   8.534  22.493  0.00  0.00    +0.000 A 
ATOM      8  C   UNL     1       0.133   9.388  23.291  0.00  0.00    +0.000 A 
ATOM      9  C   UNL     1      -0.491  10.486  22.715  0.00  0.00    +0.000 A 
ATOM     10  C   UNL     1      -0.327  10.748  21.354  0.00  0.00    +0.000 A 
ATOM     11  C   UNL     1       0.446   9.908  20.538  0.00  0.00    +0.000 A 
ENDROOT
BRANCH   4  12
ATOM     12  C   UNL     1       2.699   7.108  18.302  0.00  0.00    +0.000 A 
ATOM     13  C   UNL     1       2.632   5.725  18.271  0.00  0.00    +0.000 A 
ATOM     14  C   UNL     1       3.859   5.287  17.700  0.00  0.00    +0.000 A 
ATOM     15  C   UNL     1       4.643   4.125  17.775  0.00  0.00    +0.000 A 
ATOM     16  C   UNL     1       5.813   4.058  17.007  0.00  0.00    +0.000 A 
ATOM     17  C   UNL     1       6.111   5.045  16.066  0.00  0.00    +0.000 A 
ATOM     18  C   UNL     1       5.365   6.222  16.004  0.00  0.00    +0.000 A 
ATOM     19  C   UNL     1       4.338   6.344  16.940  0.00  0.00    +0.000 A 
ATOM     20  N   UNL     1       3.735   7.459  17.459  0.00  0.00    +0.000 N 
ATOM     21  H   UNL     1       4.166   8.376  17.450  0.00  0.00    +0.000 HD
ENDBRANCH   4  12
BRANCH   1  22
ATOM     22  C   UNL     1       0.230  11.413  18.492  0.00  0.00    +0.000 C 
BRANCH  22  24
ATOM     23  O   UNL     1      -1.897  10.910  17.417  0.00  0.00    +0.000 OA
ATOM     24  C   UNL     1      -1.307  11.460  18.357  0.00  0.00    +0.000 C 
ATOM     25  N   UNL     1      -1.959  12.174  19.351  0.00  0.00    +0.000 N 
ATOM     26  H   UNL     1      -1.396  12.762  19.956  0.00  0.00    +0.000 HD
BRANCH  25  27
ATOM     27  C   UNL     1      -3.365  12.235  19.519  0.00  0.00    +0.000 A 
ATOM     28  C   UNL     1      -4.265  11.850  18.515  0.00  0.00    +0.000 A 
ATOM     29  C   UNL     1      -5.646  11.916  18.710  0.00  0.00    +0.000 A 
ATOM     30  C   UNL     1      -6.143  12.362  19.926  0.00  0.00    +0.000 A 
ATOM     31  C   UNL     1      -5.268  12.715  20.941  0.00  0.00    +0.000 A 
ATOM     32  C   UNL     1      -3.880  12.665  20.746  0.00  0.00    +0.000 A 
ATOM     33  O   UNL     1      -5.699  13.130  22.187  0.00  0.00    +0.000 OA
ATOM     34  C   UNL     1      -7.078  12.787  22.388  0.00  0.00    +0.000 C 
ATOM     35  C   UNL     1      -7.915  13.163  21.177  0.00  0.00    +0.000 C 
ATOM     36  O   UNL     1      -7.514  12.407  20.033  0.00  0.00    +0.000 OA
ENDBRANCH  25  27
ENDBRANCH  22  24
BRANCH  22  37
ATOM     37  C   UNL     1       0.976  12.609  19.072  0.00  0.00    +0.000 C 
ATOM     38  C   UNL     1       2.136  13.209  18.310  0.00  0.00    +0.000 C 
ATOM     39  C   UNL     1       0.909  14.032  18.563  0.00  0.00    +0.000 C 
ENDBRANCH  22  37
ENDBRANCH   1  22
TORSDOF 5
ENDMDL
MODEL 8
REMARK VINA RESULT:      -8.9      3.005      9.499
REMARK  Name = 
REMARK  5 active torsions:
REMARK  status: ('A' for Active; 'I' for Inactive)
REMARK    1  A    between atoms: C_2  and  C_14
REMARK    2  A    between atoms: N_3  and  C_4
REMARK    3  A    between atoms: C_14  and  C_15
REMARK    4  A    between atoms: C_14  and  N_18
REMARK    5  A    between atoms: C_21  and  C_22
REMARK                            x       y       z     vdW  Elec       q    Type
REMARK                         _______ _______ _______ _____ _____    ______ ____
ROOT
ATOM      1  N   UNL     1      -0.148  11.085  19.264  0.00  0.00    +0.000 N 
ATOM      2  C   UNL     1      -0.510  12.413  19.092  0.00  0.00    +0.000 A 
ATOM      3  O   UNL     1      -0.569  12.966  17.995  0.00  0.00    +0.000 OA
ATOM      4  C   UNL     1      -0.827  13.214  20.359  0.00  0.00    +0.000 A 
ATOM      5  N   UNL     1      -0.897  12.676  21.535  0.00  0.00    +0.000 NA
ATOM      6  C   UNL     1      -0.600  11.307  21.656  0.00  0.00    +0.000 A 
ATOM      7  C   UNL     1      -0.714  10.739  22.932  0.00  0.00    +0.000 A 
ATOM      8  C   UNL     1      -0.394   9.400  23.153  0.00  0.00    +0.000 A 
ATOM      9  C   UNL     1       0.049   8.619  22.096  0.00  0.00    +0.000 A 
ATOM     10  C   UNL     1       0.141   9.166  20.815  0.00  0.00    +0.000 A 
ATOM     11  C   UNL     1      -0.188  10.507  20.569  0.00  0.00    +0.000 A 
ENDROOT
BRANCH   4  12
ATOM     12  C   UNL     1      -1.094  14.623  20.170  0.00  0.00    +0.000 A 
ATOM     13  C   UNL     1      -1.890  15.478  20.914  0.00  0.00    +0.000 A 
ATOM     14  C   UNL     1      -2.207  16.565  20.055  0.00  0.00    +0.000 A 
ATOM     15  C   UNL     1      -3.255  17.493  19.953  0.00  0.00    +0.000 A 
ATOM     16  C   UNL     1      -3.186  18.472  18.954  0.00  0.00    +0.000 A 
ATOM     17  C   UNL     1      -2.033  18.631  18.183  0.00  0.00    +0.000 A 
ATOM     18  C   UNL     1      -0.999  17.698  18.244  0.00  0.00    +0.000 A 
ATOM     19  C   UNL     1      -1.204  16.612  19.096  0.00  0.00    +0.000 A 
ATOM     20  N   UNL     1      -0.668  15.352  19.077  0.00  0.00    +0.000 N 
ATOM     21  H   UNL     1      -0.262  14.935  18.248  0.00  0.00    +0.000 HD
ENDBRANCH   4  12
BRANCH   1  22
ATOM     22  C   UNL     1       0.107  10.297  18.047  0.00  0.00    +0.000 C 
BRANCH  22  24
ATOM     23  O   UNL     1       2.539  10.297  18.190  0.00  0.00    +0.000 OA
ATOM     24  C   UNL     1       1.500   9.631  18.092  0.00  0.00    +0.000 C 
ATOM     25  N   UNL     1       1.488   8.248  17.996  0.00  0.00    +0.000 N 
ATOM     26  H   UNL     1       0.624   7.801  17.710  0.00  0.00    +0.000 HD
BRANCH  25  27
ATOM     27  C   UNL     1       2.621   7.412  18.159  0.00  0.00    +0.000 A 
ATOM     28  C   UNL     1       2.736   6.487  19.207  0.00  0.00    +0.000 A 
ATOM     29  C   UNL     1       3.862   5.674  19.341  0.00  0.00    +0.000 A 
ATOM     30  C   UNL     1       4.888   5.771  18.412  0.00  0.00    +0.000 A 
ATOM     31  C   UNL     1       4.777   6.656  17.352  0.00  0.00    +0.000 A 
ATOM     32  C   UNL     1       3.655   7.486  17.220  0.00  0.00    +0.000 A 
ATOM     33  O   UNL     1       5.747   6.773  16.373  0.00  0.00    +0.000 OA
ATOM     34  C   UNL     1       6.634   5.646  16.399  0.00  0.00    +0.000 C 
ATOM     35  C   UNL     1       7.081   5.336  17.818  0.00  0.00    +0.000 C 
ATOM     36  O   UNL     1       5.967   4.942  18.622  0.00  0.00    +0.000 OA
ENDBRANCH  25  27
ENDBRANCH  22  24
BRANCH  22  37
ATOM     37  C   UNL     1      -1.119   9.464  17.695  0.00  0.00    +0.000 C 
ATOM     38  C   UNL     1      -2.500   9.993  18.011  0.00  0.00    +0.000 C 
ATOM     39  C   UNL     1      -2.105   9.754  16.584  0.00  0.00    +0.000 C 
ENDBRANCH  22  37
ENDBRANCH   1  22
TORSDOF 5
ENDMDL
MODEL 9
REMARK VINA RESULT:      -8.8      2.349      5.656
REMARK  Name = 
REMARK  5 active torsions:
REMARK  status: ('A' for Active; 'I' for Inactive)
REMARK    1  A    between atoms: C_2  and  C_14
REMARK    2  A    between atoms: N_3  and  C_4
REMARK    3  A    between atoms: C_14  and  C_15
REMARK    4  A    between atoms: C_14  and  N_18
REMARK    5  A    between atoms: C_21  and  C_22
REMARK                            x       y       z     vdW  Elec       q    Type
REMARK                         _______ _______ _______ _____ _____    ______ ____
ROOT
ATOM      1  N   UNL     1      -0.015  10.061  19.388  0.00  0.00    +0.000 N 
ATOM      2  C   UNL     1       0.844   9.291  18.617  0.00  0.00    +0.000 A 
ATOM      3  O   UNL     1       0.970   9.421  17.401  0.00  0.00    +0.000 OA
ATOM      4  C   UNL     1       1.651   8.213  19.348  0.00  0.00    +0.000 A 
ATOM      5  N   UNL     1       1.660   8.090  20.638  0.00  0.00    +0.000 NA
ATOM      6  C   UNL     1       0.834   8.944  21.389  0.00  0.00    +0.000 A 
ATOM      7  C   UNL     1       0.883   8.816  22.785  0.00  0.00    +0.000 A 
ATOM      8  C   UNL     1       0.065   9.589  23.607  0.00  0.00    +0.000 A 
ATOM      9  C   UNL     1      -0.816  10.496  23.036  0.00  0.00    +0.000 A 
ATOM     10  C   UNL     1      -0.856  10.653  21.650  0.00  0.00    +0.000 A 
ATOM     11  C   UNL     1      -0.031   9.894  20.806  0.00  0.00    +0.000 A 
ENDROOT
BRANCH   4  12
ATOM     12  C   UNL     1       2.457   7.348  18.515  0.00  0.00    +0.000 A 
ATOM     13  C   UNL     1       2.451   5.967  18.412  0.00  0.00    +0.000 A 
ATOM     14  C   UNL     1       3.718   5.609  17.872  0.00  0.00    +0.000 A 
ATOM     15  C   UNL     1       4.547   4.479  17.921  0.00  0.00    +0.000 A 
ATOM     16  C   UNL     1       5.748   4.500  17.200  0.00  0.00    +0.000 A 
ATOM     17  C   UNL     1       6.041   5.546  16.324  0.00  0.00    +0.000 A 
ATOM     18  C   UNL     1       5.248   6.693  16.289  0.00  0.00    +0.000 A 
ATOM     19  C   UNL     1       4.181   6.724  17.186  0.00  0.00    +0.000 A 
ATOM     20  N   UNL     1       3.509   7.785  17.735  0.00  0.00    +0.000 N 
ATOM     21  H   UNL     1       3.900   8.718  17.791  0.00  0.00    +0.000 HD
ENDBRANCH   4  12
BRANCH   1  22
ATOM     22  C   UNL     1      -0.753  11.133  18.700  0.00  0.00    +0.000 C 
BRANCH  22  24
ATOM     23  O   UNL     1      -0.395  13.499  18.243  0.00  0.00    +0.000 OA
ATOM     24  C   UNL     1       0.097  12.418  18.590  0.00  0.00    +0.000 C 
ATOM     25  N   UNL     1       1.441  12.254  18.892  0.00  0.00    +0.000 N 
ATOM     26  H   UNL     1       1.798  11.308  18.961  0.00  0.00    +0.000 HD
BRANCH  25  27
ATOM     27  C   UNL     1       2.382  13.308  19.003  0.00  0.00    +0.000 A 
ATOM     28  C   UNL     1       2.976  13.914  17.886  0.00  0.00    +0.000 A 
ATOM     29  C   UNL     1       3.898  14.953  18.024  0.00  0.00    +0.000 A 
ATOM     30  C   UNL     1       4.227  15.408  19.292  0.00  0.00    +0.000 A 
ATOM     31  C   UNL     1       3.625  14.845  20.406  0.00  0.00    +0.000 A 
ATOM     32  C   UNL     1       2.710  13.790  20.274  0.00  0.00    +0.000 A 
ATOM     33  O   UNL     1       3.882  15.279  21.693  0.00  0.00    +0.000 OA
ATOM     34  C   UNL     1       4.516  16.566  21.679  0.00  0.00    +0.000 C 
ATOM     35  C   UNL     1       5.651  16.603  20.669  0.00  0.00    +0.000 C 
ATOM     36  O   UNL     1       5.151  16.428  19.342  0.00  0.00    +0.000 OA
ENDBRANCH  25  27
ENDBRANCH  22  24
BRANCH  22  37
ATOM     37  C   UNL     1      -1.451  10.579  17.463  0.00  0.00    +0.000 C 
ATOM     38  C   UNL     1      -2.759   9.836  17.611  0.00  0.00    +0.000 C 
ATOM     39  C   UNL     1      -2.719  11.120  16.839  0.00  0.00    +0.000 C 
ENDBRANCH  22  37
ENDBRANCH   1  22
TORSDOF 5
ENDMDL
