MODEL 1
REMARK VINA RESULT:      -7.1      0.000      0.000
REMARK  Name = 
REMARK  3 active torsions:
REMARK  status: ('A' for Active; 'I' for Inactive)
REMARK    1  A    between atoms: C_1  and  C_2
REMARK    2  A    between atoms: C_12  and  C_14
REMARK    3  A    between atoms: C_23  and  C_24
REMARK                            x       y       z     vdW  Elec       q    Type
REMARK                         _______ _______ _______ _____ _____    ______ ____
ROOT
ATOM      1  C   UNL     1       3.529   4.810  18.128  0.00  0.00    +0.000 C 
ATOM      2  C   UNL     1       2.933   6.157  18.410  0.00  0.00    +0.000 A 
ATOM      3  C   UNL     1       2.944   7.185  17.466  0.00  0.00    +0.000 A 
ATOM      4  C   UNL     1       2.390   8.433  17.774  0.00  0.00    +0.000 A 
ATOM      5  C   UNL     1       1.828   8.708  19.019  0.00  0.00    +0.000 A 
ATOM      6  N   UNL     1       1.333   9.934  19.309  0.00  0.00    +0.000 NA
ATOM      7  C   UNL     1       0.831  10.212  20.542  0.00  0.00    +0.000 A 
ATOM      8  N   UNL     1       0.342  11.491  20.742  0.00  0.00    +0.000 N 
ATOM      9  C   UNL     1       0.865  12.629  19.950  0.00  0.00    +0.000 C 
ATOM     10  C   UNL     1      -0.261  13.458  19.285  0.00  0.00    +0.000 C 
ATOM     11  N   UNL     1      -1.363  13.735  20.219  0.00  0.00    +0.000 N 
ATOM     12  C   UNL     1      -1.790  15.045  20.439  0.00  0.00    +0.000 C 
ATOM     13  O   UNL     1      -1.319  16.002  19.827  0.00  0.00    +0.000 OA
ATOM     14  C   UNL     1      -1.908  12.508  20.798  0.00  0.00    +0.000 C 
ATOM     15  C   UNL     1      -0.814  11.788  21.603  0.00  0.00    +0.000 C 
ATOM     16  C   UNL     1       0.844   9.214  21.529  0.00  0.00    +0.000 A 
ATOM     17  C   UNL     1       1.305   7.932  21.219  0.00  0.00    +0.000 A 
ATOM     18  C   UNL     1       1.817   7.664  19.957  0.00  0.00    +0.000 A 
ATOM     19  C   UNL     1       2.346   6.400  19.651  0.00  0.00    +0.000 A 
ENDROOT
BRANCH  12  20
ATOM     20  C   UNL     1      -2.895  15.329  21.403  0.00  0.00    +0.000 A 
ATOM     21  C   UNL     1      -2.659  15.703  22.734  0.00  0.00    +0.000 A 
ATOM     22  C   UNL     1      -3.717  15.776  23.641  0.00  0.00    +0.000 A 
ATOM     23  C   UNL     1      -5.017  15.582  23.195  0.00  0.00    +0.000 A 
ATOM     24  F   UNL     1      -6.028  15.628  24.071  0.00  0.00    +0.000 F 
ATOM     25  C   UNL     1      -5.282  15.346  21.851  0.00  0.00    +0.000 A 
ATOM     26  C   UNL     1      -4.219  15.212  20.953  0.00  0.00    +0.000 A 
ENDBRANCH  12  20
BRANCH  16  27
ATOM     27  C   UNL     1       0.492   9.446  22.892  0.00  0.00    +0.000 C 
ATOM     28  N   UNL     1       0.228   9.604  24.011  0.00  0.00    +0.000 NA
ENDBRANCH  16  27
TORSDOF 2
ENDMDL
MODEL 2
REMARK VINA RESULT:      -6.9      4.865      9.127
REMARK  Name = 
REMARK  3 active torsions:
REMARK  status: ('A' for Active; 'I' for Inactive)
REMARK    1  A    between atoms: C_1  and  C_2
REMARK    2  A    between atoms: C_12  and  C_14
REMARK    3  A    between atoms: C_23  and  C_24
REMARK                            x       y       z     vdW  Elec       q    Type
REMARK                         _______ _______ _______ _____ _____    ______ ____
ROOT
ATOM      1  C   UNL     1       2.005  17.355  19.549  0.00  0.00    +0.000 C 
ATOM      2  C   UNL     1       1.996  15.871  19.338  0.00  0.00    +0.000 A 
ATOM      3  C   UNL     1       2.559  15.279  18.206  0.00  0.00    +0.000 A 
ATOM      4  C   UNL     1       2.517  13.890  18.041  0.00  0.00    +0.000 A 
ATOM      5  C   UNL     1       1.909  13.050  18.971  0.00  0.00    +0.000 A 
ATOM      6  N   UNL     1       1.846  11.712  18.772  0.00  0.00    +0.000 NA
ATOM      7  C   UNL     1       1.207  10.902  19.659  0.00  0.00    +0.000 A 
ATOM      8  N   UNL     1       1.200   9.549  19.373  0.00  0.00    +0.000 N 
ATOM      9  C   UNL     1       1.302   9.075  17.973  0.00  0.00    +0.000 C 
ATOM     10  C   UNL     1       2.417   8.017  17.783  0.00  0.00    +0.000 C 
ATOM     11  N   UNL     1       2.392   6.996  18.841  0.00  0.00    +0.000 N 
ATOM     12  C   UNL     1       2.326   5.641  18.515  0.00  0.00    +0.000 C 
ATOM     13  O   UNL     1       2.351   5.243  17.351  0.00  0.00    +0.000 OA
ATOM     14  C   UNL     1       2.476   7.592  20.174  0.00  0.00    +0.000 C 
ATOM     15  C   UNL     1       1.261   8.505  20.409  0.00  0.00    +0.000 C 
ATOM     16  C   UNL     1       0.593  11.470  20.787  0.00  0.00    +0.000 A 
ATOM     17  C   UNL     1       0.700  12.842  21.024  0.00  0.00    +0.000 A 
ATOM     18  C   UNL     1       1.353  13.656  20.109  0.00  0.00    +0.000 A 
ATOM     19  C   UNL     1       1.412  15.046  20.300  0.00  0.00    +0.000 A 
ENDROOT
BRANCH  12  20
ATOM     20  C   UNL     1       2.278   4.605  19.589  0.00  0.00    +0.000 A 
ATOM     21  C   UNL     1       3.416   3.901  20.010  0.00  0.00    +0.000 A 
ATOM     22  C   UNL     1       3.289   2.818  20.881  0.00  0.00    +0.000 A 
ATOM     23  C   UNL     1       2.044   2.508  21.413  0.00  0.00    +0.000 A 
ATOM     24  F   UNL     1       1.921   1.454  22.229  0.00  0.00    +0.000 F 
ATOM     25  C   UNL     1       0.928   3.281  21.113  0.00  0.00    +0.000 A 
ATOM     26  C   UNL     1       1.042   4.327  20.193  0.00  0.00    +0.000 A 
ENDBRANCH  12  20
BRANCH  16  27
ATOM     27  C   UNL     1      -0.233  10.735  21.689  0.00  0.00    +0.000 C 
ATOM     28  N   UNL     1      -0.913  10.172  22.442  0.00  0.00    +0.000 NA
ENDBRANCH  16  27
TORSDOF 2
ENDMDL
MODEL 3
REMARK VINA RESULT:      -6.7      2.831      4.511
REMARK  Name = 
REMARK  3 active torsions:
REMARK  status: ('A' for Active; 'I' for Inactive)
REMARK    1  A    between atoms: C_1  and  C_2
REMARK    2  A    between atoms: C_12  and  C_14
REMARK    3  A    between atoms: C_23  and  C_24
REMARK                            x       y       z     vdW  Elec       q    Type
REMARK                         _______ _______ _______ _____ _____    ______ ____
ROOT
ATOM      1  C   UNL     1       4.498   1.681  19.701  0.00  0.00    +0.000 C 
ATOM      2  C   UNL     1       3.704   2.893  20.084  0.00  0.00    +0.000 A 
ATOM      3  C   UNL     1       2.839   2.897  21.180  0.00  0.00    +0.000 A 
ATOM      4  C   UNL     1       2.104   4.046  21.495  0.00  0.00    +0.000 A 
ATOM      5  C   UNL     1       2.186   5.211  20.736  0.00  0.00    +0.000 A 
ATOM      6  N   UNL     1       1.437   6.298  21.037  0.00  0.00    +0.000 NA
ATOM      7  C   UNL     1       1.483   7.415  20.262  0.00  0.00    +0.000 A 
ATOM      8  N   UNL     1       0.687   8.477  20.652  0.00  0.00    +0.000 N 
ATOM      9  C   UNL     1      -0.552   8.241  21.431  0.00  0.00    +0.000 C 
ATOM     10  C   UNL     1      -0.624   9.110  22.711  0.00  0.00    +0.000 C 
ATOM     11  N   UNL     1      -0.247  10.507  22.449  0.00  0.00    +0.000 N 
ATOM     12  C   UNL     1      -1.103  11.549  22.804  0.00  0.00    +0.000 C 
ATOM     13  O   UNL     1      -2.163  11.356  23.399  0.00  0.00    +0.000 OA
ATOM     14  C   UNL     1       1.079  10.607  21.838  0.00  0.00    +0.000 C 
ATOM     15  C   UNL     1       1.077   9.886  20.481  0.00  0.00    +0.000 C 
ATOM     16  C   UNL     1       2.311   7.430  19.128  0.00  0.00    +0.000 A 
ATOM     17  C   UNL     1       3.125   6.331  18.843  0.00  0.00    +0.000 A 
ATOM     18  C   UNL     1       3.064   5.197  19.641  0.00  0.00    +0.000 A 
ATOM     19  C   UNL     1       3.827   4.059  19.330  0.00  0.00    +0.000 A 
ENDROOT
BRANCH  12  20
ATOM     20  C   UNL     1      -0.730  12.966  22.519  0.00  0.00    +0.000 A 
ATOM     21  C   UNL     1       0.001  13.341  21.382  0.00  0.00    +0.000 A 
ATOM     22  C   UNL     1       0.484  14.645  21.256  0.00  0.00    +0.000 A 
ATOM     23  C   UNL     1       0.145  15.597  22.208  0.00  0.00    +0.000 A 
ATOM     24  F   UNL     1       0.629  16.840  22.098  0.00  0.00    +0.000 F 
ATOM     25  C   UNL     1      -0.693  15.276  23.270  0.00  0.00    +0.000 A 
ATOM     26  C   UNL     1      -1.126  13.957  23.432  0.00  0.00    +0.000 A 
ENDBRANCH  12  20
BRANCH  16  27
ATOM     27  C   UNL     1       2.313   8.484  18.166  0.00  0.00    +0.000 C 
ATOM     28  N   UNL     1       2.312   9.314  17.355  0.00  0.00    +0.000 NA
ENDBRANCH  16  27
TORSDOF 2
ENDMDL
MODEL 4
REMARK VINA RESULT:      -6.5      5.204      8.687
REMARK  Name = 
REMARK  3 active torsions:
REMARK  status: ('A' for Active; 'I' for Inactive)
REMARK    1  A    between atoms: C_1  and  C_2
REMARK    2  A    between atoms: C_12  and  C_14
REMARK    3  A    between atoms: C_23  and  C_24
REMARK                            x       y       z     vdW  Elec       q    Type
REMARK                         _______ _______ _______ _____ _____    ______ ____
ROOT
ATOM      1  C   UNL     1      -4.922  12.285  24.930  0.00  0.00    +0.000 C 
ATOM      2  C   UNL     1      -3.756  12.834  24.165  0.00  0.00    +0.000 A 
ATOM      3  C   UNL     1      -3.463  14.199  24.137  0.00  0.00    +0.000 A 
ATOM      4  C   UNL     1      -2.373  14.672  23.398  0.00  0.00    +0.000 A 
ATOM      5  C   UNL     1      -1.554  13.823  22.657  0.00  0.00    +0.000 A 
ATOM      6  N   UNL     1      -0.527  14.307  21.919  0.00  0.00    +0.000 NA
ATOM      7  C   UNL     1       0.238  13.480  21.157  0.00  0.00    +0.000 A 
ATOM      8  N   UNL     1       1.267  14.066  20.442  0.00  0.00    +0.000 N 
ATOM      9  C   UNL     1       1.181  15.485  20.026  0.00  0.00    +0.000 C 
ATOM     10  C   UNL     1       2.434  16.301  20.430  0.00  0.00    +0.000 C 
ATOM     11  N   UNL     1       3.680  15.581  20.124  0.00  0.00    +0.000 N 
ATOM     12  C   UNL     1       4.672  16.184  19.349  0.00  0.00    +0.000 C 
ATOM     13  O   UNL     1       4.580  17.344  18.950  0.00  0.00    +0.000 OA
ATOM     14  C   UNL     1       3.711  14.258  20.744  0.00  0.00    +0.000 C 
ATOM     15  C   UNL     1       2.558  13.403  20.194  0.00  0.00    +0.000 C 
ATOM     16  C   UNL     1      -0.056  12.107  21.129  0.00  0.00    +0.000 A 
ATOM     17  C   UNL     1      -1.080  11.595  21.929  0.00  0.00    +0.000 A 
ATOM     18  C   UNL     1      -1.854  12.453  22.699  0.00  0.00    +0.000 A 
ATOM     19  C   UNL     1      -2.929  11.962  23.457  0.00  0.00    +0.000 A 
ENDROOT
BRANCH  12  20
ATOM     20  C   UNL     1       5.928  15.447  19.021  0.00  0.00    +0.000 A 
ATOM     21  C   UNL     1       7.083  15.531  19.812  0.00  0.00    +0.000 A 
ATOM     22  C   UNL     1       8.282  14.975  19.365  0.00  0.00    +0.000 A 
ATOM     23  C   UNL     1       8.301  14.245  18.184  0.00  0.00    +0.000 A 
ATOM     24  F   UNL     1       9.458  13.733  17.745  0.00  0.00    +0.000 F 
ATOM     25  C   UNL     1       7.136  14.035  17.456  0.00  0.00    +0.000 A 
ATOM     26  C   UNL     1       5.947  14.643  17.870  0.00  0.00    +0.000 A 
ENDBRANCH  12  20
BRANCH  16  27
ATOM     27  C   UNL     1       0.578  11.183  20.246  0.00  0.00    +0.000 C 
ATOM     28  N   UNL     1       1.084  10.454  19.497  0.00  0.00    +0.000 NA
ENDBRANCH  16  27
TORSDOF 2
ENDMDL
MODEL 5
REMARK VINA RESULT:      -6.4      4.955      9.244
REMARK  Name = 
REMARK  3 active torsions:
REMARK  status: ('A' for Active; 'I' for Inactive)
REMARK    1  A    between atoms: C_1  and  C_2
REMARK    2  A    between atoms: C_12  and  C_14
REMARK    3  A    between atoms: C_23  and  C_24
REMARK                            x       y       z     vdW  Elec       q    Type
REMARK                         _______ _______ _______ _____ _____    ______ ____
ROOT
ATOM      1  C   UNL     1       2.164  17.220  19.018  0.00  0.00    +0.000 C 
ATOM      2  C   UNL     1       2.255  15.735  18.833  0.00  0.00    +0.000 A 
ATOM      3  C   UNL     1       3.221  15.148  18.014  0.00  0.00    +0.000 A 
ATOM      4  C   UNL     1       3.264  13.758  17.856  0.00  0.00    +0.000 A 
ATOM      5  C   UNL     1       2.351  12.912  18.483  0.00  0.00    +0.000 A 
ATOM      6  N   UNL     1       2.387  11.573  18.286  0.00  0.00    +0.000 NA
ATOM      7  C   UNL     1       1.463  10.756  18.860  0.00  0.00    +0.000 A 
ATOM      8  N   UNL     1       1.584   9.402  18.605  0.00  0.00    +0.000 N 
ATOM      9  C   UNL     1       2.230   8.926  17.359  0.00  0.00    +0.000 C 
ATOM     10  C   UNL     1       3.343   7.884  17.627  0.00  0.00    +0.000 C 
ATOM     11  N   UNL     1       2.919   6.865  18.600  0.00  0.00    +0.000 N 
ATOM     12  C   UNL     1       3.001   5.509  18.284  0.00  0.00    +0.000 C 
ATOM     13  O   UNL     1       3.483   5.108  17.226  0.00  0.00    +0.000 OA
ATOM     14  C   UNL     1       2.469   7.466  19.855  0.00  0.00    +0.000 C 
ATOM     15  C   UNL     1       1.249   8.362  19.591  0.00  0.00    +0.000 C 
ATOM     16  C   UNL     1       0.451  11.318  19.655  0.00  0.00    +0.000 A 
ATOM     17  C   UNL     1       0.441  12.692  19.904  0.00  0.00    +0.000 A 
ATOM     18  C   UNL     1       1.389  13.513  19.309  0.00  0.00    +0.000 A 
ATOM     19  C   UNL     1       1.352  14.905  19.497  0.00  0.00    +0.000 A 
ENDROOT
BRANCH  12  20
ATOM     20  C   UNL     1       2.552   4.475  19.263  0.00  0.00    +0.000 A 
ATOM     21  C   UNL     1       1.199   4.255  19.562  0.00  0.00    +0.000 A 
ATOM     22  C   UNL     1       0.840   3.412  20.615  0.00  0.00    +0.000 A 
ATOM     23  C   UNL     1       1.824   2.708  21.295  0.00  0.00    +0.000 A 
ATOM     24  F   UNL     1       1.480   1.918  22.320  0.00  0.00    +0.000 F 
ATOM     25  C   UNL     1       3.160   2.808  20.922  0.00  0.00    +0.000 A 
ATOM     26  C   UNL     1       3.527   3.699  19.910  0.00  0.00    +0.000 A 
ENDBRANCH  12  20
BRANCH  16  27
ATOM     27  C   UNL     1      -0.653  10.575  20.169  0.00  0.00    +0.000 C 
ATOM     28  N   UNL     1      -1.567  10.004  20.600  0.00  0.00    +0.000 NA
ENDBRANCH  16  27
TORSDOF 2
ENDMDL
MODEL 6
REMARK VINA RESULT:      -6.3      4.409      9.848
REMARK  Name = 
REMARK  3 active torsions:
REMARK  status: ('A' for Active; 'I' for Inactive)
REMARK    1  A    between atoms: C_1  and  C_2
REMARK    2  A    between atoms: C_12  and  C_14
REMARK    3  A    between atoms: C_23  and  C_24
REMARK                            x       y       z     vdW  Elec       q    Type
REMARK                         _______ _______ _______ _____ _____    ______ ____
ROOT
ATOM      1  C   UNL     1      -3.977  15.318  21.703  0.00  0.00    +0.000 C 
ATOM      2  C   UNL     1      -3.067  14.147  21.487  0.00  0.00    +0.000 A 
ATOM      3  C   UNL     1      -3.200  12.961  22.211  0.00  0.00    +0.000 A 
ATOM      4  C   UNL     1      -2.320  11.895  21.990  0.00  0.00    +0.000 A 
ATOM      5  C   UNL     1      -1.280  11.972  21.067  0.00  0.00    +0.000 A 
ATOM      6  N   UNL     1      -0.417  10.943  20.897  0.00  0.00    +0.000 NA
ATOM      7  C   UNL     1       0.628  11.042  20.031  0.00  0.00    +0.000 A 
ATOM      8  N   UNL     1       1.452   9.936  19.920  0.00  0.00    +0.000 N 
ATOM      9  C   UNL     1       1.595   8.988  21.050  0.00  0.00    +0.000 C 
ATOM     10  C   UNL     1       1.359   7.518  20.626  0.00  0.00    +0.000 C 
ATOM     11  N   UNL     1       2.060   7.188  19.375  0.00  0.00    +0.000 N 
ATOM     12  C   UNL     1       2.930   6.099  19.318  0.00  0.00    +0.000 C 
ATOM     13  O   UNL     1       3.098   5.341  20.273  0.00  0.00    +0.000 OA
ATOM     14  C   UNL     1       1.692   8.097  18.290  0.00  0.00    +0.000 C 
ATOM     15  C   UNL     1       2.097   9.533  18.660  0.00  0.00    +0.000 C 
ATOM     16  C   UNL     1       0.817  12.236  19.318  0.00  0.00    +0.000 A 
ATOM     17  C   UNL     1      -0.101  13.281  19.450  0.00  0.00    +0.000 A 
ATOM     18  C   UNL     1      -1.160  13.167  20.340  0.00  0.00    +0.000 A 
ATOM     19  C   UNL     1      -2.053  14.233  20.534  0.00  0.00    +0.000 A 
ENDROOT
BRANCH  12  20
ATOM     20  C   UNL     1       3.657   5.776  18.055  0.00  0.00    +0.000 A 
ATOM     21  C   UNL     1       3.613   4.506  17.461  0.00  0.00    +0.000 A 
ATOM     22  C   UNL     1       4.454   4.202  16.389  0.00  0.00    +0.000 A 
ATOM     23  C   UNL     1       5.256   5.196  15.844  0.00  0.00    +0.000 A 
ATOM     24  F   UNL     1       6.080   4.897  14.832  0.00  0.00    +0.000 F 
ATOM     25  C   UNL     1       5.211   6.497  16.333  0.00  0.00    +0.000 A 
ATOM     26  C   UNL     1       4.416   6.787  17.445  0.00  0.00    +0.000 A 
ENDBRANCH  12  20
BRANCH  16  27
ATOM     27  C   UNL     1       1.963  12.501  18.510  0.00  0.00    +0.000 C 
ATOM     28  N   UNL     1       2.871  12.725  17.823  0.00  0.00    +0.000 NA
ENDBRANCH  16  27
TORSDOF 2
ENDMDL
MODEL 7
REMARK VINA RESULT:      -6.2      4.728      8.426
REMARK  Name = 
REMARK  3 active torsions:
REMARK  status: ('A' for Active; 'I' for Inactive)
REMARK    1  A    between atoms: C_1  and  C_2
REMARK    2  A    between atoms: C_12  and  C_14
REMARK    3  A    between atoms: C_23  and  C_24
REMARK                            x       y       z     vdW  Elec       q    Type
REMARK                         _______ _______ _______ _____ _____    ______ ____
ROOT
ATOM      1  C   UNL     1      -6.269  12.797  24.123  0.00  0.00    +0.000 C 
ATOM      2  C   UNL     1      -5.122  13.277  23.285  0.00  0.00    +0.000 A 
ATOM      3  C   UNL     1      -5.161  14.493  22.600  0.00  0.00    +0.000 A 
ATOM      4  C   UNL     1      -4.075  14.898  21.817  0.00  0.00    +0.000 A 
ATOM      5  C   UNL     1      -2.932  14.114  21.672  0.00  0.00    +0.000 A 
ATOM      6  N   UNL     1      -1.909  14.508  20.877  0.00  0.00    +0.000 NA
ATOM      7  C   UNL     1      -0.817  13.716  20.699  0.00  0.00    +0.000 A 
ATOM      8  N   UNL     1       0.180  14.206  19.875  0.00  0.00    +0.000 N 
ATOM      9  C   UNL     1      -0.142  15.171  18.797  0.00  0.00    +0.000 C 
ATOM     10  C   UNL     1       0.757  16.431  18.839  0.00  0.00    +0.000 C 
ATOM     11  N   UNL     1       2.174  16.088  19.039  0.00  0.00    +0.000 N 
ATOM     12  C   UNL     1       3.145  16.553  18.152  0.00  0.00    +0.000 C 
ATOM     13  O   UNL     1       2.876  17.309  17.219  0.00  0.00    +0.000 OA
ATOM     14  C   UNL     1       2.374  15.278  20.240  0.00  0.00    +0.000 C 
ATOM     15  C   UNL     1       1.612  13.951  20.099  0.00  0.00    +0.000 C 
ATOM     16  C   UNL     1      -0.764  12.467  21.339  0.00  0.00    +0.000 A 
ATOM     17  C   UNL     1      -1.793  12.079  22.200  0.00  0.00    +0.000 A 
ATOM     18  C   UNL     1      -2.902  12.897  22.370  0.00  0.00    +0.000 A 
ATOM     19  C   UNL     1      -3.975  12.492  23.181  0.00  0.00    +0.000 A 
ENDROOT
BRANCH  12  20
ATOM     20  C   UNL     1       4.580  16.188  18.341  0.00  0.00    +0.000 A 
ATOM     21  C   UNL     1       5.488  17.017  19.018  0.00  0.00    +0.000 A 
ATOM     22  C   UNL     1       6.852  16.721  19.008  0.00  0.00    +0.000 A 
ATOM     23  C   UNL     1       7.294  15.545  18.416  0.00  0.00    +0.000 A 
ATOM     24  F   UNL     1       8.605  15.276  18.385  0.00  0.00    +0.000 F 
ATOM     25  C   UNL     1       6.393  14.644  17.860  0.00  0.00    +0.000 A 
ATOM     26  C   UNL     1       5.034  14.968  17.815  0.00  0.00    +0.000 A 
ENDBRANCH  12  20
BRANCH  16  27
ATOM     27  C   UNL     1       0.254  11.498  21.094  0.00  0.00    +0.000 C 
ATOM     28  N   UNL     1       1.054  10.684  20.884  0.00  0.00    +0.000 NA
ENDBRANCH  16  27
TORSDOF 2
ENDMDL
MODEL 8
REMARK VINA RESULT:      -6.1      1.967      2.442
REMARK  Name = 
REMARK  3 active torsions:
REMARK  status: ('A' for Active; 'I' for Inactive)
REMARK    1  A    between atoms: C_1  and  C_2
REMARK    2  A    between atoms: C_12  and  C_14
REMARK    3  A    between atoms: C_23  and  C_24
REMARK                            x       y       z     vdW  Elec       q    Type
REMARK                         _______ _______ _______ _____ _____    ______ ____
ROOT
ATOM      1  C   UNL     1       2.354   4.193  19.788  0.00  0.00    +0.000 C 
ATOM      2  C   UNL     1       2.173   5.677  19.678  0.00  0.00    +0.000 A 
ATOM      3  C   UNL     1       2.816   6.432  18.695  0.00  0.00    +0.000 A 
ATOM      4  C   UNL     1       2.632   7.817  18.635  0.00  0.00    +0.000 A 
ATOM      5  C   UNL     1       1.827   8.499  19.546  0.00  0.00    +0.000 A 
ATOM      6  N   UNL     1       1.694   9.845  19.493  0.00  0.00    +0.000 NA
ATOM      7  C   UNL     1       0.948  10.511  20.415  0.00  0.00    +0.000 A 
ATOM      8  N   UNL     1       0.866  11.885  20.276  0.00  0.00    +0.000 N 
ATOM      9  C   UNL     1       1.953  12.639  19.609  0.00  0.00    +0.000 C 
ATOM     10  C   UNL     1       1.429  13.570  18.488  0.00  0.00    +0.000 C 
ATOM     11  N   UNL     1       0.243  14.329  18.913  0.00  0.00    +0.000 N 
ATOM     12  C   UNL     1       0.219  15.720  18.811  0.00  0.00    +0.000 C 
ATOM     13  O   UNL     1       1.144  16.359  18.312  0.00  0.00    +0.000 OA
ATOM     14  C   UNL     1      -0.825  13.448  19.385  0.00  0.00    +0.000 C 
ATOM     15  C   UNL     1      -0.340  12.660  20.612  0.00  0.00    +0.000 C 
ATOM     16  C   UNL     1       0.323   9.787  21.443  0.00  0.00    +0.000 A 
ATOM     17  C   UNL     1       0.414   8.394  21.472  0.00  0.00    +0.000 A 
ATOM     18  C   UNL     1       1.181   7.729  20.525  0.00  0.00    +0.000 A 
ATOM     19  C   UNL     1       1.337   6.334  20.580  0.00  0.00    +0.000 A 
ENDROOT
BRANCH  12  20
ATOM     20  C   UNL     1      -0.977  16.492  19.262  0.00  0.00    +0.000 A 
ATOM     21  C   UNL     1      -1.680  16.179  20.434  0.00  0.00    +0.000 A 
ATOM     22  C   UNL     1      -2.894  16.808  20.714  0.00  0.00    +0.000 A 
ATOM     23  C   UNL     1      -3.349  17.822  19.882  0.00  0.00    +0.000 A 
ATOM     24  F   UNL     1      -4.525  18.408  20.139  0.00  0.00    +0.000 F 
ATOM     25  C   UNL     1      -2.596  18.241  18.790  0.00  0.00    +0.000 A 
ATOM     26  C   UNL     1      -1.411  17.570  18.474  0.00  0.00    +0.000 A 
ENDBRANCH  12  20
BRANCH  16  27
ATOM     27  C   UNL     1      -0.346  10.399  22.545  0.00  0.00    +0.000 C 
ATOM     28  N   UNL     1      -0.910  10.864  23.447  0.00  0.00    +0.000 NA
ENDBRANCH  16  27
TORSDOF 2
ENDMDL
MODEL 9
REMARK VINA RESULT:      -6.1      5.015      7.000
REMARK  Name = 
REMARK  3 active torsions:
REMARK  status: ('A' for Active; 'I' for Inactive)
REMARK    1  A    between atoms: C_1  and  C_2
REMARK    2  A    between atoms: C_12  and  C_14
REMARK    3  A    between atoms: C_23  and  C_24
REMARK                            x       y       z     vdW  Elec       q    Type
REMARK                         _______ _______ _______ _____ _____    ______ ____
ROOT
ATOM      1  C   UNL     1       9.925  16.970  17.860  0.00  0.00    +0.000 C 
ATOM      2  C   UNL     1       8.598  16.295  18.035  0.00  0.00    +0.000 A 
ATOM      3  C   UNL     1       8.385  14.968  17.658  0.00  0.00    +0.000 A 
ATOM      4  C   UNL     1       7.127  14.379  17.825  0.00  0.00    +0.000 A 
ATOM      5  C   UNL     1       6.044  15.080  18.350  0.00  0.00    +0.000 A 
ATOM      6  N   UNL     1       4.825  14.501  18.467  0.00  0.00    +0.000 NA
ATOM      7  C   UNL     1       3.759  15.206  18.933  0.00  0.00    +0.000 A 
ATOM      8  N   UNL     1       2.556  14.528  19.023  0.00  0.00    +0.000 N 
ATOM      9  C   UNL     1       2.273  13.377  18.134  0.00  0.00    +0.000 C 
ATOM     10  C   UNL     1       1.809  12.123  18.915  0.00  0.00    +0.000 C 
ATOM     11  N   UNL     1       0.801  12.452  19.934  0.00  0.00    +0.000 N 
ATOM     12  C   UNL     1      -0.425  11.787  19.957  0.00  0.00    +0.000 C 
ATOM     13  O   UNL     1      -0.689  10.868  19.183  0.00  0.00    +0.000 OA
ATOM     14  C   UNL     1       1.278  13.480  20.858  0.00  0.00    +0.000 C 
ATOM     15  C   UNL     1       1.566  14.777  20.084  0.00  0.00    +0.000 C 
ATOM     16  C   UNL     1       3.927  16.555  19.282  0.00  0.00    +0.000 A 
ATOM     17  C   UNL     1       5.193  17.141  19.213  0.00  0.00    +0.000 A 
ATOM     18  C   UNL     1       6.272  16.411  18.732  0.00  0.00    +0.000 A 
ATOM     19  C   UNL     1       7.536  17.006  18.594  0.00  0.00    +0.000 A 
ENDROOT
BRANCH  12  20
ATOM     20  C   UNL     1      -1.456  12.136  20.979  0.00  0.00    +0.000 A 
ATOM     21  C   UNL     1      -1.367  11.719  22.315  0.00  0.00    +0.000 A 
ATOM     22  C   UNL     1      -2.443  11.911  23.184  0.00  0.00    +0.000 A 
ATOM     23  C   UNL     1      -3.559  12.613  22.748  0.00  0.00    +0.000 A 
ATOM     24  F   UNL     1      -4.600  12.774  23.575  0.00  0.00    +0.000 F 
ATOM     25  C   UNL     1      -3.608  13.152  21.468  0.00  0.00    +0.000 A 
ATOM     26  C   UNL     1      -2.558  12.908  20.578  0.00  0.00    +0.000 A 
ENDBRANCH  12  20
BRANCH  16  27
ATOM     27  C   UNL     1       2.848  17.422  19.627  0.00  0.00    +0.000 C 
ATOM     28  N   UNL     1       1.995  18.150  19.928  0.00  0.00    +0.000 NA
ENDBRANCH  16  27
TORSDOF 2
ENDMDL
