MODEL 1
REMARK VINA RESULT:      -9.4      0.000      0.000
REMARK  Name = 
REMARK  3 active torsions:
REMARK  status: ('A' for Active; 'I' for Inactive)
REMARK    1  A    between atoms: C_1  and  C_2
REMARK    2  A    between atoms: C_5  and  C_6
REMARK    3  A    between atoms: C_8  and  C_9
REMARK                            x       y       z     vdW  Elec       q    Type
REMARK                         _______ _______ _______ _____ _____    ______ ____
ROOT
ATOM      1  C   UNL     1       0.249  10.341  19.535  0.00  0.00    +0.000 A 
ATOM      2  C   UNL     1      -0.098  10.554  20.903  0.00  0.00    +0.000 A 
ATOM      3  C   UNL     1      -0.832  11.651  21.402  0.00  0.00    +0.000 A 
ATOM      4  C   UNL     1      -1.497  11.608  22.619  0.00  0.00    +0.000 A 
ATOM      5  C   UNL     1      -1.255  10.556  23.476  0.00  0.00    +0.000 A 
ATOM      6  C   UNL     1      -0.306   9.595  23.129  0.00  0.00    +0.000 A 
ATOM      7  C   UNL     1       0.258   9.559  21.838  0.00  0.00    +0.000 A 
ATOM      8  C   UNL     1       1.103   8.509  21.456  0.00  0.00    +0.000 A 
ATOM      9  C   UNL     1       1.557   8.370  20.134  0.00  0.00    +0.000 A 
ATOM     10  C   UNL     1       2.350   7.257  19.793  0.00  0.00    +0.000 A 
ATOM     11  C   UNL     1       2.757   7.052  18.471  0.00  0.00    +0.000 A 
ATOM     12  C   UNL     1       2.426   7.982  17.498  0.00  0.00    +0.000 A 
ATOM     13  C   UNL     1       1.644   9.088  17.842  0.00  0.00    +0.000 A 
ATOM     14  C   UNL     1       1.149   9.300  19.154  0.00  0.00    +0.000 A 
ENDROOT
BRANCH   1  17
ATOM     15  C   UNL     1      -2.431  11.218  17.021  0.00  0.00    +0.000 C 
ATOM     16  C   UNL     1      -1.521  10.115  17.530  0.00  0.00    +0.000 C 
ATOM     17  C   UNL     1      -0.638  10.914  18.455  0.00  0.00    +0.000 C 
ATOM     18  N   UNL     1      -0.585  12.168  18.107  0.00  0.00    +0.000 NA
ATOM     19  N   UNL     1      -1.509  12.360  17.125  0.00  0.00    +0.000 N 
ATOM     20  H   UNL     1      -1.031  12.519  16.237  0.00  0.00    +0.000 HD
BRANCH  15  25
ATOM     21  C   UNL     1      -7.379  12.462  19.862  0.00  0.00    +0.000 C 
ATOM     22  C   UNL     1      -6.099  12.070  19.191  0.00  0.00    +0.000 A 
ATOM     23  C   UNL     1      -4.870  12.395  19.767  0.00  0.00    +0.000 A 
ATOM     24  C   UNL     1      -3.678  12.100  19.103  0.00  0.00    +0.000 A 
ATOM     25  C   UNL     1      -3.684  11.475  17.845  0.00  0.00    +0.000 A 
ATOM     26  C   UNL     1      -4.926  11.114  17.296  0.00  0.00    +0.000 A 
ATOM     27  C   UNL     1      -6.116  11.414  17.959  0.00  0.00    +0.000 A 
ENDBRANCH  15  25
ENDBRANCH   1  17
TORSDOF 2
ENDMDL
MODEL 2
REMARK VINA RESULT:      -9.1      0.973      1.088
REMARK  Name = 
REMARK  3 active torsions:
REMARK  status: ('A' for Active; 'I' for Inactive)
REMARK    1  A    between atoms: C_1  and  C_2
REMARK    2  A    between atoms: C_5  and  C_6
REMARK    3  A    between atoms: C_8  and  C_9
REMARK                            x       y       z     vdW  Elec       q    Type
REMARK                         _______ _______ _______ _____ _____    ______ ____
ROOT
ATOM      1  C   UNL     1      -0.535  10.703  19.457  0.00  0.00    +0.000 A 
ATOM      2  C   UNL     1      -0.916  11.161  20.753  0.00  0.00    +0.000 A 
ATOM      3  C   UNL     1      -1.774  12.249  21.020  0.00  0.00    +0.000 A 
ATOM      4  C   UNL     1      -2.442  12.391  22.228  0.00  0.00    +0.000 A 
ATOM      5  C   UNL     1      -2.090  11.578  23.285  0.00  0.00    +0.000 A 
ATOM      6  C   UNL     1      -1.035  10.678  23.134  0.00  0.00    +0.000 A 
ATOM      7  C   UNL     1      -0.459  10.433  21.872  0.00  0.00    +0.000 A 
ATOM      8  C   UNL     1       0.503   9.428  21.708  0.00  0.00    +0.000 A 
ATOM      9  C   UNL     1       0.982   9.064  20.439  0.00  0.00    +0.000 A 
ATOM     10  C   UNL     1       1.899   8.000  20.330  0.00  0.00    +0.000 A 
ATOM     11  C   UNL     1       2.340   7.567  19.075  0.00  0.00    +0.000 A 
ATOM     12  C   UNL     1       1.914   8.227  17.932  0.00  0.00    +0.000 A 
ATOM     13  C   UNL     1       1.009   9.285  18.046  0.00  0.00    +0.000 A 
ATOM     14  C   UNL     1       0.481   9.714  19.291  0.00  0.00    +0.000 A 
ENDROOT
BRANCH   1  17
ATOM     15  C   UNL     1      -3.364  10.890  16.961  0.00  0.00    +0.000 C 
ATOM     16  C   UNL     1      -2.512   9.958  17.802  0.00  0.00    +0.000 C 
ATOM     17  C   UNL     1      -1.471  10.931  18.293  0.00  0.00    +0.000 C 
ATOM     18  N   UNL     1      -1.338  11.944  17.484  0.00  0.00    +0.000 NA
ATOM     19  N   UNL     1      -2.336  11.864  16.561  0.00  0.00    +0.000 N 
ATOM     20  H   UNL     1      -1.937  11.615  15.654  0.00  0.00    +0.000 HD
BRANCH  15  25
ATOM     21  C   UNL     1      -7.586  13.954  19.585  0.00  0.00    +0.000 C 
ATOM     22  C   UNL     1      -6.551  13.090  18.932  0.00  0.00    +0.000 A 
ATOM     23  C   UNL     1      -5.611  12.408  19.704  0.00  0.00    +0.000 A 
ATOM     24  C   UNL     1      -4.598  11.666  19.092  0.00  0.00    +0.000 A 
ATOM     25  C   UNL     1      -4.498  11.592  17.693  0.00  0.00    +0.000 A 
ATOM     26  C   UNL     1      -5.477  12.248  16.928  0.00  0.00    +0.000 A 
ATOM     27  C   UNL     1      -6.485  12.993  17.541  0.00  0.00    +0.000 A 
ENDBRANCH  15  25
ENDBRANCH   1  17
TORSDOF 2
ENDMDL
MODEL 3
REMARK VINA RESULT:      -8.7      3.362      6.368
REMARK  Name = 
REMARK  3 active torsions:
REMARK  status: ('A' for Active; 'I' for Inactive)
REMARK    1  A    between atoms: C_1  and  C_2
REMARK    2  A    between atoms: C_5  and  C_6
REMARK    3  A    between atoms: C_8  and  C_9
REMARK                            x       y       z     vdW  Elec       q    Type
REMARK                         _______ _______ _______ _____ _____    ______ ____
ROOT
ATOM      1  C   UNL     1       3.454   5.785  18.083  0.00  0.00    +0.000 A 
ATOM      2  C   UNL     1       2.798   4.852  18.939  0.00  0.00    +0.000 A 
ATOM      3  C   UNL     1       2.020   5.182  20.070  0.00  0.00    +0.000 A 
ATOM      4  C   UNL     1       1.079   4.314  20.604  0.00  0.00    +0.000 A 
ATOM      5  C   UNL     1       1.053   3.006  20.168  0.00  0.00    +0.000 A 
ATOM      6  C   UNL     1       2.009   2.572  19.250  0.00  0.00    +0.000 A 
ATOM      7  C   UNL     1       2.866   3.484  18.602  0.00  0.00    +0.000 A 
ATOM      8  C   UNL     1       3.724   3.056  17.581  0.00  0.00    +0.000 A 
ATOM      9  C   UNL     1       4.477   3.966  16.820  0.00  0.00    +0.000 A 
ATOM     10  C   UNL     1       5.272   3.483  15.762  0.00  0.00    +0.000 A 
ATOM     11  C   UNL     1       5.977   4.369  14.940  0.00  0.00    +0.000 A 
ATOM     12  C   UNL     1       5.938   5.729  15.205  0.00  0.00    +0.000 A 
ATOM     13  C   UNL     1       5.153   6.203  16.260  0.00  0.00    +0.000 A 
ATOM     14  C   UNL     1       4.366   5.349  17.075  0.00  0.00    +0.000 A 
ENDROOT
BRANCH   1  17
ATOM     15  C   UNL     1       1.394   8.949  17.949  0.00  0.00    +0.000 C 
ATOM     16  C   UNL     1       1.492   7.511  17.472  0.00  0.00    +0.000 C 
ATOM     17  C   UNL     1       2.885   7.178  17.940  0.00  0.00    +0.000 C 
ATOM     18  N   UNL     1       3.626   8.244  18.049  0.00  0.00    +0.000 NA
ATOM     19  N   UNL     1       2.815   9.325  17.880  0.00  0.00    +0.000 N 
ATOM     20  H   UNL     1       3.027   9.769  16.985  0.00  0.00    +0.000 HD
BRANCH  15  25
ATOM     21  C   UNL     1      -0.502  10.106  23.349  0.00  0.00    +0.000 C 
ATOM     22  C   UNL     1      -0.069   9.733  21.965  0.00  0.00    +0.000 A 
ATOM     23  C   UNL     1       0.905   8.753  21.769  0.00  0.00    +0.000 A 
ATOM     24  C   UNL     1       1.365   8.461  20.484  0.00  0.00    +0.000 A 
ATOM     25  C   UNL     1       0.866   9.143  19.363  0.00  0.00    +0.000 A 
ATOM     26  C   UNL     1      -0.146  10.096  19.569  0.00  0.00    +0.000 A 
ATOM     27  C   UNL     1      -0.600  10.390  20.855  0.00  0.00    +0.000 A 
ENDBRANCH  15  25
ENDBRANCH   1  17
TORSDOF 2
ENDMDL
MODEL 4
REMARK VINA RESULT:      -8.4      4.967      9.777
REMARK  Name = 
REMARK  3 active torsions:
REMARK  status: ('A' for Active; 'I' for Inactive)
REMARK    1  A    between atoms: C_1  and  C_2
REMARK    2  A    between atoms: C_5  and  C_6
REMARK    3  A    between atoms: C_8  and  C_9
REMARK                            x       y       z     vdW  Elec       q    Type
REMARK                         _______ _______ _______ _____ _____    ______ ____
ROOT
ATOM      1  C   UNL     1       3.627   5.824  18.416  0.00  0.00    +0.000 A 
ATOM      2  C   UNL     1       3.391   4.634  19.166  0.00  0.00    +0.000 A 
ATOM      3  C   UNL     1       4.001   3.383  18.934  0.00  0.00    +0.000 A 
ATOM      4  C   UNL     1       4.074   2.399  19.910  0.00  0.00    +0.000 A 
ATOM      5  C   UNL     1       3.337   2.548  21.066  0.00  0.00    +0.000 A 
ATOM      6  C   UNL     1       2.491   3.649  21.200  0.00  0.00    +0.000 A 
ATOM      7  C   UNL     1       2.528   4.715  20.280  0.00  0.00    +0.000 A 
ATOM      8  C   UNL     1       1.777   5.877  20.501  0.00  0.00    +0.000 A 
ATOM      9  C   UNL     1       1.910   7.009  19.680  0.00  0.00    +0.000 A 
ATOM     10  C   UNL     1       1.178   8.172  19.991  0.00  0.00    +0.000 A 
ATOM     11  C   UNL     1       1.342   9.338  19.237  0.00  0.00    +0.000 A 
ATOM     12  C   UNL     1       2.190   9.333  18.139  0.00  0.00    +0.000 A 
ATOM     13  C   UNL     1       2.909   8.175  17.831  0.00  0.00    +0.000 A 
ATOM     14  C   UNL     1       2.828   6.992  18.609  0.00  0.00    +0.000 A 
ENDROOT
BRANCH   1  17
ATOM     15  C   UNL     1       6.937   5.549  16.616  0.00  0.00    +0.000 C 
ATOM     16  C   UNL     1       6.115   5.040  17.786  0.00  0.00    +0.000 C 
ATOM     17  C   UNL     1       4.963   6.010  17.735  0.00  0.00    +0.000 C 
ATOM     18  N   UNL     1       5.303   7.135  17.171  0.00  0.00    +0.000 NA
ATOM     19  N   UNL     1       6.550   6.968  16.647  0.00  0.00    +0.000 N 
ATOM     20  H   UNL     1       7.221   7.513  17.192  0.00  0.00    +0.000 HD
BRANCH  15  25
ATOM     21  C   UNL     1       5.710   2.831  11.595  0.00  0.00    +0.000 C 
ATOM     22  C   UNL     1       5.988   3.606  12.846  0.00  0.00    +0.000 A 
ATOM     23  C   UNL     1       7.091   4.458  12.920  0.00  0.00    +0.000 A 
ATOM     24  C   UNL     1       7.395   5.119  14.111  0.00  0.00    +0.000 A 
ATOM     25  C   UNL     1       6.606   4.943  15.260  0.00  0.00    +0.000 A 
ATOM     26  C   UNL     1       5.474   4.117  15.160  0.00  0.00    +0.000 A 
ATOM     27  C   UNL     1       5.175   3.453  13.970  0.00  0.00    +0.000 A 
ENDBRANCH  15  25
ENDBRANCH   1  17
TORSDOF 2
ENDMDL
MODEL 5
REMARK VINA RESULT:      -8.4      4.782      9.619
REMARK  Name = 
REMARK  3 active torsions:
REMARK  status: ('A' for Active; 'I' for Inactive)
REMARK    1  A    between atoms: C_1  and  C_2
REMARK    2  A    between atoms: C_5  and  C_6
REMARK    3  A    between atoms: C_8  and  C_9
REMARK                            x       y       z     vdW  Elec       q    Type
REMARK                         _______ _______ _______ _____ _____    ______ ____
ROOT
ATOM      1  C   UNL     1       3.412   6.046  18.552  0.00  0.00    +0.000 A 
ATOM      2  C   UNL     1       3.141   4.863  19.303  0.00  0.00    +0.000 A 
ATOM      3  C   UNL     1       3.728   3.599  19.082  0.00  0.00    +0.000 A 
ATOM      4  C   UNL     1       3.768   2.617  20.062  0.00  0.00    +0.000 A 
ATOM      5  C   UNL     1       3.020   2.785  21.208  0.00  0.00    +0.000 A 
ATOM      6  C   UNL     1       2.196   3.903  21.328  0.00  0.00    +0.000 A 
ATOM      7  C   UNL     1       2.266   4.966  20.405  0.00  0.00    +0.000 A 
ATOM      8  C   UNL     1       1.537   6.143  20.613  0.00  0.00    +0.000 A 
ATOM      9  C   UNL     1       1.704   7.270  19.791  0.00  0.00    +0.000 A 
ATOM     10  C   UNL     1       0.993   8.449  20.089  0.00  0.00    +0.000 A 
ATOM     11  C   UNL     1       1.191   9.609  19.333  0.00  0.00    +0.000 A 
ATOM     12  C   UNL     1       2.052   9.583  18.247  0.00  0.00    +0.000 A 
ATOM     13  C   UNL     1       2.750   8.409  17.952  0.00  0.00    +0.000 A 
ATOM     14  C   UNL     1       2.635   7.230  18.732  0.00  0.00    +0.000 A 
ENDROOT
BRANCH   1  17
ATOM     15  C   UNL     1       6.784   5.689  16.888  0.00  0.00    +0.000 C 
ATOM     16  C   UNL     1       5.947   5.296  18.092  0.00  0.00    +0.000 C 
ATOM     17  C   UNL     1       4.760   6.201  17.888  0.00  0.00    +0.000 C 
ATOM     18  N   UNL     1       5.073   7.259  17.194  0.00  0.00    +0.000 NA
ATOM     19  N   UNL     1       6.341   7.082  16.728  0.00  0.00    +0.000 N 
ATOM     20  H   UNL     1       6.972   7.720  17.216  0.00  0.00    +0.000 HD
BRANCH  15  25
ATOM     21  C   UNL     1       5.701   3.048  11.793  0.00  0.00    +0.000 C 
ATOM     22  C   UNL     1       6.019   3.646  13.129  0.00  0.00    +0.000 A 
ATOM     23  C   UNL     1       5.219   3.365  14.238  0.00  0.00    +0.000 A 
ATOM     24  C   UNL     1       5.468   3.984  15.464  0.00  0.00    +0.000 A 
ATOM     25  C   UNL     1       6.520   4.902  15.612  0.00  0.00    +0.000 A 
ATOM     26  C   UNL     1       7.345   5.143  14.501  0.00  0.00    +0.000 A 
ATOM     27  C   UNL     1       7.091   4.527  13.275  0.00  0.00    +0.000 A 
ENDBRANCH  15  25
ENDBRANCH   1  17
TORSDOF 2
ENDMDL
MODEL 6
REMARK VINA RESULT:      -8.2      2.066      7.240
REMARK  Name = 
REMARK  3 active torsions:
REMARK  status: ('A' for Active; 'I' for Inactive)
REMARK    1  A    between atoms: C_1  and  C_2
REMARK    2  A    between atoms: C_5  and  C_6
REMARK    3  A    between atoms: C_8  and  C_9
REMARK                            x       y       z     vdW  Elec       q    Type
REMARK                         _______ _______ _______ _____ _____    ______ ____
ROOT
ATOM      1  C   UNL     1      -0.910  11.179  20.480  0.00  0.00    +0.000 A 
ATOM      2  C   UNL     1      -1.409  11.000  19.155  0.00  0.00    +0.000 A 
ATOM      3  C   UNL     1      -0.779  10.256  18.136  0.00  0.00    +0.000 A 
ATOM      4  C   UNL     1      -1.471   9.762  17.039  0.00  0.00    +0.000 A 
ATOM      5  C   UNL     1      -2.761  10.195  16.813  0.00  0.00    +0.000 A 
ATOM      6  C   UNL     1      -3.314  11.161  17.652  0.00  0.00    +0.000 A 
ATOM      7  C   UNL     1      -2.669  11.552  18.843  0.00  0.00    +0.000 A 
ATOM      8  C   UNL     1      -3.298  12.417  19.747  0.00  0.00    +0.000 A 
ATOM      9  C   UNL     1      -2.743  12.702  21.005  0.00  0.00    +0.000 A 
ATOM     10  C   UNL     1      -3.454  13.527  21.899  0.00  0.00    +0.000 A 
ATOM     11  C   UNL     1      -2.962  13.771  23.186  0.00  0.00    +0.000 A 
ATOM     12  C   UNL     1      -1.737  13.244  23.564  0.00  0.00    +0.000 A 
ATOM     13  C   UNL     1      -1.032  12.431  22.672  0.00  0.00    +0.000 A 
ATOM     14  C   UNL     1      -1.525  12.099  21.384  0.00  0.00    +0.000 A 
ENDROOT
BRANCH   1  17
ATOM     15  C   UNL     1       0.999   8.075  21.473  0.00  0.00    +0.000 C 
ATOM     16  C   UNL     1      -0.382   8.663  21.249  0.00  0.00    +0.000 C 
ATOM     17  C   UNL     1      -0.020  10.116  21.080  0.00  0.00    +0.000 C 
ATOM     18  N   UNL     1       1.102  10.407  21.676  0.00  0.00    +0.000 NA
ATOM     19  N   UNL     1       1.660   9.235  22.091  0.00  0.00    +0.000 N 
ATOM     20  H   UNL     1       1.609   9.179  23.109  0.00  0.00    +0.000 HD
BRANCH  15  25
ATOM     21  C   UNL     1       4.226   6.382  16.910  0.00  0.00    +0.000 C 
ATOM     22  C   UNL     1       3.322   6.799  18.029  0.00  0.00    +0.000 A 
ATOM     23  C   UNL     1       2.739   8.066  18.031  0.00  0.00    +0.000 A 
ATOM     24  C   UNL     1       1.960   8.484  19.112  0.00  0.00    +0.000 A 
ATOM     25  C   UNL     1       1.748   7.647  20.219  0.00  0.00    +0.000 A 
ATOM     26  C   UNL     1       2.305   6.358  20.185  0.00  0.00    +0.000 A 
ATOM     27  C   UNL     1       3.087   5.944  19.106  0.00  0.00    +0.000 A 
ENDBRANCH  15  25
ENDBRANCH   1  17
TORSDOF 2
ENDMDL
MODEL 7
REMARK VINA RESULT:      -8.2      5.654      9.589
REMARK  Name = 
REMARK  3 active torsions:
REMARK  status: ('A' for Active; 'I' for Inactive)
REMARK    1  A    between atoms: C_1  and  C_2
REMARK    2  A    between atoms: C_5  and  C_6
REMARK    3  A    between atoms: C_8  and  C_9
REMARK                            x       y       z     vdW  Elec       q    Type
REMARK                         _______ _______ _______ _____ _____    ______ ____
ROOT
ATOM      1  C   UNL     1       3.367   5.054  18.762  0.00  0.00    +0.000 A 
ATOM      2  C   UNL     1       2.797   4.077  19.631  0.00  0.00    +0.000 A 
ATOM      3  C   UNL     1       3.111   2.701  19.638  0.00  0.00    +0.000 A 
ATOM      4  C   UNL     1       2.871   1.889  20.737  0.00  0.00    +0.000 A 
ATOM      5  C   UNL     1       2.101   2.376  21.772  0.00  0.00    +0.000 A 
ATOM      6  C   UNL     1       1.531   3.643  21.663  0.00  0.00    +0.000 A 
ATOM      7  C   UNL     1       1.891   4.519  20.619  0.00  0.00    +0.000 A 
ATOM      8  C   UNL     1       1.421   5.838  20.597  0.00  0.00    +0.000 A 
ATOM      9  C   UNL     1       1.882   6.771  19.654  0.00  0.00    +0.000 A 
ATOM     10  C   UNL     1       1.423   8.102  19.723  0.00  0.00    +0.000 A 
ATOM     11  C   UNL     1       1.917   9.071  18.844  0.00  0.00    +0.000 A 
ATOM     12  C   UNL     1       2.824   8.707  17.861  0.00  0.00    +0.000 A 
ATOM     13  C   UNL     1       3.272   7.386  17.793  0.00  0.00    +0.000 A 
ATOM     14  C   UNL     1       2.852   6.385  18.706  0.00  0.00    +0.000 A 
ENDROOT
BRANCH   1  17
ATOM     15  C   UNL     1       6.730   5.139  17.044  0.00  0.00    +0.000 C 
ATOM     16  C   UNL     1       5.228   5.195  16.833  0.00  0.00    +0.000 C 
ATOM     17  C   UNL     1       4.759   4.831  18.218  0.00  0.00    +0.000 C 
ATOM     18  N   UNL     1       5.649   4.128  18.860  0.00  0.00    +0.000 NA
ATOM     19  N   UNL     1       6.787   4.129  18.112  0.00  0.00    +0.000 N 
ATOM     20  H   UNL     1       6.935   3.198  17.720  0.00  0.00    +0.000 HD
BRANCH  15  25
ATOM     21  C   UNL     1       9.003  10.075  19.180  0.00  0.00    +0.000 C 
ATOM     22  C   UNL     1       8.491   8.806  18.571  0.00  0.00    +0.000 A 
ATOM     23  C   UNL     1       7.782   8.835  17.370  0.00  0.00    +0.000 A 
ATOM     24  C   UNL     1       7.237   7.663  16.843  0.00  0.00    +0.000 A 
ATOM     25  C   UNL     1       7.383   6.433  17.506  0.00  0.00    +0.000 A 
ATOM     26  C   UNL     1       8.136   6.411  18.691  0.00  0.00    +0.000 A 
ATOM     27  C   UNL     1       8.675   7.584  19.219  0.00  0.00    +0.000 A 
ENDBRANCH  15  25
ENDBRANCH   1  17
TORSDOF 2
ENDMDL
MODEL 8
REMARK VINA RESULT:      -8.1      5.156      9.880
REMARK  Name = 
REMARK  3 active torsions:
REMARK  status: ('A' for Active; 'I' for Inactive)
REMARK    1  A    between atoms: C_1  and  C_2
REMARK    2  A    between atoms: C_5  and  C_6
REMARK    3  A    between atoms: C_8  and  C_9
REMARK                            x       y       z     vdW  Elec       q    Type
REMARK                         _______ _______ _______ _____ _____    ______ ____
ROOT
ATOM      1  C   UNL     1       3.039   5.581  18.408  0.00  0.00    +0.000 A 
ATOM      2  C   UNL     1       2.787   4.180  18.503  0.00  0.00    +0.000 A 
ATOM      3  C   UNL     1       3.287   3.196  17.623  0.00  0.00    +0.000 A 
ATOM      4  C   UNL     1       3.377   1.857  17.979  0.00  0.00    +0.000 A 
ATOM      5  C   UNL     1       2.757   1.430  19.134  0.00  0.00    +0.000 A 
ATOM      6  C   UNL     1       2.005   2.335  19.882  0.00  0.00    +0.000 A 
ATOM      7  C   UNL     1       2.034   3.716  19.601  0.00  0.00    +0.000 A 
ATOM      8  C   UNL     1       1.388   4.630  20.443  0.00  0.00    +0.000 A 
ATOM      9  C   UNL     1       1.526   6.018  20.271  0.00  0.00    +0.000 A 
ATOM     10  C   UNL     1       0.906   6.889  21.189  0.00  0.00    +0.000 A 
ATOM     11  C   UNL     1       1.084   8.272  21.087  0.00  0.00    +0.000 A 
ATOM     12  C   UNL     1       1.829   8.794  20.041  0.00  0.00    +0.000 A 
ATOM     13  C   UNL     1       2.436   7.926  19.129  0.00  0.00    +0.000 A 
ATOM     14  C   UNL     1       2.342   6.515  19.234  0.00  0.00    +0.000 A 
ENDROOT
BRANCH   1  17
ATOM     15  C   UNL     1       6.437   6.049  16.825  0.00  0.00    +0.000 C 
ATOM     16  C   UNL     1       5.695   5.504  18.032  0.00  0.00    +0.000 C 
ATOM     17  C   UNL     1       4.319   6.056  17.761  0.00  0.00    +0.000 C 
ATOM     18  N   UNL     1       4.365   7.127  17.020  0.00  0.00    +0.000 NA
ATOM     19  N   UNL     1       5.649   7.269  16.587  0.00  0.00    +0.000 N 
ATOM     20  H   UNL     1       6.077   8.071  17.053  0.00  0.00    +0.000 HD
BRANCH  15  25
ATOM     21  C   UNL     1       6.275   3.002  11.847  0.00  0.00    +0.000 C 
ATOM     22  C   UNL     1       6.368   3.715  13.160  0.00  0.00    +0.000 A 
ATOM     23  C   UNL     1       5.556   3.337  14.230  0.00  0.00    +0.000 A 
ATOM     24  C   UNL     1       5.587   4.051  15.428  0.00  0.00    +0.000 A 
ATOM     25  C   UNL     1       6.428   5.165  15.587  0.00  0.00    +0.000 A 
ATOM     26  C   UNL     1       7.272   5.509  14.519  0.00  0.00    +0.000 A 
ATOM     27  C   UNL     1       7.236   4.796  13.320  0.00  0.00    +0.000 A 
ENDBRANCH  15  25
ENDBRANCH   1  17
TORSDOF 2
ENDMDL
MODEL 9
REMARK VINA RESULT:      -8.1      5.189      9.953
REMARK  Name = 
REMARK  3 active torsions:
REMARK  status: ('A' for Active; 'I' for Inactive)
REMARK    1  A    between atoms: C_1  and  C_2
REMARK    2  A    between atoms: C_5  and  C_6
REMARK    3  A    between atoms: C_8  and  C_9
REMARK                            x       y       z     vdW  Elec       q    Type
REMARK                         _______ _______ _______ _____ _____    ______ ____
ROOT
ATOM      1  C   UNL     1       3.224   5.499  18.123  0.00  0.00    +0.000 A 
ATOM      2  C   UNL     1       2.993   4.106  18.327  0.00  0.00    +0.000 A 
ATOM      3  C   UNL     1       3.497   3.065  17.519  0.00  0.00    +0.000 A 
ATOM      4  C   UNL     1       3.609   1.758  17.975  0.00  0.00    +0.000 A 
ATOM      5  C   UNL     1       3.007   1.412  19.166  0.00  0.00    +0.000 A 
ATOM      6  C   UNL     1       2.250   2.362  19.851  0.00  0.00    +0.000 A 
ATOM      7  C   UNL     1       2.257   3.718  19.466  0.00  0.00    +0.000 A 
ATOM      8  C   UNL     1       1.607   4.685  20.243  0.00  0.00    +0.000 A 
ATOM      9  C   UNL     1       1.723   6.056  19.964  0.00  0.00    +0.000 A 
ATOM     10  C   UNL     1       1.101   6.987  20.820  0.00  0.00    +0.000 A 
ATOM     11  C   UNL     1       1.259   8.361  20.612  0.00  0.00    +0.000 A 
ATOM     12  C   UNL     1       1.986   8.811  19.521  0.00  0.00    +0.000 A 
ATOM     13  C   UNL     1       2.596   7.885  18.671  0.00  0.00    +0.000 A 
ATOM     14  C   UNL     1       2.522   6.484  18.883  0.00  0.00    +0.000 A 
ENDROOT
BRANCH   1  17
ATOM     15  C   UNL     1       6.536   5.870  16.345  0.00  0.00    +0.000 C 
ATOM     16  C   UNL     1       5.836   5.273  17.552  0.00  0.00    +0.000 C 
ATOM     17  C   UNL     1       4.491   5.940  17.428  0.00  0.00    +0.000 C 
ATOM     18  N   UNL     1       4.569   7.068  16.779  0.00  0.00    +0.000 NA
ATOM     19  N   UNL     1       5.828   7.158  16.268  0.00  0.00    +0.000 N 
ATOM     20  H   UNL     1       6.345   7.884  16.768  0.00  0.00    +0.000 HD
BRANCH  15  25
ATOM     21  C   UNL     1       5.925   2.562  11.572  0.00  0.00    +0.000 C 
ATOM     22  C   UNL     1       6.055   3.484  12.745  0.00  0.00    +0.000 A 
ATOM     23  C   UNL     1       7.180   4.298  12.883  0.00  0.00    +0.000 A 
ATOM     24  C   UNL     1       7.338   5.099  14.016  0.00  0.00    +0.000 A 
ATOM     25  C   UNL     1       6.379   5.103  15.041  0.00  0.00    +0.000 A 
ATOM     26  C   UNL     1       5.230   4.313  14.870  0.00  0.00    +0.000 A 
ATOM     27  C   UNL     1       5.076   3.509  13.739  0.00  0.00    +0.000 A 
ENDBRANCH  15  25
ENDBRANCH   1  17
TORSDOF 2
ENDMDL
