MODEL 1
REMARK VINA RESULT:      -7.4      0.000      0.000
REMARK  Name = 
REMARK  8 active torsions:
REMARK  status: ('A' for Active; 'I' for Inactive)
REMARK    1  A    between atoms: C_1  and  C_2
REMARK    2  A    between atoms: C_8  and  N_9
REMARK    3  A    between atoms: C_10  and  S_11
REMARK    4  A    between atoms: N_12  and  C_13
REMARK    5  A    between atoms: C_13  and  C_14
REMARK    6  A    between atoms: C_14  and  C_15
REMARK    7  A    between atoms: C_15  and  S_16
REMARK    8  A    between atoms: S_16  and  C_17
REMARK                            x       y       z     vdW  Elec       q    Type
REMARK                         _______ _______ _______ _____ _____    ______ ____
ROOT
ATOM      1  N   UNL     1       5.658   5.812  17.749  0.00  0.00    +0.000 NA
ATOM      2  C   UNL     1       6.507   5.909  16.774  0.00  0.00    +0.000 C 
ATOM      3  N   UNL     1       7.607   6.715  16.874  0.00  0.00    +0.000 N 
ATOM      4  H   UNL     1       8.288   6.639  16.133  0.00  0.00    +0.000 HD
ENDROOT
BRANCH   1  12
ATOM      5  C   UNL     1       3.322   7.373  17.780  0.00  0.00    +0.000 C 
ATOM      6  C   UNL     1       3.266   5.869  17.880  0.00  0.00    +0.000 A 
ATOM      7  C   UNL     1       2.012   5.249  17.997  0.00  0.00    +0.000 A 
ATOM      8  C   UNL     1       1.925   3.868  18.138  0.00  0.00    +0.000 A 
ATOM      9  C   UNL     1       3.091   3.115  18.190  0.00  0.00    +0.000 A 
ATOM     10 CL   UNL     1       2.987   1.409  18.404  0.00  0.00    +0.000 Cl
ATOM     11  C   UNL     1       4.344   3.723  18.083  0.00  0.00    +0.000 A 
ATOM     12  C   UNL     1       4.457   5.099  17.866  0.00  0.00    +0.000 A 
ENDBRANCH   1  12
BRANCH   2  13
ATOM     13  S   UNL     1       6.467   5.144  15.207  0.00  0.00    +0.000 S 
ATOM     14  H   UNL     1       5.152   4.924  15.134  0.00  0.00    +0.000 HD
ENDBRANCH   2  13
BRANCH   3  15
ATOM     15  C   UNL     1       7.949   7.500  18.042  0.00  0.00    +0.000 C 
BRANCH  15  16
ATOM     16  C   UNL     1       8.110   8.974  17.688  0.00  0.00    +0.000 C 
BRANCH  16  17
ATOM     17  C   UNL     1       8.797   9.756  18.806  0.00  0.00    +0.000 C 
BRANCH  17  18
ATOM     18  S   UNL     1       9.544  11.252  18.103  0.00  0.00    +0.000 S 
BRANCH  18  19
ATOM     19  C   UNL     1       9.648  12.336  19.590  0.00  0.00    +0.000 C 
ATOM     20  C   UNL     1      10.830  11.849  20.445  0.00  0.00    +0.000 C 
ATOM     21  C   UNL     1      12.190  12.159  19.812  0.00  0.00    +0.000 C 
ATOM     22  C   UNL     1      12.333  13.641  19.475  0.00  0.00    +0.000 C 
ATOM     23  C   UNL     1      11.166  14.163  18.641  0.00  0.00    +0.000 C 
ATOM     24  C   UNL     1       9.821  13.831  19.283  0.00  0.00    +0.000 C 
ENDBRANCH  18  19
ENDBRANCH  17  18
ENDBRANCH  16  17
ENDBRANCH  15  16
ENDBRANCH   3  15
TORSDOF 7
ENDMDL
MODEL 2
REMARK VINA RESULT:      -7.3      0.691      1.350
REMARK  Name = 
REMARK  8 active torsions:
REMARK  status: ('A' for Active; 'I' for Inactive)
REMARK    1  A    between atoms: C_1  and  C_2
REMARK    2  A    between atoms: C_8  and  N_9
REMARK    3  A    between atoms: C_10  and  S_11
REMARK    4  A    between atoms: N_12  and  C_13
REMARK    5  A    between atoms: C_13  and  C_14
REMARK    6  A    between atoms: C_14  and  C_15
REMARK    7  A    between atoms: C_15  and  S_16
REMARK    8  A    between atoms: S_16  and  C_17
REMARK                            x       y       z     vdW  Elec       q    Type
REMARK                         _______ _______ _______ _____ _____    ______ ____
ROOT
ATOM      1  N   UNL     1       5.679   5.852  17.766  0.00  0.00    +0.000 NA
ATOM      2  C   UNL     1       6.516   5.971  16.782  0.00  0.00    +0.000 C 
ATOM      3  N   UNL     1       7.587   6.817  16.866  0.00  0.00    +0.000 N 
ATOM      4  H   UNL     1       8.264   6.759  16.120  0.00  0.00    +0.000 HD
ENDROOT
BRANCH   1  12
ATOM      5  C   UNL     1       3.287   7.325  17.782  0.00  0.00    +0.000 C 
ATOM      6  C   UNL     1       3.288   5.822  17.906  0.00  0.00    +0.000 A 
ATOM      7  C   UNL     1       2.058   5.157  18.039  0.00  0.00    +0.000 A 
ATOM      8  C   UNL     1       2.024   3.777  18.204  0.00  0.00    +0.000 A 
ATOM      9  C   UNL     1       3.217   3.069  18.263  0.00  0.00    +0.000 A 
ATOM     10 CL   UNL     1       3.178   1.364  18.505  0.00  0.00    +0.000 Cl
ATOM     11  C   UNL     1       4.446   3.722  18.139  0.00  0.00    +0.000 A 
ATOM     12  C   UNL     1       4.506   5.097  17.899  0.00  0.00    +0.000 A 
ENDBRANCH   1  12
BRANCH   2  13
ATOM     13  S   UNL     1       6.492   5.189  15.224  0.00  0.00    +0.000 S 
ATOM     14  H   UNL     1       6.886   6.227  14.482  0.00  0.00    +0.000 HD
ENDBRANCH   2  13
BRANCH   3  15
ATOM     15  C   UNL     1       7.909   7.626  18.022  0.00  0.00    +0.000 C 
BRANCH  15  16
ATOM     16  C   UNL     1       7.868   9.112  17.685  0.00  0.00    +0.000 C 
BRANCH  16  17
ATOM     17  C   UNL     1       8.901   9.906  18.483  0.00  0.00    +0.000 C 
BRANCH  17  18
ATOM     18  S   UNL     1       8.866  11.635  17.934  0.00  0.00    +0.000 S 
BRANCH  18  19
ATOM     19  C   UNL     1      10.664  12.037  17.897  0.00  0.00    +0.000 C 
ATOM     20  C   UNL     1      10.802  13.563  17.763  0.00  0.00    +0.000 C 
ATOM     21  C   UNL     1      10.403  14.311  19.039  0.00  0.00    +0.000 C 
ATOM     22  C   UNL     1      11.166  13.798  20.257  0.00  0.00    +0.000 C 
ATOM     23  C   UNL     1      11.066  12.283  20.411  0.00  0.00    +0.000 C 
ATOM     24  C   UNL     1      11.453  11.558  19.124  0.00  0.00    +0.000 C 
ENDBRANCH  18  19
ENDBRANCH  17  18
ENDBRANCH  16  17
ENDBRANCH  15  16
ENDBRANCH   3  15
TORSDOF 7
ENDMDL
MODEL 3
REMARK VINA RESULT:      -7.0      6.981      9.991
REMARK  Name = 
REMARK  8 active torsions:
REMARK  status: ('A' for Active; 'I' for Inactive)
REMARK    1  A    between atoms: C_1  and  C_2
REMARK    2  A    between atoms: C_8  and  N_9
REMARK    3  A    between atoms: C_10  and  S_11
REMARK    4  A    between atoms: N_12  and  C_13
REMARK    5  A    between atoms: C_13  and  C_14
REMARK    6  A    between atoms: C_14  and  C_15
REMARK    7  A    between atoms: C_15  and  S_16
REMARK    8  A    between atoms: S_16  and  C_17
REMARK                            x       y       z     vdW  Elec       q    Type
REMARK                         _______ _______ _______ _____ _____    ______ ____
ROOT
ATOM      1  N   UNL     1       0.258  10.444  19.695  0.00  0.00    +0.000 NA
ATOM      2  C   UNL     1       1.187  10.988  18.971  0.00  0.00    +0.000 C 
ATOM      3  N   UNL     1       1.841  10.270  18.008  0.00  0.00    +0.000 N 
ATOM      4  H   UNL     1       2.454  10.791  17.399  0.00  0.00    +0.000 HD
ENDROOT
BRANCH   1  12
ATOM      5  C   UNL     1       0.621   9.177  22.176  0.00  0.00    +0.000 C 
ATOM      6  C   UNL     1      -0.339  10.328  22.012  0.00  0.00    +0.000 A 
ATOM      7  C   UNL     1      -1.068  10.761  23.131  0.00  0.00    +0.000 A 
ATOM      8  C   UNL     1      -1.998  11.788  23.007  0.00  0.00    +0.000 A 
ATOM      9  C   UNL     1      -2.217  12.359  21.760  0.00  0.00    +0.000 A 
ATOM     10 CL   UNL     1      -3.395  13.604  21.596  0.00  0.00    +0.000 Cl
ATOM     11  C   UNL     1      -1.503  11.930  20.638  0.00  0.00    +0.000 A 
ATOM     12  C   UNL     1      -0.511  10.952  20.751  0.00  0.00    +0.000 A 
ENDBRANCH   1  12
BRANCH   2  13
ATOM     13  S   UNL     1       1.820  12.611  19.042  0.00  0.00    +0.000 S 
ATOM     14  H   UNL     1       1.848  12.863  17.731  0.00  0.00    +0.000 HD
ENDBRANCH   2  13
BRANCH   3  15
ATOM     15  C   UNL     1       1.566   8.886  17.683  0.00  0.00    +0.000 C 
BRANCH  15  16
ATOM     16  C   UNL     1       2.714   7.980  18.111  0.00  0.00    +0.000 C 
BRANCH  16  17
ATOM     17  C   UNL     1       2.383   7.207  19.386  0.00  0.00    +0.000 C 
BRANCH  17  18
ATOM     18  S   UNL     1       3.338   5.664  19.402  0.00  0.00    +0.000 S 
BRANCH  18  19
ATOM     19  C   UNL     1       2.925   4.967  17.746  0.00  0.00    +0.000 C 
ATOM     20  C   UNL     1       3.961   3.878  17.422  0.00  0.00    +0.000 C 
ATOM     21  C   UNL     1       3.786   2.618  18.276  0.00  0.00    +0.000 C 
ATOM     22  C   UNL     1       2.367   2.066  18.186  0.00  0.00    +0.000 C 
ATOM     23  C   UNL     1       1.310   3.126  18.484  0.00  0.00    +0.000 C 
ATOM     24  C   UNL     1       1.511   4.378  17.634  0.00  0.00    +0.000 C 
ENDBRANCH  18  19
ENDBRANCH  17  18
ENDBRANCH  16  17
ENDBRANCH  15  16
ENDBRANCH   3  15
TORSDOF 7
ENDMDL
MODEL 4
REMARK VINA RESULT:      -6.9      6.978     10.000
REMARK  Name = 
REMARK  8 active torsions:
REMARK  status: ('A' for Active; 'I' for Inactive)
REMARK    1  A    between atoms: C_1  and  C_2
REMARK    2  A    between atoms: C_8  and  N_9
REMARK    3  A    between atoms: C_10  and  S_11
REMARK    4  A    between atoms: N_12  and  C_13
REMARK    5  A    between atoms: C_13  and  C_14
REMARK    6  A    between atoms: C_14  and  C_15
REMARK    7  A    between atoms: C_15  and  S_16
REMARK    8  A    between atoms: S_16  and  C_17
REMARK                            x       y       z     vdW  Elec       q    Type
REMARK                         _______ _______ _______ _____ _____    ______ ____
ROOT
ATOM      1  N   UNL     1       0.412  10.191  19.641  0.00  0.00    +0.000 NA
ATOM      2  C   UNL     1       1.260  10.730  18.821  0.00  0.00    +0.000 C 
ATOM      3  N   UNL     1       1.916   9.976  17.888  0.00  0.00    +0.000 N 
ATOM      4  H   UNL     1       2.458  10.482  17.203  0.00  0.00    +0.000 HD
ENDROOT
BRANCH   1  12
ATOM      5  C   UNL     1       0.848   9.041  22.167  0.00  0.00    +0.000 C 
ATOM      6  C   UNL     1      -0.130  10.172  21.974  0.00  0.00    +0.000 A 
ATOM      7  C   UNL     1      -0.837  10.648  23.090  0.00  0.00    +0.000 A 
ATOM      8  C   UNL     1      -1.782  11.657  22.942  0.00  0.00    +0.000 A 
ATOM      9  C   UNL     1      -2.037  12.169  21.677  0.00  0.00    +0.000 A 
ATOM     10 CL   UNL     1      -3.234  13.393  21.485  0.00  0.00    +0.000 Cl
ATOM     11  C   UNL     1      -1.345  11.698  20.558  0.00  0.00    +0.000 A 
ATOM     12  C   UNL     1      -0.339  10.737  20.691  0.00  0.00    +0.000 A 
ENDBRANCH   1  12
BRANCH   2  13
ATOM     13  S   UNL     1       1.774  12.394  18.715  0.00  0.00    +0.000 S 
ATOM     14  H   UNL     1       0.731  12.956  19.331  0.00  0.00    +0.000 HD
ENDBRANCH   2  13
BRANCH   3  15
ATOM     15  C   UNL     1       1.729   8.553  17.700  0.00  0.00    +0.000 C 
BRANCH  15  16
ATOM     16  C   UNL     1       2.630   7.750  18.630  0.00  0.00    +0.000 C 
BRANCH  16  17
ATOM     17  C   UNL     1       3.064   6.428  18.001  0.00  0.00    +0.000 C 
BRANCH  17  18
ATOM     18  S   UNL     1       3.712   5.342  19.303  0.00  0.00    +0.000 S 
BRANCH  18  19
ATOM     19  C   UNL     1       2.962   3.726  18.831  0.00  0.00    +0.000 C 
ATOM     20  C   UNL     1       3.453   2.669  19.833  0.00  0.00    +0.000 C 
ATOM     21  C   UNL     1       2.836   2.835  21.225  0.00  0.00    +0.000 C 
ATOM     22  C   UNL     1       1.311   2.867  21.168  0.00  0.00    +0.000 C 
ATOM     23  C   UNL     1       0.787   3.894  20.168  0.00  0.00    +0.000 C 
ATOM     24  C   UNL     1       1.427   3.719  18.792  0.00  0.00    +0.000 C 
ENDBRANCH  18  19
ENDBRANCH  17  18
ENDBRANCH  16  17
ENDBRANCH  15  16
ENDBRANCH   3  15
TORSDOF 7
ENDMDL
MODEL 5
REMARK VINA RESULT:      -6.8      0.962      1.550
REMARK  Name = 
REMARK  8 active torsions:
REMARK  status: ('A' for Active; 'I' for Inactive)
REMARK    1  A    between atoms: C_1  and  C_2
REMARK    2  A    between atoms: C_8  and  N_9
REMARK    3  A    between atoms: C_10  and  S_11
REMARK    4  A    between atoms: N_12  and  C_13
REMARK    5  A    between atoms: C_13  and  C_14
REMARK    6  A    between atoms: C_14  and  C_15
REMARK    7  A    between atoms: C_15  and  S_16
REMARK    8  A    between atoms: S_16  and  C_17
REMARK                            x       y       z     vdW  Elec       q    Type
REMARK                         _______ _______ _______ _____ _____    ______ ____
ROOT
ATOM      1  N   UNL     1       5.463   6.197  17.634  0.00  0.00    +0.000 NA
ATOM      2  C   UNL     1       6.566   6.098  16.960  0.00  0.00    +0.000 C 
ATOM      3  N   UNL     1       7.461   7.131  16.917  0.00  0.00    +0.000 N 
ATOM      4  H   UNL     1       8.352   6.936  16.485  0.00  0.00    +0.000 HD
ENDROOT
BRANCH   1  12
ATOM      5  C   UNL     1       2.938   7.391  17.939  0.00  0.00    +0.000 C 
ATOM      6  C   UNL     1       3.107   5.892  17.944  0.00  0.00    +0.000 A 
ATOM      7  C   UNL     1       1.969   5.087  18.113  0.00  0.00    +0.000 A 
ATOM      8  C   UNL     1       2.093   3.703  18.171  0.00  0.00    +0.000 A 
ATOM      9  C   UNL     1       3.355   3.130  18.088  0.00  0.00    +0.000 A 
ATOM     10 CL   UNL     1       3.516   1.419  18.197  0.00  0.00    +0.000 Cl
ATOM     11  C   UNL     1       4.495   3.922  17.928  0.00  0.00    +0.000 A 
ATOM     12  C   UNL     1       4.390   5.309  17.793  0.00  0.00    +0.000 A 
ENDBRANCH   1  12
BRANCH   2  13
ATOM     13  S   UNL     1       7.141   4.768  15.990  0.00  0.00    +0.000 S 
ATOM     14  H   UNL     1       6.054   3.995  16.060  0.00  0.00    +0.000 HD
ENDBRANCH   2  13
BRANCH   3  15
ATOM     15  C   UNL     1       7.298   8.392  17.610  0.00  0.00    +0.000 C 
BRANCH  15  16
ATOM     16  C   UNL     1       8.558   8.765  18.382  0.00  0.00    +0.000 C 
BRANCH  16  17
ATOM     17  C   UNL     1       8.944  10.227  18.170  0.00  0.00    +0.000 C 
BRANCH  17  18
ATOM     18  S   UNL     1       9.599  10.894  19.725  0.00  0.00    +0.000 S 
BRANCH  18  19
ATOM     19  C   UNL     1      10.706  12.231  19.106  0.00  0.00    +0.000 C 
ATOM     20  C   UNL     1       9.964  12.974  17.983  0.00  0.00    +0.000 C 
ATOM     21  C   UNL     1       8.803  13.828  18.500  0.00  0.00    +0.000 C 
ATOM     22  C   UNL     1       9.254  14.796  19.590  0.00  0.00    +0.000 C 
ATOM     23  C   UNL     1      10.011  14.095  20.715  0.00  0.00    +0.000 C 
ATOM     24  C   UNL     1      11.154  13.238  20.176  0.00  0.00    +0.000 C 
ENDBRANCH  18  19
ENDBRANCH  17  18
ENDBRANCH  16  17
ENDBRANCH  15  16
ENDBRANCH   3  15
TORSDOF 7
ENDMDL
MODEL 6
REMARK VINA RESULT:      -6.8      6.909      9.936
REMARK  Name = 
REMARK  8 active torsions:
REMARK  status: ('A' for Active; 'I' for Inactive)
REMARK    1  A    between atoms: C_1  and  C_2
REMARK    2  A    between atoms: C_8  and  N_9
REMARK    3  A    between atoms: C_10  and  S_11
REMARK    4  A    between atoms: N_12  and  C_13
REMARK    5  A    between atoms: C_13  and  C_14
REMARK    6  A    between atoms: C_14  and  C_15
REMARK    7  A    between atoms: C_15  and  S_16
REMARK    8  A    between atoms: S_16  and  C_17
REMARK                            x       y       z     vdW  Elec       q    Type
REMARK                         _______ _______ _______ _____ _____    ______ ____
ROOT
ATOM      1  N   UNL     1       0.630  10.181  19.746  0.00  0.00    +0.000 NA
ATOM      2  C   UNL     1       0.201   9.959  18.543  0.00  0.00    +0.000 C 
ATOM      3  N   UNL     1       0.989   9.336  17.615  0.00  0.00    +0.000 N 
ATOM      4  H   UNL     1       0.544   9.081  16.746  0.00  0.00    +0.000 HD
ENDROOT
BRANCH   1  12
ATOM      5  C   UNL     1      -0.215   8.499  21.832  0.00  0.00    +0.000 C 
ATOM      6  C   UNL     1      -0.393   9.995  21.904  0.00  0.00    +0.000 A 
ATOM      7  C   UNL     1      -1.003  10.546  23.042  0.00  0.00    +0.000 A 
ATOM      8  C   UNL     1      -1.228  11.917  23.122  0.00  0.00    +0.000 A 
ATOM      9  C   UNL     1      -0.867  12.728  22.054  0.00  0.00    +0.000 A 
ATOM     10 CL   UNL     1      -1.178  14.420  22.134  0.00  0.00    +0.000 Cl
ATOM     11  C   UNL     1      -0.267  12.188  20.913  0.00  0.00    +0.000 A 
ATOM     12  C   UNL     1       0.036  10.826  20.839  0.00  0.00    +0.000 A 
ENDBRANCH   1  12
BRANCH   2  13
ATOM     13  S   UNL     1      -1.335  10.384  17.833  0.00  0.00    +0.000 S 
ATOM     14  H   UNL     1      -1.885   9.167  17.824  0.00  0.00    +0.000 HD
ENDBRANCH   2  13
BRANCH   3  15
ATOM     15  C   UNL     1       2.330   8.851  17.867  0.00  0.00    +0.000 C 
BRANCH  15  16
ATOM     16  C   UNL     1       2.315   7.388  18.295  0.00  0.00    +0.000 C 
BRANCH  16  17
ATOM     17  C   UNL     1       3.608   6.670  17.913  0.00  0.00    +0.000 C 
BRANCH  17  18
ATOM     18  S   UNL     1       4.042   5.499  19.230  0.00  0.00    +0.000 S 
BRANCH  18  19
ATOM     19  C   UNL     1       3.920   3.891  18.337  0.00  0.00    +0.000 C 
ATOM     20  C   UNL     1       3.848   2.773  19.390  0.00  0.00    +0.000 C 
ATOM     21  C   UNL     1       2.512   2.746  20.140  0.00  0.00    +0.000 C 
ATOM     22  C   UNL     1       1.327   2.672  19.182  0.00  0.00    +0.000 C 
ATOM     23  C   UNL     1       1.375   3.758  18.110  0.00  0.00    +0.000 C 
ATOM     24  C   UNL     1       2.720   3.776  17.386  0.00  0.00    +0.000 C 
ENDBRANCH  18  19
ENDBRANCH  17  18
ENDBRANCH  16  17
ENDBRANCH  15  16
ENDBRANCH   3  15
TORSDOF 7
ENDMDL
MODEL 7
REMARK VINA RESULT:      -6.5      6.258      8.926
REMARK  Name = 
REMARK  8 active torsions:
REMARK  status: ('A' for Active; 'I' for Inactive)
REMARK    1  A    between atoms: C_1  and  C_2
REMARK    2  A    between atoms: C_8  and  N_9
REMARK    3  A    between atoms: C_10  and  S_11
REMARK    4  A    between atoms: N_12  and  C_13
REMARK    5  A    between atoms: C_13  and  C_14
REMARK    6  A    between atoms: C_14  and  C_15
REMARK    7  A    between atoms: C_15  and  S_16
REMARK    8  A    between atoms: S_16  and  C_17
REMARK                            x       y       z     vdW  Elec       q    Type
REMARK                         _______ _______ _______ _____ _____    ______ ____
ROOT
ATOM      1  N   UNL     1       0.212  10.480  19.745  0.00  0.00    +0.000 NA
ATOM      2  C   UNL     1       1.146  11.025  19.030  0.00  0.00    +0.000 C 
ATOM      3  N   UNL     1       1.829  10.301  18.092  0.00  0.00    +0.000 N 
ATOM      4  H   UNL     1       2.446  10.821  17.485  0.00  0.00    +0.000 HD
ENDROOT
BRANCH   1  12
ATOM      5  C   UNL     1       0.574   9.285  22.262  0.00  0.00    +0.000 C 
ATOM      6  C   UNL     1      -0.414  10.406  22.056  0.00  0.00    +0.000 A 
ATOM      7  C   UNL     1      -1.169  10.848  23.155  0.00  0.00    +0.000 A 
ATOM      8  C   UNL     1      -2.123  11.847  22.992  0.00  0.00    +0.000 A 
ATOM      9  C   UNL     1      -2.339  12.381  21.729  0.00  0.00    +0.000 A 
ATOM     10 CL   UNL     1      -3.547  13.590  21.517  0.00  0.00    +0.000 Cl
ATOM     11  C   UNL     1      -1.600  11.942  20.627  0.00  0.00    +0.000 A 
ATOM     12  C   UNL     1      -0.585  10.993  20.778  0.00  0.00    +0.000 A 
ENDBRANCH   1  12
BRANCH   2  13
ATOM     13  S   UNL     1       1.754  12.659  19.084  0.00  0.00    +0.000 S 
ATOM     14  H   UNL     1       0.588  13.301  18.982  0.00  0.00    +0.000 HD
ENDBRANCH   2  13
BRANCH   3  15
ATOM     15  C   UNL     1       1.581   8.908  17.785  0.00  0.00    +0.000 C 
BRANCH  15  16
ATOM     16  C   UNL     1       2.886   8.136  17.632  0.00  0.00    +0.000 C 
BRANCH  16  17
ATOM     17  C   UNL     1       2.951   6.936  18.574  0.00  0.00    +0.000 C 
BRANCH  17  18
ATOM     18  S   UNL     1       3.692   5.534  17.691  0.00  0.00    +0.000 S 
BRANCH  18  19
ATOM     19  C   UNL     1       4.989   6.382  16.693  0.00  0.00    +0.000 C 
ATOM     20  C   UNL     1       6.238   6.533  17.576  0.00  0.00    +0.000 C 
ATOM     21  C   UNL     1       6.950   5.201  17.834  0.00  0.00    +0.000 C 
ATOM     22  C   UNL     1       7.284   4.477  16.533  0.00  0.00    +0.000 C 
ATOM     23  C   UNL     1       6.069   4.325  15.622  0.00  0.00    +0.000 C 
ATOM     24  C   UNL     1       5.367   5.662  15.391  0.00  0.00    +0.000 C 
ENDBRANCH  18  19
ENDBRANCH  17  18
ENDBRANCH  16  17
ENDBRANCH  15  16
ENDBRANCH   3  15
TORSDOF 7
ENDMDL
MODEL 8
REMARK VINA RESULT:      -6.5      1.861      2.462
REMARK  Name = 
REMARK  8 active torsions:
REMARK  status: ('A' for Active; 'I' for Inactive)
REMARK    1  A    between atoms: C_1  and  C_2
REMARK    2  A    between atoms: C_8  and  N_9
REMARK    3  A    between atoms: C_10  and  S_11
REMARK    4  A    between atoms: N_12  and  C_13
REMARK    5  A    between atoms: C_13  and  C_14
REMARK    6  A    between atoms: C_14  and  C_15
REMARK    7  A    between atoms: C_15  and  S_16
REMARK    8  A    between atoms: S_16  and  C_17
REMARK                            x       y       z     vdW  Elec       q    Type
REMARK                         _______ _______ _______ _____ _____    ______ ____
ROOT
ATOM      1  N   UNL     1       4.851   5.305  17.985  0.00  0.00    +0.000 NA
ATOM      2  C   UNL     1       4.644   6.560  17.733  0.00  0.00    +0.000 C 
ATOM      3  N   UNL     1       5.665   7.376  17.332  0.00  0.00    +0.000 N 
ATOM      4  H   UNL     1       5.406   8.303  17.028  0.00  0.00    +0.000 HD
ENDROOT
BRANCH   1  12
ATOM      5  C   UNL     1       4.402   3.191  16.190  0.00  0.00    +0.000 C 
ATOM      6  C   UNL     1       3.755   3.219  17.552  0.00  0.00    +0.000 A 
ATOM      7  C   UNL     1       2.906   2.161  17.915  0.00  0.00    +0.000 A 
ATOM      8  C   UNL     1       2.255   2.177  19.144  0.00  0.00    +0.000 A 
ATOM      9  C   UNL     1       2.432   3.261  19.993  0.00  0.00    +0.000 A 
ATOM     10 CL   UNL     1       1.598   3.302  21.499  0.00  0.00    +0.000 Cl
ATOM     11  C   UNL     1       3.269   4.323  19.638  0.00  0.00    +0.000 A 
ATOM     12  C   UNL     1       3.991   4.296  18.442  0.00  0.00    +0.000 A 
ENDBRANCH   1  12
BRANCH   2  13
ATOM     13  S   UNL     1       3.162   7.471  17.857  0.00  0.00    +0.000 S 
ATOM     14  H   UNL     1       2.856   7.516  16.558  0.00  0.00    +0.000 HD
ENDBRANCH   2  13
BRANCH   3  15
ATOM     15  C   UNL     1       7.032   6.945  17.128  0.00  0.00    +0.000 C 
BRANCH  15  16
ATOM     16  C   UNL     1       7.972   7.594  18.138  0.00  0.00    +0.000 C 
BRANCH  16  17
ATOM     17  C   UNL     1       8.238   9.061  17.808  0.00  0.00    +0.000 C 
BRANCH  17  18
ATOM     18  S   UNL     1       9.054   9.844  19.227  0.00  0.00    +0.000 S 
BRANCH  18  19
ATOM     19  C   UNL     1       9.283  11.564  18.606  0.00  0.00    +0.000 C 
ATOM     20  C   UNL     1       9.313  12.503  19.824  0.00  0.00    +0.000 C 
ATOM     21  C   UNL     1      10.593  12.363  20.653  0.00  0.00    +0.000 C 
ATOM     22  C   UNL     1      11.844  12.538  19.796  0.00  0.00    +0.000 C 
ATOM     23  C   UNL     1      11.840  11.633  18.567  0.00  0.00    +0.000 C 
ATOM     24  C   UNL     1      10.549  11.779  17.764  0.00  0.00    +0.000 C 
ENDBRANCH  18  19
ENDBRANCH  17  18
ENDBRANCH  16  17
ENDBRANCH  15  16
ENDBRANCH   3  15
TORSDOF 7
ENDMDL
MODEL 9
REMARK VINA RESULT:      -6.4      7.275     10.265
REMARK  Name = 
REMARK  8 active torsions:
REMARK  status: ('A' for Active; 'I' for Inactive)
REMARK    1  A    between atoms: C_1  and  C_2
REMARK    2  A    between atoms: C_8  and  N_9
REMARK    3  A    between atoms: C_10  and  S_11
REMARK    4  A    between atoms: N_12  and  C_13
REMARK    5  A    between atoms: C_13  and  C_14
REMARK    6  A    between atoms: C_14  and  C_15
REMARK    7  A    between atoms: C_15  and  S_16
REMARK    8  A    between atoms: S_16  and  C_17
REMARK                            x       y       z     vdW  Elec       q    Type
REMARK                         _______ _______ _______ _____ _____    ______ ____
ROOT
ATOM      1  N   UNL     1      -1.140  10.394  18.140  0.00  0.00    +0.000 NA
ATOM      2  C   UNL     1      -0.314  10.352  19.138  0.00  0.00    +0.000 C 
ATOM      3  N   UNL     1       0.917   9.770  19.012  0.00  0.00    +0.000 N 
ATOM      4  H   UNL     1       1.552   9.891  19.786  0.00  0.00    +0.000 HD
ENDROOT
BRANCH   1  12
ATOM      5  C   UNL     1      -2.468   9.814  15.732  0.00  0.00    +0.000 C 
ATOM      6  C   UNL     1      -3.136  10.603  16.831  0.00  0.00    +0.000 A 
ATOM      7  C   UNL     1      -4.449  11.058  16.630  0.00  0.00    +0.000 A 
ATOM      8  C   UNL     1      -5.079  11.829  17.601  0.00  0.00    +0.000 A 
ATOM      9  C   UNL     1      -4.386  12.165  18.757  0.00  0.00    +0.000 A 
ATOM     10 CL   UNL     1      -5.150  13.151  19.944  0.00  0.00    +0.000 Cl
ATOM     11  C   UNL     1      -3.076  11.724  18.963  0.00  0.00    +0.000 A 
ATOM     12  C   UNL     1      -2.448  10.888  18.037  0.00  0.00    +0.000 A 
ENDBRANCH   1  12
BRANCH   2  13
ATOM     13  S   UNL     1      -0.535  10.937  20.767  0.00  0.00    +0.000 S 
ATOM     14  H   UNL     1      -1.476  11.850  20.516  0.00  0.00    +0.000 HD
ENDBRANCH   2  13
BRANCH   3  15
ATOM     15  C   UNL     1       1.427   9.180  17.792  0.00  0.00    +0.000 C 
BRANCH  15  16
ATOM     16  C   UNL     1       2.334   7.991  18.092  0.00  0.00    +0.000 C 
BRANCH  16  17
ATOM     17  C   UNL     1       2.219   7.541  19.547  0.00  0.00    +0.000 C 
BRANCH  17  18
ATOM     18  S   UNL     1       2.657   5.783  19.654  0.00  0.00    +0.000 S 
BRANCH  18  19
ATOM     19  C   UNL     1       2.461   5.255  17.900  0.00  0.00    +0.000 C 
ATOM     20  C   UNL     1       3.827   4.753  17.404  0.00  0.00    +0.000 C 
ATOM     21  C   UNL     1       4.231   3.413  18.027  0.00  0.00    +0.000 C 
ATOM     22  C   UNL     1       3.154   2.350  17.829  0.00  0.00    +0.000 C 
ATOM     23  C   UNL     1       1.778   2.821  18.294  0.00  0.00    +0.000 C 
ATOM     24  C   UNL     1       1.403   4.165  17.673  0.00  0.00    +0.000 C 
ENDBRANCH  18  19
ENDBRANCH  17  18
ENDBRANCH  16  17
ENDBRANCH  15  16
ENDBRANCH   3  15
TORSDOF 7
ENDMDL
