MODEL 1
REMARK VINA RESULT:      -5.8      0.000      0.000
REMARK  Name = 
REMARK  7 active torsions:
REMARK  status: ('A' for Active; 'I' for Inactive)
REMARK    1  A    between atoms: C_1  and  N_2
REMARK    2  A    between atoms: N_2  and  C_3
REMARK    3  A    between atoms: N_7  and  C_8
REMARK    4  A    between atoms: C_8  and  O_9
REMARK    5  A    between atoms: O_9  and  C_10
REMARK    6  A    between atoms: C_10  and  C_11
REMARK    7  A    between atoms: C_11  and  O_12
REMARK                            x       y       z     vdW  Elec       q    Type
REMARK                         _______ _______ _______ _____ _____    ______ ____
ROOT
ATOM      1  C   UNL     1       7.872   5.703  19.447  0.00  0.00    +0.000 C 
ATOM      2  N   UNL     1       7.054   5.709  18.237  0.00  0.00    +0.000 N 
ATOM      3  C   UNL     1       7.239   6.836  17.335  0.00  0.00    +0.000 C 
ATOM      4  C   UNL     1       5.958   4.850  18.140  0.00  0.00    +0.000 A 
ATOM      5  C   UNL     1       5.159   4.800  16.886  0.00  0.00    +0.000 A 
ATOM      6  C   UNL     1       4.142   3.944  16.850  0.00  0.00    +0.000 A 
ATOM      7  N   UNL     1       3.845   3.158  17.934  0.00  0.00    +0.000 N 
ATOM      8  C   UNL     1       4.578   3.241  19.117  0.00  0.00    +0.000 A 
ATOM      9  O   UNL     1       4.288   2.552  20.090  0.00  0.00    +0.000 OA
ATOM     10  N   UNL     1       5.651   4.097  19.159  0.00  0.00    +0.000 NA
ENDROOT
BRANCH   7  11
ATOM     11  C   UNL     1       2.759   2.202  17.844  0.00  0.00    +0.000 C 
BRANCH  11  12
ATOM     12  O   UNL     1       1.492   2.876  17.876  0.00  0.00    +0.000 OA
BRANCH  12  13
ATOM     13  C   UNL     1       0.746   2.546  19.058  0.00  0.00    +0.000 C 
BRANCH  13  14
ATOM     14  C   UNL     1       0.949   3.643  20.098  0.00  0.00    +0.000 C 
BRANCH  14  15
ATOM     15  O   UNL     1       1.557   3.114  21.275  0.00  0.00    +0.000 OA
ATOM     16  H   UNL     1       2.241   2.495  20.956  0.00  0.00    +0.000 HD
ENDBRANCH  14  15
ENDBRANCH  13  14
ENDBRANCH  12  13
ENDBRANCH  11  12
ENDBRANCH   7  11
TORSDOF 5
ENDMDL
MODEL 2
REMARK VINA RESULT:      -5.3      1.158      1.258
REMARK  Name = 
REMARK  7 active torsions:
REMARK  status: ('A' for Active; 'I' for Inactive)
REMARK    1  A    between atoms: C_1  and  N_2
REMARK    2  A    between atoms: N_2  and  C_3
REMARK    3  A    between atoms: N_7  and  C_8
REMARK    4  A    between atoms: C_8  and  O_9
REMARK    5  A    between atoms: O_9  and  C_10
REMARK    6  A    between atoms: C_10  and  C_11
REMARK    7  A    between atoms: C_11  and  O_12
REMARK                            x       y       z     vdW  Elec       q    Type
REMARK                         _______ _______ _______ _____ _____    ______ ____
ROOT
ATOM      1  C   UNL     1       7.726   5.183  18.289  0.00  0.00    +0.000 C 
ATOM      2  N   UNL     1       6.450   5.274  17.584  0.00  0.00    +0.000 N 
ATOM      3  C   UNL     1       6.265   6.431  16.722  0.00  0.00    +0.000 C 
ATOM      4  C   UNL     1       5.385   4.462  17.978  0.00  0.00    +0.000 A 
ATOM      5  C   UNL     1       4.102   4.496  17.224  0.00  0.00    +0.000 A 
ATOM      6  C   UNL     1       3.136   3.683  17.637  0.00  0.00    +0.000 A 
ATOM      7  N   UNL     1       3.321   2.861  18.719  0.00  0.00    +0.000 N 
ATOM      8  C   UNL     1       4.514   2.865  19.441  0.00  0.00    +0.000 A 
ATOM      9  O   UNL     1       4.660   2.145  20.423  0.00  0.00    +0.000 OA
ATOM     10  N   UNL     1       5.534   3.676  19.008  0.00  0.00    +0.000 NA
ENDROOT
BRANCH   7  11
ATOM     11  C   UNL     1       2.262   1.952  19.113  0.00  0.00    +0.000 C 
BRANCH  11  12
ATOM     12  O   UNL     1       1.054   2.676  19.387  0.00  0.00    +0.000 OA
BRANCH  12  13
ATOM     13  C   UNL     1       1.055   3.226  20.714  0.00  0.00    +0.000 C 
BRANCH  13  14
ATOM     14  C   UNL     1       1.222   4.740  20.624  0.00  0.00    +0.000 C 
BRANCH  14  15
ATOM     15  O   UNL     1       2.466   5.143  21.194  0.00  0.00    +0.000 OA
ATOM     16  H   UNL     1       2.755   5.909  20.663  0.00  0.00    +0.000 HD
ENDBRANCH  14  15
ENDBRANCH  13  14
ENDBRANCH  12  13
ENDBRANCH  11  12
ENDBRANCH   7  11
TORSDOF 5
ENDMDL
MODEL 3
REMARK VINA RESULT:      -5.3      2.727      5.371
REMARK  Name = 
REMARK  7 active torsions:
REMARK  status: ('A' for Active; 'I' for Inactive)
REMARK    1  A    between atoms: C_1  and  N_2
REMARK    2  A    between atoms: N_2  and  C_3
REMARK    3  A    between atoms: N_7  and  C_8
REMARK    4  A    between atoms: C_8  and  O_9
REMARK    5  A    between atoms: O_9  and  C_10
REMARK    6  A    between atoms: C_10  and  C_11
REMARK    7  A    between atoms: C_11  and  O_12
REMARK                            x       y       z     vdW  Elec       q    Type
REMARK                         _______ _______ _______ _____ _____    ______ ____
ROOT
ATOM      1  C   UNL     1       2.171   4.016  21.041  0.00  0.00    +0.000 C 
ATOM      2  N   UNL     1       2.300   3.783  19.605  0.00  0.00    +0.000 N 
ATOM      3  C   UNL     1       1.261   2.976  18.983  0.00  0.00    +0.000 C 
ATOM      4  C   UNL     1       3.510   4.058  18.966  0.00  0.00    +0.000 A 
ATOM      5  C   UNL     1       3.631   3.889  17.493  0.00  0.00    +0.000 A 
ATOM      6  C   UNL     1       4.804   4.190  16.944  0.00  0.00    +0.000 A 
ATOM      7  N   UNL     1       5.851   4.625  17.714  0.00  0.00    +0.000 N 
ATOM      8  C   UNL     1       5.738   4.743  19.099  0.00  0.00    +0.000 A 
ATOM      9  O   UNL     1       6.689   5.107  19.783  0.00  0.00    +0.000 OA
ATOM     10  N   UNL     1       4.524   4.467  19.678  0.00  0.00    +0.000 NA
ENDROOT
BRANCH   7  11
ATOM     11  C   UNL     1       7.102   4.989  17.077  0.00  0.00    +0.000 C 
BRANCH  11  12
ATOM     12  O   UNL     1       6.956   6.218  16.350  0.00  0.00    +0.000 OA
BRANCH  12  13
ATOM     13  C   UNL     1       6.652   7.318  17.222  0.00  0.00    +0.000 C 
BRANCH  13  14
ATOM     14  C   UNL     1       7.951   8.006  17.626  0.00  0.00    +0.000 C 
BRANCH  14  15
ATOM     15  O   UNL     1       8.444   7.471  18.852  0.00  0.00    +0.000 OA
ATOM     16  H   UNL     1       8.764   8.241  19.360  0.00  0.00    +0.000 HD
ENDBRANCH  14  15
ENDBRANCH  13  14
ENDBRANCH  12  13
ENDBRANCH  11  12
ENDBRANCH   7  11
TORSDOF 5
ENDMDL
MODEL 4
REMARK VINA RESULT:      -5.2      3.165      5.590
REMARK  Name = 
REMARK  7 active torsions:
REMARK  status: ('A' for Active; 'I' for Inactive)
REMARK    1  A    between atoms: C_1  and  N_2
REMARK    2  A    between atoms: N_2  and  C_3
REMARK    3  A    between atoms: N_7  and  C_8
REMARK    4  A    between atoms: C_8  and  O_9
REMARK    5  A    between atoms: O_9  and  C_10
REMARK    6  A    between atoms: C_10  and  C_11
REMARK    7  A    between atoms: C_11  and  O_12
REMARK                            x       y       z     vdW  Elec       q    Type
REMARK                         _______ _______ _______ _____ _____    ______ ____
ROOT
ATOM      1  C   UNL     1       2.360   2.661  20.979  0.00  0.00    +0.000 C 
ATOM      2  N   UNL     1       2.095   3.312  19.698  0.00  0.00    +0.000 N 
ATOM      3  C   UNL     1       0.947   2.824  18.948  0.00  0.00    +0.000 C 
ATOM      4  C   UNL     1       3.074   4.119  19.118  0.00  0.00    +0.000 A 
ATOM      5  C   UNL     1       2.789   4.841  17.848  0.00  0.00    +0.000 A 
ATOM      6  C   UNL     1       3.757   5.611  17.359  0.00  0.00    +0.000 A 
ATOM      7  N   UNL     1       4.964   5.717  18.001  0.00  0.00    +0.000 N 
ATOM      8  C   UNL     1       5.233   5.006  19.170  0.00  0.00    +0.000 A 
ATOM      9  O   UNL     1       6.325   5.088  19.722  0.00  0.00    +0.000 OA
ATOM     10  N   UNL     1       4.233   4.232  19.705  0.00  0.00    +0.000 NA
ENDROOT
BRANCH   7  11
ATOM     11  C   UNL     1       5.979   6.603  17.466  0.00  0.00    +0.000 C 
BRANCH  11  12
ATOM     12  O   UNL     1       6.170   6.361  16.064  0.00  0.00    +0.000 OA
BRANCH  12  13
ATOM     13  C   UNL     1       6.923   5.160  15.830  0.00  0.00    +0.000 C 
BRANCH  13  14
ATOM     14  C   UNL     1       6.731   4.727  14.381  0.00  0.00    +0.000 C 
BRANCH  14  15
ATOM     15  O   UNL     1       7.608   5.451  13.520  0.00  0.00    +0.000 OA
ATOM     16  H   UNL     1       7.075   6.191  13.172  0.00  0.00    +0.000 HD
ENDBRANCH  14  15
ENDBRANCH  13  14
ENDBRANCH  12  13
ENDBRANCH  11  12
ENDBRANCH   7  11
TORSDOF 5
ENDMDL
MODEL 5
REMARK VINA RESULT:      -5.2      3.043      5.484
REMARK  Name = 
REMARK  7 active torsions:
REMARK  status: ('A' for Active; 'I' for Inactive)
REMARK    1  A    between atoms: C_1  and  N_2
REMARK    2  A    between atoms: N_2  and  C_3
REMARK    3  A    between atoms: N_7  and  C_8
REMARK    4  A    between atoms: C_8  and  O_9
REMARK    5  A    between atoms: O_9  and  C_10
REMARK    6  A    between atoms: C_10  and  C_11
REMARK    7  A    between atoms: C_11  and  O_12
REMARK                            x       y       z     vdW  Elec       q    Type
REMARK                         _______ _______ _______ _____ _____    ______ ____
ROOT
ATOM      1  C   UNL     1       2.047   4.300  20.982  0.00  0.00    +0.000 C 
ATOM      2  N   UNL     1       2.120   3.867  19.588  0.00  0.00    +0.000 N 
ATOM      3  C   UNL     1       1.041   3.013  19.117  0.00  0.00    +0.000 C 
ATOM      4  C   UNL     1       3.313   4.017  18.880  0.00  0.00    +0.000 A 
ATOM      5  C   UNL     1       3.379   3.643  17.441  0.00  0.00    +0.000 A 
ATOM      6  C   UNL     1       4.538   3.831  16.819  0.00  0.00    +0.000 A 
ATOM      7  N   UNL     1       5.622   4.338  17.489  0.00  0.00    +0.000 N 
ATOM      8  C   UNL     1       5.560   4.649  18.846  0.00  0.00    +0.000 A 
ATOM      9  O   UNL     1       6.544   5.077  19.442  0.00  0.00    +0.000 OA
ATOM     10  N   UNL     1       4.361   4.490  19.496  0.00  0.00    +0.000 NA
ENDROOT
BRANCH   7  11
ATOM     11  C   UNL     1       6.858   4.575  16.768  0.00  0.00    +0.000 C 
BRANCH  11  12
ATOM     12  O   UNL     1       6.623   5.416  15.629  0.00  0.00    +0.000 OA
BRANCH  12  13
ATOM     13  C   UNL     1       7.113   4.819  14.418  0.00  0.00    +0.000 C 
BRANCH  13  14
ATOM     14  C   UNL     1       5.979   4.051  13.747  0.00  0.00    +0.000 C 
BRANCH  14  15
ATOM     15  O   UNL     1       6.482   3.230  12.695  0.00  0.00    +0.000 OA
ATOM     16  H   UNL     1       7.220   3.734  12.304  0.00  0.00    +0.000 HD
ENDBRANCH  14  15
ENDBRANCH  13  14
ENDBRANCH  12  13
ENDBRANCH  11  12
ENDBRANCH   7  11
TORSDOF 5
ENDMDL
MODEL 6
REMARK VINA RESULT:      -5.1      3.937      5.497
REMARK  Name = 
REMARK  7 active torsions:
REMARK  status: ('A' for Active; 'I' for Inactive)
REMARK    1  A    between atoms: C_1  and  N_2
REMARK    2  A    between atoms: N_2  and  C_3
REMARK    3  A    between atoms: N_7  and  C_8
REMARK    4  A    between atoms: C_8  and  O_9
REMARK    5  A    between atoms: O_9  and  C_10
REMARK    6  A    between atoms: C_10  and  C_11
REMARK    7  A    between atoms: C_11  and  O_12
REMARK                            x       y       z     vdW  Elec       q    Type
REMARK                         _______ _______ _______ _____ _____    ______ ____
ROOT
ATOM      1  C   UNL     1       1.506   9.847  18.192  0.00  0.00    +0.000 C 
ATOM      2  N   UNL     1       1.615   8.728  19.124  0.00  0.00    +0.000 N 
ATOM      3  C   UNL     1       1.084   8.944  20.462  0.00  0.00    +0.000 C 
ATOM      4  C   UNL     1       2.458   7.657  18.822  0.00  0.00    +0.000 A 
ATOM      5  C   UNL     1       2.524   6.481  19.731  0.00  0.00    +0.000 A 
ATOM      6  C   UNL     1       3.329   5.485  19.374  0.00  0.00    +0.000 A 
ATOM      7  N   UNL     1       4.070   5.557  18.222  0.00  0.00    +0.000 N 
ATOM      8  C   UNL     1       4.028   6.680  17.398  0.00  0.00    +0.000 A 
ATOM      9  O   UNL     1       4.714   6.745  16.383  0.00  0.00    +0.000 OA
ATOM     10  N   UNL     1       3.177   7.704  17.735  0.00  0.00    +0.000 NA
ENDROOT
BRANCH   7  11
ATOM     11  C   UNL     1       4.901   4.432  17.839  0.00  0.00    +0.000 C 
BRANCH  11  12
ATOM     12  O   UNL     1       6.030   4.319  18.718  0.00  0.00    +0.000 OA
BRANCH  12  13
ATOM     13  C   UNL     1       7.221   4.862  18.125  0.00  0.00    +0.000 C 
BRANCH  13  14
ATOM     14  C   UNL     1       7.805   5.916  19.060  0.00  0.00    +0.000 C 
BRANCH  14  15
ATOM     15  O   UNL     1       7.924   5.402  20.385  0.00  0.00    +0.000 OA
ATOM     16  H   UNL     1       7.085   5.632  20.827  0.00  0.00    +0.000 HD
ENDBRANCH  14  15
ENDBRANCH  13  14
ENDBRANCH  12  13
ENDBRANCH  11  12
ENDBRANCH   7  11
TORSDOF 5
ENDMDL
MODEL 7
REMARK VINA RESULT:      -5.1      1.808      2.546
REMARK  Name = 
REMARK  7 active torsions:
REMARK  status: ('A' for Active; 'I' for Inactive)
REMARK    1  A    between atoms: C_1  and  N_2
REMARK    2  A    between atoms: N_2  and  C_3
REMARK    3  A    between atoms: N_7  and  C_8
REMARK    4  A    between atoms: C_8  and  O_9
REMARK    5  A    between atoms: O_9  and  C_10
REMARK    6  A    between atoms: C_10  and  C_11
REMARK    7  A    between atoms: C_11  and  O_12
REMARK                            x       y       z     vdW  Elec       q    Type
REMARK                         _______ _______ _______ _____ _____    ______ ____
ROOT
ATOM      1  C   UNL     1       6.274   4.233  15.520  0.00  0.00    +0.000 C 
ATOM      2  N   UNL     1       5.334   5.242  16.001  0.00  0.00    +0.000 N 
ATOM      3  C   UNL     1       5.366   6.532  15.327  0.00  0.00    +0.000 C 
ATOM      4  C   UNL     1       4.690   5.058  17.225  0.00  0.00    +0.000 A 
ATOM      5  C   UNL     1       3.679   6.047  17.692  0.00  0.00    +0.000 A 
ATOM      6  C   UNL     1       3.086   5.801  18.856  0.00  0.00    +0.000 A 
ATOM      7  N   UNL     1       3.409   4.689  19.590  0.00  0.00    +0.000 N 
ATOM      8  C   UNL     1       4.385   3.790  19.161  0.00  0.00    +0.000 A 
ATOM      9  O   UNL     1       4.685   2.812  19.838  0.00  0.00    +0.000 OA
ATOM     10  N   UNL     1       4.984   4.012  17.946  0.00  0.00    +0.000 NA
ENDROOT
BRANCH   7  11
ATOM     11  C   UNL     1       2.708   4.428  20.833  0.00  0.00    +0.000 C 
BRANCH  11  12
ATOM     12  O   UNL     1       1.323   4.153  20.581  0.00  0.00    +0.000 OA
BRANCH  12  13
ATOM     13  C   UNL     1       1.079   2.745  20.432  0.00  0.00    +0.000 C 
BRANCH  13  14
ATOM     14  C   UNL     1       0.891   2.427  18.952  0.00  0.00    +0.000 C 
BRANCH  14  15
ATOM     15  O   UNL     1       1.963   1.618  18.472  0.00  0.00    +0.000 OA
ATOM     16  H   UNL     1       2.677   1.720  19.129  0.00  0.00    +0.000 HD
ENDBRANCH  14  15
ENDBRANCH  13  14
ENDBRANCH  12  13
ENDBRANCH  11  12
ENDBRANCH   7  11
TORSDOF 5
ENDMDL
MODEL 8
REMARK VINA RESULT:      -4.9      3.241      4.389
REMARK  Name = 
REMARK  7 active torsions:
REMARK  status: ('A' for Active; 'I' for Inactive)
REMARK    1  A    between atoms: C_1  and  N_2
REMARK    2  A    between atoms: N_2  and  C_3
REMARK    3  A    between atoms: N_7  and  C_8
REMARK    4  A    between atoms: C_8  and  O_9
REMARK    5  A    between atoms: O_9  and  C_10
REMARK    6  A    between atoms: C_10  and  C_11
REMARK    7  A    between atoms: C_11  and  O_12
REMARK                            x       y       z     vdW  Elec       q    Type
REMARK                         _______ _______ _______ _____ _____    ______ ____
ROOT
ATOM      1  C   UNL     1       7.931   5.310  12.672  0.00  0.00    +0.000 C 
ATOM      2  N   UNL     1       6.982   4.446  13.370  0.00  0.00    +0.000 N 
ATOM      3  C   UNL     1       6.172   3.567  12.539  0.00  0.00    +0.000 C 
ATOM      4  C   UNL     1       6.673   4.699  14.707  0.00  0.00    +0.000 A 
ATOM      5  C   UNL     1       5.761   3.786  15.448  0.00  0.00    +0.000 A 
ATOM      6  C   UNL     1       5.525   4.070  16.724  0.00  0.00    +0.000 A 
ATOM      7  N   UNL     1       6.095   5.167  17.318  0.00  0.00    +0.000 N 
ATOM      8  C   UNL     1       6.918   6.037  16.604  0.00  0.00    +0.000 A 
ATOM      9  O   UNL     1       7.402   7.030  17.138  0.00  0.00    +0.000 OA
ATOM     10  N   UNL     1       7.197   5.740  15.293  0.00  0.00    +0.000 NA
ENDROOT
BRANCH   7  11
ATOM     11  C   UNL     1       5.854   5.420  18.725  0.00  0.00    +0.000 C 
BRANCH  11  12
ATOM     12  O   UNL     1       4.687   4.715  19.171  0.00  0.00    +0.000 OA
BRANCH  12  13
ATOM     13  C   UNL     1       3.649   5.616  19.588  0.00  0.00    +0.000 C 
BRANCH  13  14
ATOM     14  C   UNL     1       2.679   5.827  18.431  0.00  0.00    +0.000 C 
BRANCH  14  15
ATOM     15  O   UNL     1       2.072   4.593  18.053  0.00  0.00    +0.000 OA
ATOM     16  H   UNL     1       2.783   3.927  18.113  0.00  0.00    +0.000 HD
ENDBRANCH  14  15
ENDBRANCH  13  14
ENDBRANCH  12  13
ENDBRANCH  11  12
ENDBRANCH   7  11
TORSDOF 5
ENDMDL
MODEL 9
REMARK VINA RESULT:      -4.9      3.217      5.617
REMARK  Name = 
REMARK  7 active torsions:
REMARK  status: ('A' for Active; 'I' for Inactive)
REMARK    1  A    between atoms: C_1  and  N_2
REMARK    2  A    between atoms: N_2  and  C_3
REMARK    3  A    between atoms: N_7  and  C_8
REMARK    4  A    between atoms: C_8  and  O_9
REMARK    5  A    between atoms: O_9  and  C_10
REMARK    6  A    between atoms: C_10  and  C_11
REMARK    7  A    between atoms: C_11  and  O_12
REMARK                            x       y       z     vdW  Elec       q    Type
REMARK                         _______ _______ _______ _____ _____    ______ ____
ROOT
ATOM      1  C   UNL     1       3.351   2.761  20.780  0.00  0.00    +0.000 C 
ATOM      2  N   UNL     1       3.083   2.891  19.350  0.00  0.00    +0.000 N 
ATOM      3  C   UNL     1       1.967   2.117  18.826  0.00  0.00    +0.000 C 
ATOM      4  C   UNL     1       4.041   3.472  18.518  0.00  0.00    +0.000 A 
ATOM      5  C   UNL     1       3.751   3.671  17.072  0.00  0.00    +0.000 A 
ATOM      6  C   UNL     1       4.697   4.250  16.339  0.00  0.00    +0.000 A 
ATOM      7  N   UNL     1       5.888   4.631  16.901  0.00  0.00    +0.000 N 
ATOM      8  C   UNL     1       6.164   4.405  18.249  0.00  0.00    +0.000 A 
ATOM      9  O   UNL     1       7.243   4.726  18.737  0.00  0.00    +0.000 OA
ATOM     10  N   UNL     1       5.185   3.837  19.027  0.00  0.00    +0.000 NA
ENDROOT
BRANCH   7  11
ATOM     11  C   UNL     1       6.879   5.303  16.083  0.00  0.00    +0.000 C 
BRANCH  11  12
ATOM     12  O   UNL     1       6.426   5.403  14.725  0.00  0.00    +0.000 OA
BRANCH  12  13
ATOM     13  C   UNL     1       7.486   5.142  13.792  0.00  0.00    +0.000 C 
BRANCH  13  14
ATOM     14  C   UNL     1       6.965   4.225  12.691  0.00  0.00    +0.000 C 
BRANCH  14  15
ATOM     15  O   UNL     1       6.223   3.141  13.248  0.00  0.00    +0.000 OA
ATOM     16  H   UNL     1       6.816   2.368  13.192  0.00  0.00    +0.000 HD
ENDBRANCH  14  15
ENDBRANCH  13  14
ENDBRANCH  12  13
ENDBRANCH  11  12
ENDBRANCH   7  11
TORSDOF 5
ENDMDL
