MODEL 1
REMARK VINA RESULT:      -6.0      0.000      0.000
REMARK  Name = 
REMARK  4 active torsions:
REMARK  status: ('A' for Active; 'I' for Inactive)
REMARK    1  A    between atoms: C_1  and  C_2
REMARK    2  A    between atoms: C_6  and  C_7
REMARK    3  A    between atoms: C_10  and  C_11
REMARK    4  A    between atoms: C_14  and  C_15
REMARK                            x       y       z     vdW  Elec       q    Type
REMARK                         _______ _______ _______ _____ _____    ______ ____
ROOT
ATOM      1  C   UNL     1       8.404   7.281  18.918  0.00  0.00    +0.000 C 
ATOM      2  C   UNL     1       7.760   5.931  19.113  0.00  0.00    +0.000 C 
ATOM      3  O   UNL     1       8.324   5.066  19.778  0.00  0.00    +0.000 OA
ATOM      4  N   UNL     1       6.487   5.749  18.552  0.00  0.00    +0.000 N 
ATOM      5  C   UNL     1       5.906   4.430  18.787  0.00  0.00    +0.000 C 
ATOM      6  C   UNL     1       4.466   4.232  18.276  0.00  0.00    +0.000 C 
ATOM      7  C   UNL     1       4.129   2.732  18.392  0.00  0.00    +0.000 C 
ATOM      8  C   UNL     1       3.425   5.014  19.104  0.00  0.00    +0.000 C 
ATOM      9  N   UNL     1       3.278   6.442  18.824  0.00  0.00    +0.000 N 
ATOM     10  C   UNL     1       2.342   7.238  19.503  0.00  0.00    +0.000 C 
ATOM     11  C   UNL     1       1.469   6.608  20.562  0.00  0.00    +0.000 C 
ATOM     12  O   UNL     1       2.171   8.423  19.214  0.00  0.00    +0.000 OA
ATOM     13  C   UNL     1       3.668   6.962  17.515  0.00  0.00    +0.000 C 
ATOM     14  C   UNL     1       4.733   6.163  16.743  0.00  0.00    +0.000 C 
ATOM     15  C   UNL     1       4.707   6.620  15.271  0.00  0.00    +0.000 C 
ATOM     16  C   UNL     1       6.147   6.430  17.307  0.00  0.00    +0.000 C 
ATOM     17  C   UNL     1       4.399   4.670  16.813  0.00  0.00    +0.000 C 
ENDROOT
TORSDOF 0
ENDMDL
MODEL 2
REMARK VINA RESULT:      -6.0      2.198      4.856
REMARK  Name = 
REMARK  4 active torsions:
REMARK  status: ('A' for Active; 'I' for Inactive)
REMARK    1  A    between atoms: C_1  and  C_2
REMARK    2  A    between atoms: C_6  and  C_7
REMARK    3  A    between atoms: C_10  and  C_11
REMARK    4  A    between atoms: C_14  and  C_15
REMARK                            x       y       z     vdW  Elec       q    Type
REMARK                         _______ _______ _______ _____ _____    ______ ____
ROOT
ATOM      1  C   UNL     1       3.053   8.515  17.840  0.00  0.00    +0.000 C 
ATOM      2  C   UNL     1       2.652   7.060  17.831  0.00  0.00    +0.000 C 
ATOM      3  O   UNL     1       1.464   6.746  17.825  0.00  0.00    +0.000 OA
ATOM      4  N   UNL     1       3.689   6.116  17.775  0.00  0.00    +0.000 N 
ATOM      5  C   UNL     1       3.240   4.727  17.752  0.00  0.00    +0.000 C 
ATOM      6  C   UNL     1       4.348   3.669  17.584  0.00  0.00    +0.000 C 
ATOM      7  C   UNL     1       3.716   2.285  17.830  0.00  0.00    +0.000 C 
ATOM      8  C   UNL     1       4.958   3.663  16.166  0.00  0.00    +0.000 C 
ATOM      9  N   UNL     1       5.954   4.687  15.858  0.00  0.00    +0.000 N 
ATOM     10  C   UNL     1       6.588   4.753  14.607  0.00  0.00    +0.000 C 
ATOM     11  C   UNL     1       6.224   3.746  13.542  0.00  0.00    +0.000 C 
ATOM     12  O   UNL     1       7.479   5.571  14.376  0.00  0.00    +0.000 OA
ATOM     13  C   UNL     1       6.712   5.303  16.946  0.00  0.00    +0.000 C 
ATOM     14  C   UNL     1       6.047   5.312  18.333  0.00  0.00    +0.000 C 
ATOM     15  C   UNL     1       7.130   5.618  19.387  0.00  0.00    +0.000 C 
ATOM     16  C   UNL     1       4.963   6.409  18.424  0.00  0.00    +0.000 C 
ATOM     17  C   UNL     1       5.443   3.934  18.617  0.00  0.00    +0.000 C 
ENDROOT
TORSDOF 0
ENDMDL
MODEL 3
REMARK VINA RESULT:      -6.0      2.090      4.940
REMARK  Name = 
REMARK  4 active torsions:
REMARK  status: ('A' for Active; 'I' for Inactive)
REMARK    1  A    between atoms: C_1  and  C_2
REMARK    2  A    between atoms: C_6  and  C_7
REMARK    3  A    between atoms: C_10  and  C_11
REMARK    4  A    between atoms: C_14  and  C_15
REMARK                            x       y       z     vdW  Elec       q    Type
REMARK                         _______ _______ _______ _____ _____    ______ ____
ROOT
ATOM      1  C   UNL     1       2.724   1.768  17.842  0.00  0.00    +0.000 C 
ATOM      2  C   UNL     1       2.571   3.257  18.032  0.00  0.00    +0.000 C 
ATOM      3  O   UNL     1       1.638   3.703  18.695  0.00  0.00    +0.000 OA
ATOM      4  N   UNL     1       3.562   4.074  17.468  0.00  0.00    +0.000 N 
ATOM      5  C   UNL     1       3.370   5.503  17.697  0.00  0.00    +0.000 C 
ATOM      6  C   UNL     1       4.496   6.421  17.183  0.00  0.00    +0.000 C 
ATOM      7  C   UNL     1       4.003   7.876  17.294  0.00  0.00    +0.000 C 
ATOM      8  C   UNL     1       5.793   6.298  18.012  0.00  0.00    +0.000 C 
ATOM      9  N   UNL     1       6.662   5.156  17.736  0.00  0.00    +0.000 N 
ATOM     10  C   UNL     1       7.876   4.966  18.416  0.00  0.00    +0.000 C 
ATOM     11  C   UNL     1       8.293   5.962  19.471  0.00  0.00    +0.000 C 
ATOM     12  O   UNL     1       8.639   4.043  18.129  0.00  0.00    +0.000 OA
ATOM     13  C   UNL     1       6.600   4.504  16.429  0.00  0.00    +0.000 C 
ATOM     14  C   UNL     1       5.275   4.628  15.657  0.00  0.00    +0.000 C 
ATOM     15  C   UNL     1       5.535   4.247  14.186  0.00  0.00    +0.000 C 
ATOM     16  C   UNL     1       4.207   3.666  16.224  0.00  0.00    +0.000 C 
ATOM     17  C   UNL     1       4.782   6.077  15.722  0.00  0.00    +0.000 C 
ENDROOT
TORSDOF 0
ENDMDL
MODEL 4
REMARK VINA RESULT:      -6.0      1.031      1.056
REMARK  Name = 
REMARK  4 active torsions:
REMARK  status: ('A' for Active; 'I' for Inactive)
REMARK    1  A    between atoms: C_1  and  C_2
REMARK    2  A    between atoms: C_6  and  C_7
REMARK    3  A    between atoms: C_10  and  C_11
REMARK    4  A    between atoms: C_14  and  C_15
REMARK                            x       y       z     vdW  Elec       q    Type
REMARK                         _______ _______ _______ _____ _____    ______ ____
ROOT
ATOM      1  C   UNL     1       8.474   6.922  18.893  0.00  0.00    +0.000 C 
ATOM      2  C   UNL     1       7.506   5.881  19.397  0.00  0.00    +0.000 C 
ATOM      3  O   UNL     1       7.754   5.249  20.421  0.00  0.00    +0.000 OA
ATOM      4  N   UNL     1       6.312   5.724  18.677  0.00  0.00    +0.000 N 
ATOM      5  C   UNL     1       5.407   4.715  19.221  0.00  0.00    +0.000 C 
ATOM      6  C   UNL     1       4.042   4.591  18.517  0.00  0.00    +0.000 C 
ATOM      7  C   UNL     1       3.344   3.331  19.065  0.00  0.00    +0.000 C 
ATOM      8  C   UNL     1       3.118   5.798  18.789  0.00  0.00    +0.000 C 
ATOM      9  N   UNL     1       3.354   7.015  18.015  0.00  0.00    +0.000 N 
ATOM     10  C   UNL     1       2.555   8.158  18.168  0.00  0.00    +0.000 C 
ATOM     11  C   UNL     1       1.425   8.139  19.168  0.00  0.00    +0.000 C 
ATOM     12  O   UNL     1       2.712   9.155  17.462  0.00  0.00    +0.000 OA
ATOM     13  C   UNL     1       4.027   6.923  16.720  0.00  0.00    +0.000 C 
ATOM     14  C   UNL     1       4.962   5.719  16.510  0.00  0.00    +0.000 C 
ATOM     15  C   UNL     1       5.241   5.581  15.000  0.00  0.00    +0.000 C 
ATOM     16  C   UNL     1       6.312   5.930  17.233  0.00  0.00    +0.000 C 
ATOM     17  C   UNL     1       4.275   4.447  17.013  0.00  0.00    +0.000 C 
ENDROOT
TORSDOF 0
ENDMDL
MODEL 5
REMARK VINA RESULT:      -5.9      0.385      4.848
REMARK  Name = 
REMARK  4 active torsions:
REMARK  status: ('A' for Active; 'I' for Inactive)
REMARK    1  A    between atoms: C_1  and  C_2
REMARK    2  A    between atoms: C_6  and  C_7
REMARK    3  A    between atoms: C_10  and  C_11
REMARK    4  A    between atoms: C_14  and  C_15
REMARK                            x       y       z     vdW  Elec       q    Type
REMARK                         _______ _______ _______ _____ _____    ______ ____
ROOT
ATOM      1  C   UNL     1       1.663   6.904  20.767  0.00  0.00    +0.000 C 
ATOM      2  C   UNL     1       2.136   7.342  19.404  0.00  0.00    +0.000 C 
ATOM      3  O   UNL     1       1.703   8.375  18.901  0.00  0.00    +0.000 OA
ATOM      4  N   UNL     1       3.116   6.549  18.787  0.00  0.00    +0.000 N 
ATOM      5  C   UNL     1       3.547   7.030  17.477  0.00  0.00    +0.000 C 
ATOM      6  C   UNL     1       4.697   6.243  16.820  0.00  0.00    +0.000 C 
ATOM      7  C   UNL     1       4.836   6.740  15.368  0.00  0.00    +0.000 C 
ATOM      8  C   UNL     1       6.052   6.464  17.525  0.00  0.00    +0.000 C 
ATOM      9  N   UNL     1       6.302   5.712  18.754  0.00  0.00    +0.000 N 
ATOM     10  C   UNL     1       7.512   5.821  19.457  0.00  0.00    +0.000 C 
ATOM     11  C   UNL     1       8.584   6.750  18.940  0.00  0.00    +0.000 C 
ATOM     12  O   UNL     1       7.746   5.131  20.450  0.00  0.00    +0.000 OA
ATOM     13  C   UNL     1       5.583   4.460  18.989  0.00  0.00    +0.000 C 
ATOM     14  C   UNL     1       4.222   4.302  18.289  0.00  0.00    +0.000 C 
ATOM     15  C   UNL     1       3.830   2.812  18.325  0.00  0.00    +0.000 C 
ATOM     16  C   UNL     1       3.124   5.108  19.018  0.00  0.00    +0.000 C 
ATOM     17  C   UNL     1       4.344   4.756  16.831  0.00  0.00    +0.000 C 
ENDROOT
TORSDOF 0
ENDMDL
MODEL 6
REMARK VINA RESULT:      -5.8      5.748      8.020
REMARK  Name = 
REMARK  4 active torsions:
REMARK  status: ('A' for Active; 'I' for Inactive)
REMARK    1  A    between atoms: C_1  and  C_2
REMARK    2  A    between atoms: C_6  and  C_7
REMARK    3  A    between atoms: C_10  and  C_11
REMARK    4  A    between atoms: C_14  and  C_15
REMARK                            x       y       z     vdW  Elec       q    Type
REMARK                         _______ _______ _______ _____ _____    ______ ____
ROOT
ATOM      1  C   UNL     1      -1.155  10.804  23.156  0.00  0.00    +0.000 C 
ATOM      2  C   UNL     1      -0.283   9.995  22.228  0.00  0.00    +0.000 C 
ATOM      3  O   UNL     1       0.188   8.923  22.600  0.00  0.00    +0.000 OA
ATOM      4  N   UNL     1      -0.095  10.500  20.933  0.00  0.00    +0.000 N 
ATOM      5  C   UNL     1       0.743   9.667  20.075  0.00  0.00    +0.000 C 
ATOM      6  C   UNL     1       0.884  10.138  18.615  0.00  0.00    +0.000 C 
ATOM      7  C   UNL     1       1.983   9.286  17.951  0.00  0.00    +0.000 C 
ATOM      8  C   UNL     1      -0.414   9.952  17.800  0.00  0.00    +0.000 C 
ATOM      9  N   UNL     1      -1.466  10.951  17.972  0.00  0.00    +0.000 N 
ATOM     10  C   UNL     1      -2.673  10.888  17.258  0.00  0.00    +0.000 C 
ATOM     11  C   UNL     1      -2.900   9.749  16.293  0.00  0.00    +0.000 C 
ATOM     12  O   UNL     1      -3.526  11.771  17.352  0.00  0.00    +0.000 OA
ATOM     13  C   UNL     1      -1.114  12.293  18.436  0.00  0.00    +0.000 C 
ATOM     14  C   UNL     1       0.171  12.420  19.272  0.00  0.00    +0.000 C 
ATOM     15  C   UNL     1       0.576  13.907  19.311  0.00  0.00    +0.000 C 
ATOM     16  C   UNL     1      -0.059  11.944  20.723  0.00  0.00    +0.000 C 
ATOM     17  C   UNL     1       1.290  11.611  18.610  0.00  0.00    +0.000 C 
ENDROOT
TORSDOF 0
ENDMDL
MODEL 7
REMARK VINA RESULT:      -5.8      2.585      4.717
REMARK  Name = 
REMARK  4 active torsions:
REMARK  status: ('A' for Active; 'I' for Inactive)
REMARK    1  A    between atoms: C_1  and  C_2
REMARK    2  A    between atoms: C_6  and  C_7
REMARK    3  A    between atoms: C_10  and  C_11
REMARK    4  A    between atoms: C_14  and  C_15
REMARK                            x       y       z     vdW  Elec       q    Type
REMARK                         _______ _______ _______ _____ _____    ______ ____
ROOT
ATOM      1  C   UNL     1       2.823   2.136  19.251  0.00  0.00    +0.000 C 
ATOM      2  C   UNL     1       4.209   2.631  19.581  0.00  0.00    +0.000 C 
ATOM      3  O   UNL     1       4.915   2.014  20.374  0.00  0.00    +0.000 OA
ATOM      4  N   UNL     1       4.652   3.777  18.902  0.00  0.00    +0.000 N 
ATOM      5  C   UNL     1       6.006   4.200  19.249  0.00  0.00    +0.000 C 
ATOM      6  C   UNL     1       6.562   5.391  18.445  0.00  0.00    +0.000 C 
ATOM      7  C   UNL     1       7.877   5.835  19.114  0.00  0.00    +0.000 C 
ATOM      8  C   UNL     1       6.879   5.026  16.979  0.00  0.00    +0.000 C 
ATOM      9  N   UNL     1       5.759   4.975  16.040  0.00  0.00    +0.000 N 
ATOM     10  C   UNL     1       5.944   4.679  14.681  0.00  0.00    +0.000 C 
ATOM     11  C   UNL     1       7.336   4.391  14.171  0.00  0.00    +0.000 C 
ATOM     12  O   UNL     1       5.008   4.709  13.880  0.00  0.00    +0.000 OA
ATOM     13  C   UNL     1       4.546   5.739  16.327  0.00  0.00    +0.000 C 
ATOM     14  C   UNL     1       4.258   6.049  17.807  0.00  0.00    +0.000 C 
ATOM     15  C   UNL     1       3.203   7.171  17.869  0.00  0.00    +0.000 C 
ATOM     16  C   UNL     1       3.690   4.811  18.535  0.00  0.00    +0.000 C 
ATOM     17  C   UNL     1       5.544   6.530  18.485  0.00  0.00    +0.000 C 
ENDROOT
TORSDOF 0
ENDMDL
MODEL 8
REMARK VINA RESULT:      -5.6      5.860      7.749
REMARK  Name = 
REMARK  4 active torsions:
REMARK  status: ('A' for Active; 'I' for Inactive)
REMARK    1  A    between atoms: C_1  and  C_2
REMARK    2  A    between atoms: C_6  and  C_7
REMARK    3  A    between atoms: C_10  and  C_11
REMARK    4  A    between atoms: C_14  and  C_15
REMARK                            x       y       z     vdW  Elec       q    Type
REMARK                         _______ _______ _______ _____ _____    ______ ____
ROOT
ATOM      1  C   UNL     1       1.418  15.074  18.860  0.00  0.00    +0.000 C 
ATOM      2  C   UNL     1       2.006  13.714  18.576  0.00  0.00    +0.000 C 
ATOM      3  O   UNL     1       3.182  13.605  18.238  0.00  0.00    +0.000 OA
ATOM      4  N   UNL     1       1.166  12.606  18.771  0.00  0.00    +0.000 N 
ATOM      5  C   UNL     1       1.793  11.316  18.497  0.00  0.00    +0.000 C 
ATOM      6  C   UNL     1       0.933  10.075  18.804  0.00  0.00    +0.000 C 
ATOM      7  C   UNL     1       1.661   8.846  18.226  0.00  0.00    +0.000 C 
ATOM      8  C   UNL     1       0.740   9.841  20.317  0.00  0.00    +0.000 C 
ATOM      9  N   UNL     1      -0.267  10.650  21.001  0.00  0.00    +0.000 N 
ATOM     10  C   UNL     1      -0.538  10.496  22.369  0.00  0.00    +0.000 C 
ATOM     11  C   UNL     1       0.240   9.476  23.165  0.00  0.00    +0.000 C 
ATOM     12  O   UNL     1      -1.438  11.128  22.925  0.00  0.00    +0.000 OA
ATOM     13  C   UNL     1      -1.372  11.222  20.232  0.00  0.00    +0.000 C 
ATOM     14  C   UNL     1      -1.118  11.467  18.734  0.00  0.00    +0.000 C 
ATOM     15  C   UNL     1      -2.479  11.676  18.041  0.00  0.00    +0.000 C 
ATOM     16  C   UNL     1      -0.264  12.735  18.514  0.00  0.00    +0.000 C 
ATOM     17  C   UNL     1      -0.428  10.241  18.129  0.00  0.00    +0.000 C 
ENDROOT
TORSDOF 0
ENDMDL
MODEL 9
REMARK VINA RESULT:      -5.6      2.056      2.797
REMARK  Name = 
REMARK  4 active torsions:
REMARK  status: ('A' for Active; 'I' for Inactive)
REMARK    1  A    between atoms: C_1  and  C_2
REMARK    2  A    between atoms: C_6  and  C_7
REMARK    3  A    between atoms: C_10  and  C_11
REMARK    4  A    between atoms: C_14  and  C_15
REMARK                            x       y       z     vdW  Elec       q    Type
REMARK                         _______ _______ _______ _____ _____    ______ ____
ROOT
ATOM      1  C   UNL     1       8.055   5.493  19.847  0.00  0.00    +0.000 C 
ATOM      2  C   UNL     1       7.918   4.843  18.493  0.00  0.00    +0.000 C 
ATOM      3  O   UNL     1       8.830   4.154  18.042  0.00  0.00    +0.000 OA
ATOM      4  N   UNL     1       6.698   5.022  17.823  0.00  0.00    +0.000 N 
ATOM      5  C   UNL     1       6.617   4.357  16.526  0.00  0.00    +0.000 C 
ATOM      6  C   UNL     1       5.254   4.445  15.813  0.00  0.00    +0.000 C 
ATOM      7  C   UNL     1       5.440   3.910  14.380  0.00  0.00    +0.000 C 
ATOM      8  C   UNL     1       4.165   3.592  16.498  0.00  0.00    +0.000 C 
ATOM      9  N   UNL     1       3.525   4.148  17.688  0.00  0.00    +0.000 N 
ATOM     10  C   UNL     1       2.506   3.464  18.370  0.00  0.00    +0.000 C 
ATOM     11  C   UNL     1       2.064   2.110  17.869  0.00  0.00    +0.000 C 
ATOM     12  O   UNL     1       1.919   3.968  19.329  0.00  0.00    +0.000 OA
ATOM     13  C   UNL     1       3.511   5.596  17.887  0.00  0.00    +0.000 C 
ATOM     14  C   UNL     1       4.637   6.398  17.210  0.00  0.00    +0.000 C 
ATOM     15  C   UNL     1       4.228   7.884  17.194  0.00  0.00    +0.000 C 
ATOM     16  C   UNL     1       5.961   6.270  17.995  0.00  0.00    +0.000 C 
ATOM     17  C   UNL     1       4.814   5.908  15.770  0.00  0.00    +0.000 C 
ENDROOT
TORSDOF 0
ENDMDL
