MODEL 1
REMARK VINA RESULT:      -8.0      0.000      0.000
REMARK  Name = 
REMARK  11 active torsions:
REMARK  status: ('A' for Active; 'I' for Inactive)
REMARK    1  A    between atoms: C_1  and  C_2
REMARK    2  A    between atoms: C_2  and  C_3
REMARK    3  A    between atoms: C_2  and  C_4
REMARK    4  A    between atoms: C_2  and  C_5
REMARK    5  A    between atoms: C_5  and  N_6
REMARK    6  A    between atoms: C_10  and  N_11
REMARK    7  A    between atoms: N_13  and  C_14
REMARK    8  A    between atoms: N_22  and  C_23
REMARK    9  A    between atoms: C_23  and  C_24
REMARK   10  A    between atoms: C_23  and  C_25
REMARK   11  A    between atoms: C_23  and  C_26
REMARK                            x       y       z     vdW  Elec       q    Type
REMARK                         _______ _______ _______ _____ _____    ______ ____
ROOT
ATOM      1  N   UNL     1       4.854   5.875  19.084  0.00  0.00    +0.000 NA
ATOM      2  C   UNL     1       3.860   5.067  19.338  0.00  0.00    +0.000 C 
ATOM      3  N   UNL     1       2.607   5.559  19.609  0.00  0.00    +0.000 N 
ATOM      4  N   UNL     1       3.855   3.695  19.513  0.00  0.00    +0.000 N 
ATOM      5  H   UNL     1       2.215   5.111  20.425  0.00  0.00    +0.000 HD
ATOM      6  H   UNL     1       4.810   3.333  19.580  0.00  0.00    +0.000 HD
ENDROOT
BRANCH   3   7
ATOM      7  C   UNL     1       2.162   6.878  19.415  0.00  0.00    +0.000 A 
ATOM      8  C   UNL     1       2.260   7.464  18.155  0.00  0.00    +0.000 A 
ATOM      9  C   UNL     1       1.841   8.780  17.942  0.00  0.00    +0.000 A 
ATOM     10  C   UNL     1       1.331   9.527  19.015  0.00  0.00    +0.000 A 
ATOM     11 CL   UNL     1       0.830  11.149  18.689  0.00  0.00    +0.000 Cl
ATOM     12  C   UNL     1       1.246   8.960  20.280  0.00  0.00    +0.000 A 
ATOM     13 CL   UNL     1       0.658   9.821  21.657  0.00  0.00    +0.000 Cl
ATOM     14  C   UNL     1       1.673   7.642  20.482  0.00  0.00    +0.000 A 
ENDBRANCH   3   7
BRANCH   1  19
ATOM     15  N   UNL     1       6.562   4.808  17.797  0.00  0.00    +0.000 N 
ATOM     16  C   UNL     1       7.891   4.509  17.951  0.00  0.00    +0.000 A 
ATOM     17  C   UNL     1       8.229   4.997  19.188  0.00  0.00    +0.000 A 
ATOM     18  N   UNL     1       7.145   5.559  19.805  0.00  0.00    +0.000 NA
ATOM     19  C   UNL     1       6.128   5.440  18.965  0.00  0.00    +0.000 A 
BRANCH  15  20
ATOM     20  C   UNL     1       5.757   4.321  16.687  0.00  0.00    +0.000 C 
BRANCH  20  22
ATOM     21  C   UNL     1       7.252   5.197  14.757  0.00  0.00    +0.000 C 
ATOM     22  C   UNL     1       5.825   5.076  15.320  0.00  0.00    +0.000 C 
ATOM     23  C   UNL     1       5.222   6.484  15.448  0.00  0.00    +0.000 C 
ATOM     24  C   UNL     1       4.988   4.282  14.289  0.00  0.00    +0.000 C 
ENDBRANCH  20  22
ENDBRANCH  15  20
ENDBRANCH   1  19
BRANCH   4  25
ATOM     25  C   UNL     1       2.891   2.748  18.886  0.00  0.00    +0.000 C 
ATOM     26  C   UNL     1       2.272   3.297  17.587  0.00  0.00    +0.000 C 
ATOM     27  C   UNL     1       3.643   1.446  18.550  0.00  0.00    +0.000 C 
ATOM     28  C   UNL     1       1.762   2.374  19.866  0.00  0.00    +0.000 C 
ENDBRANCH   4  25
TORSDOF 5
ENDMDL
MODEL 2
REMARK VINA RESULT:      -7.9      0.058      1.195
REMARK  Name = 
REMARK  11 active torsions:
REMARK  status: ('A' for Active; 'I' for Inactive)
REMARK    1  A    between atoms: C_1  and  C_2
REMARK    2  A    between atoms: C_2  and  C_3
REMARK    3  A    between atoms: C_2  and  C_4
REMARK    4  A    between atoms: C_2  and  C_5
REMARK    5  A    between atoms: C_5  and  N_6
REMARK    6  A    between atoms: C_10  and  N_11
REMARK    7  A    between atoms: N_13  and  C_14
REMARK    8  A    between atoms: N_22  and  C_23
REMARK    9  A    between atoms: C_23  and  C_24
REMARK   10  A    between atoms: C_23  and  C_25
REMARK   11  A    between atoms: C_23  and  C_26
REMARK                            x       y       z     vdW  Elec       q    Type
REMARK                         _______ _______ _______ _____ _____    ______ ____
ROOT
ATOM      1  N   UNL     1       4.851   5.877  19.095  0.00  0.00    +0.000 NA
ATOM      2  C   UNL     1       3.860   5.074  19.372  0.00  0.00    +0.000 C 
ATOM      3  N   UNL     1       2.610   5.570  19.647  0.00  0.00    +0.000 N 
ATOM      4  N   UNL     1       3.856   3.705  19.570  0.00  0.00    +0.000 N 
ATOM      5  H   UNL     1       2.225   5.136  20.475  0.00  0.00    +0.000 HD
ATOM      6  H   UNL     1       4.812   3.343  19.633  0.00  0.00    +0.000 HD
ENDROOT
BRANCH   3   7
ATOM      7  C   UNL     1       2.163   6.886  19.437  0.00  0.00    +0.000 A 
ATOM      8  C   UNL     1       2.262   7.456  18.169  0.00  0.00    +0.000 A 
ATOM      9  C   UNL     1       1.841   8.769  17.939  0.00  0.00    +0.000 A 
ATOM     10  C   UNL     1       1.328   9.528  19.002  0.00  0.00    +0.000 A 
ATOM     11 CL   UNL     1       0.825  11.145  18.654  0.00  0.00    +0.000 Cl
ATOM     12  C   UNL     1       1.242   8.977  20.274  0.00  0.00    +0.000 A 
ATOM     13 CL   UNL     1       0.649   9.854  21.639  0.00  0.00    +0.000 Cl
ATOM     14  C   UNL     1       1.671   7.662  20.493  0.00  0.00    +0.000 A 
ENDBRANCH   3   7
BRANCH   1  19
ATOM     15  N   UNL     1       6.548   4.795  17.806  0.00  0.00    +0.000 N 
ATOM     16  C   UNL     1       7.878   4.497  17.952  0.00  0.00    +0.000 A 
ATOM     17  C   UNL     1       8.226   4.998  19.181  0.00  0.00    +0.000 A 
ATOM     18  N   UNL     1       7.148   5.568  19.801  0.00  0.00    +0.000 NA
ATOM     19  C   UNL     1       6.124   5.440  18.970  0.00  0.00    +0.000 A 
BRANCH  15  20
ATOM     20  C   UNL     1       5.734   4.297  16.707  0.00  0.00    +0.000 C 
BRANCH  20  22
ATOM     21  C   UNL     1       5.047   4.285  14.207  0.00  0.00    +0.000 C 
ATOM     22  C   UNL     1       5.826   5.009  15.319  0.00  0.00    +0.000 C 
ATOM     23  C   UNL     1       7.292   5.156  14.882  0.00  0.00    +0.000 C 
ATOM     24  C   UNL     1       5.218   6.423  15.462  0.00  0.00    +0.000 C 
ENDBRANCH  20  22
ENDBRANCH  15  20
ENDBRANCH   1  19
BRANCH   4  25
ATOM     25  C   UNL     1       2.886   2.747  18.968  0.00  0.00    +0.000 C 
ATOM     26  C   UNL     1       1.718   2.407  19.911  0.00  0.00    +0.000 C 
ATOM     27  C   UNL     1       2.307   3.386  17.692  0.00  0.00    +0.000 C 
ATOM     28  C   UNL     1       3.586   1.443  18.539  0.00  0.00    +0.000 C 
ENDBRANCH   4  25
TORSDOF 5
ENDMDL
MODEL 3
REMARK VINA RESULT:      -7.8      0.077      1.196
REMARK  Name = 
REMARK  11 active torsions:
REMARK  status: ('A' for Active; 'I' for Inactive)
REMARK    1  A    between atoms: C_1  and  C_2
REMARK    2  A    between atoms: C_2  and  C_3
REMARK    3  A    between atoms: C_2  and  C_4
REMARK    4  A    between atoms: C_2  and  C_5
REMARK    5  A    between atoms: C_5  and  N_6
REMARK    6  A    between atoms: C_10  and  N_11
REMARK    7  A    between atoms: N_13  and  C_14
REMARK    8  A    between atoms: N_22  and  C_23
REMARK    9  A    between atoms: C_23  and  C_24
REMARK   10  A    between atoms: C_23  and  C_25
REMARK   11  A    between atoms: C_23  and  C_26
REMARK                            x       y       z     vdW  Elec       q    Type
REMARK                         _______ _______ _______ _____ _____    ______ ____
ROOT
ATOM      1  N   UNL     1       4.878   5.891  19.114  0.00  0.00    +0.000 NA
ATOM      2  C   UNL     1       3.888   5.084  19.380  0.00  0.00    +0.000 C 
ATOM      3  N   UNL     1       2.634   5.575  19.648  0.00  0.00    +0.000 N 
ATOM      4  N   UNL     1       3.886   3.714  19.571  0.00  0.00    +0.000 N 
ATOM      5  H   UNL     1       2.244   5.136  20.470  0.00  0.00    +0.000 HD
ATOM      6  H   UNL     1       4.842   3.354  19.640  0.00  0.00    +0.000 HD
ENDROOT
BRANCH   3   7
ATOM      7  C   UNL     1       2.185   6.891  19.440  0.00  0.00    +0.000 A 
ATOM      8  C   UNL     1       2.323   7.479  18.184  0.00  0.00    +0.000 A 
ATOM      9  C   UNL     1       1.900   8.792  17.957  0.00  0.00    +0.000 A 
ATOM     10  C   UNL     1       1.347   9.533  19.013  0.00  0.00    +0.000 A 
ATOM     11 CL   UNL     1       0.844  11.151  18.670  0.00  0.00    +0.000 Cl
ATOM     12  C   UNL     1       1.222   8.965  20.273  0.00  0.00    +0.000 A 
ATOM     13 CL   UNL     1       0.578   9.819  21.629  0.00  0.00    +0.000 Cl
ATOM     14  C   UNL     1       1.653   7.650  20.489  0.00  0.00    +0.000 A 
ENDBRANCH   3   7
BRANCH   1  19
ATOM     15  N   UNL     1       6.584   4.805  17.839  0.00  0.00    +0.000 N 
ATOM     16  C   UNL     1       7.914   4.513  17.992  0.00  0.00    +0.000 A 
ATOM     17  C   UNL     1       8.256   5.025  19.218  0.00  0.00    +0.000 A 
ATOM     18  N   UNL     1       7.174   5.596  19.830  0.00  0.00    +0.000 NA
ATOM     19  C   UNL     1       6.153   5.458  18.997  0.00  0.00    +0.000 A 
BRANCH  15  20
ATOM     20  C   UNL     1       5.775   4.295  16.741  0.00  0.00    +0.000 C 
BRANCH  20  22
ATOM     21  C   UNL     1       5.211   6.474  15.453  0.00  0.00    +0.000 C 
ATOM     22  C   UNL     1       5.797   5.054  15.375  0.00  0.00    +0.000 C 
ATOM     23  C   UNL     1       5.033   4.261  14.303  0.00  0.00    +0.000 C 
ATOM     24  C   UNL     1       7.270   5.188  14.922  0.00  0.00    +0.000 C 
ENDBRANCH  20  22
ENDBRANCH  15  20
ENDBRANCH   1  19
BRANCH   4  25
ATOM     25  C   UNL     1       2.923   2.757  18.957  0.00  0.00    +0.000 C 
ATOM     26  C   UNL     1       3.585   1.436  18.526  0.00  0.00    +0.000 C 
ATOM     27  C   UNL     1       1.833   2.434  19.998  0.00  0.00    +0.000 C 
ATOM     28  C   UNL     1       2.211   3.386  17.744  0.00  0.00    +0.000 C 
ENDBRANCH   4  25
TORSDOF 5
ENDMDL
MODEL 4
REMARK VINA RESULT:      -7.5      0.675      1.384
REMARK  Name = 
REMARK  11 active torsions:
REMARK  status: ('A' for Active; 'I' for Inactive)
REMARK    1  A    between atoms: C_1  and  C_2
REMARK    2  A    between atoms: C_2  and  C_3
REMARK    3  A    between atoms: C_2  and  C_4
REMARK    4  A    between atoms: C_2  and  C_5
REMARK    5  A    between atoms: C_5  and  N_6
REMARK    6  A    between atoms: C_10  and  N_11
REMARK    7  A    between atoms: N_13  and  C_14
REMARK    8  A    between atoms: N_22  and  C_23
REMARK    9  A    between atoms: C_23  and  C_24
REMARK   10  A    between atoms: C_23  and  C_25
REMARK   11  A    between atoms: C_23  and  C_26
REMARK                            x       y       z     vdW  Elec       q    Type
REMARK                         _______ _______ _______ _____ _____    ______ ____
ROOT
ATOM      1  N   UNL     1       4.822   5.751  19.378  0.00  0.00    +0.000 NA
ATOM      2  C   UNL     1       3.862   4.881  19.535  0.00  0.00    +0.000 C 
ATOM      3  N   UNL     1       2.609   5.280  19.930  0.00  0.00    +0.000 N 
ATOM      4  N   UNL     1       3.899   3.499  19.485  0.00  0.00    +0.000 N 
ATOM      5  H   UNL     1       2.264   4.695  20.677  0.00  0.00    +0.000 HD
ATOM      6  H   UNL     1       4.865   3.162  19.456  0.00  0.00    +0.000 HD
ENDROOT
BRANCH   3   7
ATOM      7  C   UNL     1       2.121   6.598  19.971  0.00  0.00    +0.000 A 
ATOM      8  C   UNL     1       1.426   7.045  21.093  0.00  0.00    +0.000 A 
ATOM      9  C   UNL     1       0.916   8.345  21.149  0.00  0.00    +0.000 A 
ATOM     10  C   UNL     1       1.091   9.206  20.055  0.00  0.00    +0.000 A 
ATOM     11 CL   UNL     1       0.438  10.801  20.185  0.00  0.00    +0.000 Cl
ATOM     12  C   UNL     1       1.766   8.766  18.923  0.00  0.00    +0.000 A 
ATOM     13 CL   UNL     1       1.999   9.753  17.525  0.00  0.00    +0.000 Cl
ATOM     14  C   UNL     1       2.269   7.460  18.877  0.00  0.00    +0.000 A 
ENDBRANCH   3   7
BRANCH   1  19
ATOM     15  N   UNL     1       6.475   4.852  17.904  0.00  0.00    +0.000 N 
ATOM     16  C   UNL     1       7.822   4.604  17.945  0.00  0.00    +0.000 A 
ATOM     17  C   UNL     1       8.228   5.020  19.187  0.00  0.00    +0.000 A 
ATOM     18  N   UNL     1       7.169   5.489  19.916  0.00  0.00    +0.000 NA
ATOM     19  C   UNL     1       6.100   5.383  19.141  0.00  0.00    +0.000 A 
BRANCH  15  20
ATOM     20  C   UNL     1       5.613   4.408  16.819  0.00  0.00    +0.000 C 
BRANCH  20  22
ATOM     21  C   UNL     1       7.182   5.128  14.884  0.00  0.00    +0.000 C 
ATOM     22  C   UNL     1       5.742   5.100  15.424  0.00  0.00    +0.000 C 
ATOM     23  C   UNL     1       5.205   6.539  15.481  0.00  0.00    +0.000 C 
ATOM     24  C   UNL     1       4.886   4.303  14.410  0.00  0.00    +0.000 C 
ENDBRANCH  20  22
ENDBRANCH  15  20
ENDBRANCH   1  19
BRANCH   4  25
ATOM     25  C   UNL     1       2.934   2.634  18.750  0.00  0.00    +0.000 C 
ATOM     26  C   UNL     1       2.326   3.329  17.519  0.00  0.00    +0.000 C 
ATOM     27  C   UNL     1       3.682   1.373  18.274  0.00  0.00    +0.000 C 
ATOM     28  C   UNL     1       1.798   2.158  19.676  0.00  0.00    +0.000 C 
ENDBRANCH   4  25
TORSDOF 5
ENDMDL
MODEL 5
REMARK VINA RESULT:      -7.3      0.679      1.837
REMARK  Name = 
REMARK  11 active torsions:
REMARK  status: ('A' for Active; 'I' for Inactive)
REMARK    1  A    between atoms: C_1  and  C_2
REMARK    2  A    between atoms: C_2  and  C_3
REMARK    3  A    between atoms: C_2  and  C_4
REMARK    4  A    between atoms: C_2  and  C_5
REMARK    5  A    between atoms: C_5  and  N_6
REMARK    6  A    between atoms: C_10  and  N_11
REMARK    7  A    between atoms: N_13  and  C_14
REMARK    8  A    between atoms: N_22  and  C_23
REMARK    9  A    between atoms: C_23  and  C_24
REMARK   10  A    between atoms: C_23  and  C_25
REMARK   11  A    between atoms: C_23  and  C_26
REMARK                            x       y       z     vdW  Elec       q    Type
REMARK                         _______ _______ _______ _____ _____    ______ ____
ROOT
ATOM      1  N   UNL     1       4.827   5.739  19.366  0.00  0.00    +0.000 NA
ATOM      2  C   UNL     1       3.874   4.868  19.556  0.00  0.00    +0.000 C 
ATOM      3  N   UNL     1       2.624   5.270  19.960  0.00  0.00    +0.000 N 
ATOM      4  N   UNL     1       3.918   3.486  19.534  0.00  0.00    +0.000 N 
ATOM      5  H   UNL     1       2.293   4.698  20.724  0.00  0.00    +0.000 HD
ATOM      6  H   UNL     1       4.885   3.153  19.498  0.00  0.00    +0.000 HD
ENDROOT
BRANCH   3   7
ATOM      7  C   UNL     1       2.131   6.586  19.979  0.00  0.00    +0.000 A 
ATOM      8  C   UNL     1       1.423   7.043  21.089  0.00  0.00    +0.000 A 
ATOM      9  C   UNL     1       0.907   8.342  21.125  0.00  0.00    +0.000 A 
ATOM     10  C   UNL     1       1.088   9.190  20.021  0.00  0.00    +0.000 A 
ATOM     11 CL   UNL     1       0.426  10.783  20.125  0.00  0.00    +0.000 Cl
ATOM     12  C   UNL     1       1.775   8.739  18.902  0.00  0.00    +0.000 A 
ATOM     13 CL   UNL     1       2.017   9.710  17.494  0.00  0.00    +0.000 Cl
ATOM     14  C   UNL     1       2.284   7.434  18.876  0.00  0.00    +0.000 A 
ENDBRANCH   3   7
BRANCH   1  19
ATOM     15  N   UNL     1       6.468   4.838  17.881  0.00  0.00    +0.000 N 
ATOM     16  C   UNL     1       7.816   4.592  17.909  0.00  0.00    +0.000 A 
ATOM     17  C   UNL     1       8.232   5.014  19.147  0.00  0.00    +0.000 A 
ATOM     18  N   UNL     1       7.180   5.484  19.884  0.00  0.00    +0.000 NA
ATOM     19  C   UNL     1       6.104   5.373  19.119  0.00  0.00    +0.000 A 
BRANCH  15  20
ATOM     20  C   UNL     1       5.597   4.388  16.805  0.00  0.00    +0.000 C 
BRANCH  20  22
ATOM     21  C   UNL     1       4.918   4.343  14.303  0.00  0.00    +0.000 C 
ATOM     22  C   UNL     1       5.732   5.054  15.398  0.00  0.00    +0.000 C 
ATOM     23  C   UNL     1       7.205   5.110  14.964  0.00  0.00    +0.000 C 
ATOM     24  C   UNL     1       5.201   6.504  15.499  0.00  0.00    +0.000 C 
ENDBRANCH  20  22
ENDBRANCH  15  20
ENDBRANCH   1  19
BRANCH   4  25
ATOM     25  C   UNL     1       2.947   2.600  18.832  0.00  0.00    +0.000 C 
ATOM     26  C   UNL     1       1.761   2.188  19.721  0.00  0.00    +0.000 C 
ATOM     27  C   UNL     1       2.395   3.362  17.612  0.00  0.00    +0.000 C 
ATOM     28  C   UNL     1       3.639   1.333  18.294  0.00  0.00    +0.000 C 
ENDBRANCH   4  25
TORSDOF 5
ENDMDL
MODEL 6
REMARK VINA RESULT:      -7.0      0.556      1.272
REMARK  Name = 
REMARK  11 active torsions:
REMARK  status: ('A' for Active; 'I' for Inactive)
REMARK    1  A    between atoms: C_1  and  C_2
REMARK    2  A    between atoms: C_2  and  C_3
REMARK    3  A    between atoms: C_2  and  C_4
REMARK    4  A    between atoms: C_2  and  C_5
REMARK    5  A    between atoms: C_5  and  N_6
REMARK    6  A    between atoms: C_10  and  N_11
REMARK    7  A    between atoms: N_13  and  C_14
REMARK    8  A    between atoms: N_22  and  C_23
REMARK    9  A    between atoms: C_23  and  C_24
REMARK   10  A    between atoms: C_23  and  C_25
REMARK   11  A    between atoms: C_23  and  C_26
REMARK                            x       y       z     vdW  Elec       q    Type
REMARK                         _______ _______ _______ _____ _____    ______ ____
ROOT
ATOM      1  N   UNL     1       4.691   6.159  19.173  0.00  0.00    +0.000 NA
ATOM      2  C   UNL     1       3.712   5.324  19.391  0.00  0.00    +0.000 C 
ATOM      3  N   UNL     1       2.447   5.780  19.666  0.00  0.00    +0.000 N 
ATOM      4  N   UNL     1       3.733   3.947  19.519  0.00  0.00    +0.000 N 
ATOM      5  H   UNL     1       2.056   5.297  20.463  0.00  0.00    +0.000 HD
ATOM      6  H   UNL     1       4.694   3.601  19.583  0.00  0.00    +0.000 HD
ENDROOT
BRANCH   3   7
ATOM      7  C   UNL     1       1.976   7.096  19.513  0.00  0.00    +0.000 A 
ATOM      8  C   UNL     1       2.054   7.719  18.269  0.00  0.00    +0.000 A 
ATOM      9  C   UNL     1       1.610   9.033  18.095  0.00  0.00    +0.000 A 
ATOM     10  C   UNL     1       1.095   9.740  19.193  0.00  0.00    +0.000 A 
ATOM     11 CL   UNL     1       0.562  11.361  18.916  0.00  0.00    +0.000 Cl
ATOM     12  C   UNL     1       1.031   9.137  20.442  0.00  0.00    +0.000 A 
ATOM     13 CL   UNL     1       0.438   9.948  21.847  0.00  0.00    +0.000 Cl
ATOM     14  C   UNL     1       1.483   7.821  20.604  0.00  0.00    +0.000 A 
ENDBRANCH   3   7
BRANCH   1  19
ATOM     15  N   UNL     1       6.631   5.818  17.820  0.00  0.00    +0.000 N 
ATOM     16  C   UNL     1       7.915   5.376  18.006  0.00  0.00    +0.000 A 
ATOM     17  C   UNL     1       8.008   5.091  19.345  0.00  0.00    +0.000 A 
ATOM     18  N   UNL     1       6.816   5.319  19.977  0.00  0.00    +0.000 NA
ATOM     19  C   UNL     1       5.975   5.755  19.052  0.00  0.00    +0.000 A 
BRANCH  15  20
ATOM     20  C   UNL     1       6.057   6.074  16.508  0.00  0.00    +0.000 C 
BRANCH  20  22
ATOM     21  C   UNL     1       5.644   3.544  16.119  0.00  0.00    +0.000 C 
ATOM     22  C   UNL     1       5.979   4.901  15.478  0.00  0.00    +0.000 C 
ATOM     23  C   UNL     1       7.300   4.772  14.703  0.00  0.00    +0.000 C 
ATOM     24  C   UNL     1       4.853   5.223  14.467  0.00  0.00    +0.000 C 
ENDBRANCH  20  22
ENDBRANCH  15  20
ENDBRANCH   1  19
BRANCH   4  25
ATOM     25  C   UNL     1       2.794   3.002  18.851  0.00  0.00    +0.000 C 
ATOM     26  C   UNL     1       3.449   1.653  18.504  0.00  0.00    +0.000 C 
ATOM     27  C   UNL     1       1.616   2.736  19.807  0.00  0.00    +0.000 C 
ATOM     28  C   UNL     1       2.201   3.621  17.570  0.00  0.00    +0.000 C 
ENDBRANCH   4  25
TORSDOF 5
ENDMDL
MODEL 7
REMARK VINA RESULT:      -6.5      1.232      2.648
REMARK  Name = 
REMARK  11 active torsions:
REMARK  status: ('A' for Active; 'I' for Inactive)
REMARK    1  A    between atoms: C_1  and  C_2
REMARK    2  A    between atoms: C_2  and  C_3
REMARK    3  A    between atoms: C_2  and  C_4
REMARK    4  A    between atoms: C_2  and  C_5
REMARK    5  A    between atoms: C_5  and  N_6
REMARK    6  A    between atoms: C_10  and  N_11
REMARK    7  A    between atoms: N_13  and  C_14
REMARK    8  A    between atoms: N_22  and  C_23
REMARK    9  A    between atoms: C_23  and  C_24
REMARK   10  A    between atoms: C_23  and  C_25
REMARK   11  A    between atoms: C_23  and  C_26
REMARK                            x       y       z     vdW  Elec       q    Type
REMARK                         _______ _______ _______ _____ _____    ______ ____
ROOT
ATOM      1  N   UNL     1       4.073   5.747  17.107  0.00  0.00    +0.000 NA
ATOM      2  C   UNL     1       3.636   5.051  18.121  0.00  0.00    +0.000 C 
ATOM      3  N   UNL     1       2.913   5.647  19.124  0.00  0.00    +0.000 N 
ATOM      4  N   UNL     1       3.883   3.733  18.464  0.00  0.00    +0.000 N 
ATOM      5  H   UNL     1       3.262   5.372  20.031  0.00  0.00    +0.000 HD
ATOM      6  H   UNL     1       4.628   3.339  17.883  0.00  0.00    +0.000 HD
ENDROOT
BRANCH   3   7
ATOM      7  C   UNL     1       2.345   6.933  19.100  0.00  0.00    +0.000 A 
ATOM      8  C   UNL     1       2.340   7.665  17.914  0.00  0.00    +0.000 A 
ATOM      9  C   UNL     1       1.798   8.953  17.869  0.00  0.00    +0.000 A 
ATOM     10  C   UNL     1       1.267   9.521  19.037  0.00  0.00    +0.000 A 
ATOM     11 CL   UNL     1       0.611  11.116  18.918  0.00  0.00    +0.000 Cl
ATOM     12  C   UNL     1       1.283   8.809  20.229  0.00  0.00    +0.000 A 
ATOM     13 CL   UNL     1       0.676   9.448  21.714  0.00  0.00    +0.000 Cl
ATOM     14  C   UNL     1       1.833   7.521  20.263  0.00  0.00    +0.000 A 
ENDBRANCH   3   7
BRANCH   1  19
ATOM     15  N   UNL     1       6.287   5.483  16.246  0.00  0.00    +0.000 N 
ATOM     16  C   UNL     1       6.884   4.815  15.209  0.00  0.00    +0.000 A 
ATOM     17  C   UNL     1       5.863   4.155  14.571  0.00  0.00    +0.000 A 
ATOM     18  N   UNL     1       4.661   4.420  15.168  0.00  0.00    +0.000 NA
ATOM     19  C   UNL     1       4.914   5.232  16.183  0.00  0.00    +0.000 A 
BRANCH  15  20
ATOM     20  C   UNL     1       6.987   6.444  17.085  0.00  0.00    +0.000 C 
BRANCH  20  22
ATOM     21  C   UNL     1       6.463   5.655  19.500  0.00  0.00    +0.000 C 
ATOM     22  C   UNL     1       7.555   5.969  18.462  0.00  0.00    +0.000 C 
ATOM     23  C   UNL     1       8.508   7.022  19.047  0.00  0.00    +0.000 C 
ATOM     24  C   UNL     1       8.356   4.666  18.228  0.00  0.00    +0.000 C 
ENDBRANCH  20  22
ENDBRANCH  15  20
ENDBRANCH   1  19
BRANCH   4  25
ATOM     25  C   UNL     1       2.852   2.742  18.881  0.00  0.00    +0.000 C 
ATOM     26  C   UNL     1       1.472   3.014  18.255  0.00  0.00    +0.000 C 
ATOM     27  C   UNL     1       3.318   1.343  18.435  0.00  0.00    +0.000 C 
ATOM     28  C   UNL     1       2.711   2.699  20.415  0.00  0.00    +0.000 C 
ENDBRANCH   4  25
TORSDOF 5
ENDMDL
MODEL 8
REMARK VINA RESULT:      -6.5      1.874      4.869
REMARK  Name = 
REMARK  11 active torsions:
REMARK  status: ('A' for Active; 'I' for Inactive)
REMARK    1  A    between atoms: C_1  and  C_2
REMARK    2  A    between atoms: C_2  and  C_3
REMARK    3  A    between atoms: C_2  and  C_4
REMARK    4  A    between atoms: C_2  and  C_5
REMARK    5  A    between atoms: C_5  and  N_6
REMARK    6  A    between atoms: C_10  and  N_11
REMARK    7  A    between atoms: N_13  and  C_14
REMARK    8  A    between atoms: N_22  and  C_23
REMARK    9  A    between atoms: C_23  and  C_24
REMARK   10  A    between atoms: C_23  and  C_25
REMARK   11  A    between atoms: C_23  and  C_26
REMARK                            x       y       z     vdW  Elec       q    Type
REMARK                         _______ _______ _______ _____ _____    ______ ____
ROOT
ATOM      1  N   UNL     1       2.608   5.181  17.917  0.00  0.00    +0.000 NA
ATOM      2  C   UNL     1       3.681   5.878  17.663  0.00  0.00    +0.000 C 
ATOM      3  N   UNL     1       3.666   7.249  17.747  0.00  0.00    +0.000 N 
ATOM      4  N   UNL     1       4.909   5.471  17.172  0.00  0.00    +0.000 N 
ATOM      5  H   UNL     1       4.096   7.664  16.933  0.00  0.00    +0.000 HD
ATOM      6  H   UNL     1       4.868   4.500  16.850  0.00  0.00    +0.000 HD
ENDROOT
BRANCH   3   7
ATOM      7  C   UNL     1       2.660   8.044  18.325  0.00  0.00    +0.000 A 
ATOM      8  C   UNL     1       2.080   9.072  17.585  0.00  0.00    +0.000 A 
ATOM      9  C   UNL     1       1.091   9.887  18.142  0.00  0.00    +0.000 A 
ATOM     10  C   UNL     1       0.690   9.678  19.471  0.00  0.00    +0.000 A 
ATOM     11 CL   UNL     1      -0.537  10.719  20.104  0.00  0.00    +0.000 Cl
ATOM     12  C   UNL     1       1.274   8.669  20.225  0.00  0.00    +0.000 A 
ATOM     13 CL   UNL     1       0.857   8.366  21.873  0.00  0.00    +0.000 Cl
ATOM     14  C   UNL     1       2.267   7.861  19.656  0.00  0.00    +0.000 A 
ENDBRANCH   3   7
BRANCH   1  19
ATOM     15  N   UNL     1       1.759   3.028  18.514  0.00  0.00    +0.000 N 
ATOM     16  C   UNL     1       1.859   1.746  18.039  0.00  0.00    +0.000 A 
ATOM     17  C   UNL     1       2.668   1.834  16.934  0.00  0.00    +0.000 A 
ATOM     18  N   UNL     1       3.086   3.121  16.735  0.00  0.00    +0.000 NA
ATOM     19  C   UNL     1       2.540   3.849  17.697  0.00  0.00    +0.000 A 
BRANCH  15  20
ATOM     20  C   UNL     1       1.120   3.364  19.778  0.00  0.00    +0.000 C 
BRANCH  20  22
ATOM     21  C   UNL     1       3.334   2.623  20.908  0.00  0.00    +0.000 C 
ATOM     22  C   UNL     1       1.972   3.317  21.088  0.00  0.00    +0.000 C 
ATOM     23  C   UNL     1       1.199   2.609  22.211  0.00  0.00    +0.000 C 
ATOM     24  C   UNL     1       2.251   4.771  21.533  0.00  0.00    +0.000 C 
ENDBRANCH  20  22
ENDBRANCH  15  20
ENDBRANCH   1  19
BRANCH   4  25
ATOM     25  C   UNL     1       6.235   5.870  17.721  0.00  0.00    +0.000 C 
ATOM     26  C   UNL     1       6.587   7.339  17.424  0.00  0.00    +0.000 C 
ATOM     27  C   UNL     1       6.202   5.680  19.249  0.00  0.00    +0.000 C 
ATOM     28  C   UNL     1       7.356   4.962  17.180  0.00  0.00    +0.000 C 
ENDBRANCH   4  25
TORSDOF 5
ENDMDL
MODEL 9
REMARK VINA RESULT:      -6.4      1.847      4.878
REMARK  Name = 
REMARK  11 active torsions:
REMARK  status: ('A' for Active; 'I' for Inactive)
REMARK    1  A    between atoms: C_1  and  C_2
REMARK    2  A    between atoms: C_2  and  C_3
REMARK    3  A    between atoms: C_2  and  C_4
REMARK    4  A    between atoms: C_2  and  C_5
REMARK    5  A    between atoms: C_5  and  N_6
REMARK    6  A    between atoms: C_10  and  N_11
REMARK    7  A    between atoms: N_13  and  C_14
REMARK    8  A    between atoms: N_22  and  C_23
REMARK    9  A    between atoms: C_23  and  C_24
REMARK   10  A    between atoms: C_23  and  C_25
REMARK   11  A    between atoms: C_23  and  C_26
REMARK                            x       y       z     vdW  Elec       q    Type
REMARK                         _______ _______ _______ _____ _____    ______ ____
ROOT
ATOM      1  N   UNL     1       2.612   5.178  17.935  0.00  0.00    +0.000 NA
ATOM      2  C   UNL     1       3.681   5.878  17.673  0.00  0.00    +0.000 C 
ATOM      3  N   UNL     1       3.660   7.249  17.752  0.00  0.00    +0.000 N 
ATOM      4  N   UNL     1       4.908   5.474  17.177  0.00  0.00    +0.000 N 
ATOM      5  H   UNL     1       4.085   7.662  16.934  0.00  0.00    +0.000 HD
ATOM      6  H   UNL     1       4.869   4.502  16.859  0.00  0.00    +0.000 HD
ENDROOT
BRANCH   3   7
ATOM      7  C   UNL     1       2.654   8.042  18.331  0.00  0.00    +0.000 A 
ATOM      8  C   UNL     1       2.080   9.077  17.596  0.00  0.00    +0.000 A 
ATOM      9  C   UNL     1       1.091   9.890  18.156  0.00  0.00    +0.000 A 
ATOM     10  C   UNL     1       0.684   9.673  19.482  0.00  0.00    +0.000 A 
ATOM     11 CL   UNL     1      -0.542  10.712  20.118  0.00  0.00    +0.000 Cl
ATOM     12  C   UNL     1       1.263   8.657  20.231  0.00  0.00    +0.000 A 
ATOM     13 CL   UNL     1       0.839   8.343  21.875  0.00  0.00    +0.000 Cl
ATOM     14  C   UNL     1       2.256   7.851  19.659  0.00  0.00    +0.000 A 
ENDBRANCH   3   7
BRANCH   1  19
ATOM     15  N   UNL     1       1.746   3.029  18.521  0.00  0.00    +0.000 N 
ATOM     16  C   UNL     1       1.857   1.744  18.057  0.00  0.00    +0.000 A 
ATOM     17  C   UNL     1       2.695   1.825  16.973  0.00  0.00    +0.000 A 
ATOM     18  N   UNL     1       3.119   3.111  16.777  0.00  0.00    +0.000 NA
ATOM     19  C   UNL     1       2.549   3.845  17.721  0.00  0.00    +0.000 A 
BRANCH  15  20
ATOM     20  C   UNL     1       1.075   3.372  19.766  0.00  0.00    +0.000 C 
BRANCH  20  22
ATOM     21  C   UNL     1       1.209   2.613  22.243  0.00  0.00    +0.000 C 
ATOM     22  C   UNL     1       1.900   3.367  21.093  0.00  0.00    +0.000 C 
ATOM     23  C   UNL     1       2.199   4.803  21.551  0.00  0.00    +0.000 C 
ATOM     24  C   UNL     1       3.246   2.655  20.820  0.00  0.00    +0.000 C 
ENDBRANCH  20  22
ENDBRANCH  15  20
ENDBRANCH   1  19
BRANCH   4  25
ATOM     25  C   UNL     1       6.235   5.881  17.717  0.00  0.00    +0.000 C 
ATOM     26  C   UNL     1       6.334   5.722  19.245  0.00  0.00    +0.000 C 
ATOM     27  C   UNL     1       7.314   4.993  17.068  0.00  0.00    +0.000 C 
ATOM     28  C   UNL     1       6.566   7.337  17.338  0.00  0.00    +0.000 C 
ENDBRANCH   4  25
TORSDOF 5
ENDMDL
