MODEL 1
REMARK VINA RESULT:      -8.6      0.000      0.000
REMARK  Name = 
REMARK  7 active torsions:
REMARK  status: ('A' for Active; 'I' for Inactive)
REMARK    1  A    between atoms: C_1  and  C_2
REMARK    2  A    between atoms: C_4  and  C_5
REMARK    3  A    between atoms: N_10  and  C_11
REMARK    4  A    between atoms: C_11  and  C_12
REMARK    5  A    between atoms: N_20  and  C_21
REMARK    6  A    between atoms: C_30  and  C_31
REMARK    7  A    between atoms: N_33  and  C_34
REMARK                            x       y       z     vdW  Elec       q    Type
REMARK                         _______ _______ _______ _____ _____    ______ ____
ROOT
ATOM      1  C   UNL     1       0.767  10.065  20.551  0.00  0.00    +0.000 A 
ATOM      2  C   UNL     1       1.106  10.662  21.797  0.00  0.00    +0.000 A 
ATOM      3  N   UNL     1       0.366  11.745  22.094  0.00  0.00    +0.000 NA
ATOM      4  N   UNL     1      -0.476  11.817  21.036  0.00  0.00    +0.000 N 
ATOM      5  C   UNL     1      -1.536  12.738  20.916  0.00  0.00    +0.000 A 
ATOM      6  N   UNL     1      -1.710  13.734  21.876  0.00  0.00    +0.000 N 
ATOM      7  N   UNL     1      -2.336  12.615  19.888  0.00  0.00    +0.000 NA
ATOM      8  C   UNL     1      -2.073  11.649  18.944  0.00  0.00    +0.000 A 
ATOM      9  N   UNL     1      -2.937  11.641  17.891  0.00  0.00    +0.000 N 
ATOM     10  N   UNL     1      -1.082  10.805  19.000  0.00  0.00    +0.000 NA
ATOM     11  C   UNL     1      -0.279  10.847  20.093  0.00  0.00    +0.000 A 
ATOM     12  H   UNL     1      -1.074  13.663  22.667  0.00  0.00    +0.000 HD
ATOM     13  H   UNL     1      -3.673  12.327  17.964  0.00  0.00    +0.000 HD
ENDROOT
BRANCH   1  17
ATOM     14  C   UNL     1       2.157   5.298  20.815  0.00  0.00    +0.000 C 
ATOM     15  C   UNL     1       1.997   6.513  19.941  0.00  0.00    +0.000 A 
ATOM     16  C   UNL     1       1.430   7.662  20.537  0.00  0.00    +0.000 A 
ATOM     17  C   UNL     1       1.295   8.888  19.860  0.00  0.00    +0.000 A 
ATOM     18  C   UNL     1       1.716   8.942  18.532  0.00  0.00    +0.000 A 
ATOM     19  C   UNL     1       2.271   7.807  17.912  0.00  0.00    +0.000 A 
ATOM     20  C   UNL     1       2.415   6.583  18.598  0.00  0.00    +0.000 A 
BRANCH  20  21
ATOM     21  C   UNL     1       3.096   5.478  17.839  0.00  0.00    +0.000 C 
ATOM     22  O   UNL     1       2.443   4.498  17.493  0.00  0.00    +0.000 OA
ATOM     23  N   UNL     1       4.455   5.592  17.602  0.00  0.00    +0.000 N 
ATOM     24  H   UNL     1       4.983   6.307  18.078  0.00  0.00    +0.000 HD
BRANCH  23  25
ATOM     25  C   UNL     1       5.186   4.592  16.878  0.00  0.00    +0.000 C 
ATOM     26  C   UNL     1       5.469   4.772  15.411  0.00  0.00    +0.000 C 
ATOM     27  C   UNL     1       6.593   4.838  16.401  0.00  0.00    +0.000 C 
ENDBRANCH  23  25
ENDBRANCH  20  21
ENDBRANCH   1  17
BRANCH   9  28
ATOM     28  C   UNL     1      -2.570  11.173  16.575  0.00  0.00    +0.000 C 
ATOM     29  C   UNL     1      -2.376   9.664  16.564  0.00  0.00    +0.000 C 
ATOM     30  C   UNL     1      -2.589   9.271  15.110  0.00  0.00    +0.000 C 
ATOM     31  C   UNL     1      -3.551  10.304  14.530  0.00  0.00    +0.000 C 
ATOM     32  C   UNL     1      -3.708  11.396  15.583  0.00  0.00    +0.000 C 
ENDBRANCH   9  28
BRANCH   6  33
ATOM     33  C   UNL     1      -3.035  14.293  22.113  0.00  0.00    +0.000 C 
BRANCH  33  34
ATOM     34  C   UNL     1      -4.054  13.268  22.637  0.00  0.00    +0.000 C 
ATOM     35  C   UNL     1      -5.503  13.637  22.285  0.00  0.00    +0.000 C 
ATOM     36  C   UNL     1      -6.490  12.703  22.978  0.00  0.00    +0.000 C 
ATOM     37  O   UNL     1      -6.297  12.724  24.390  0.00  0.00    +0.000 OA
ATOM     38  C   UNL     1      -5.004  12.252  24.759  0.00  0.00    +0.000 C 
ATOM     39  C   UNL     1      -3.923  13.149  24.170  0.00  0.00    +0.000 C 
ENDBRANCH  33  34
ENDBRANCH   6  33
TORSDOF 6
ENDMDL
MODEL 2
REMARK VINA RESULT:      -8.6      1.697      2.127
REMARK  Name = 
REMARK  7 active torsions:
REMARK  status: ('A' for Active; 'I' for Inactive)
REMARK    1  A    between atoms: C_1  and  C_2
REMARK    2  A    between atoms: C_4  and  C_5
REMARK    3  A    between atoms: N_10  and  C_11
REMARK    4  A    between atoms: C_11  and  C_12
REMARK    5  A    between atoms: N_20  and  C_21
REMARK    6  A    between atoms: C_30  and  C_31
REMARK    7  A    between atoms: N_33  and  C_34
REMARK                            x       y       z     vdW  Elec       q    Type
REMARK                         _______ _______ _______ _____ _____    ______ ____
ROOT
ATOM      1  C   UNL     1       1.090   8.906  21.084  0.00  0.00    +0.000 A 
ATOM      2  C   UNL     1       1.440   9.257  22.417  0.00  0.00    +0.000 A 
ATOM      3  N   UNL     1       0.745  10.303  22.899  0.00  0.00    +0.000 NA
ATOM      4  N   UNL     1      -0.080  10.600  21.867  0.00  0.00    +0.000 N 
ATOM      5  C   UNL     1      -1.095  11.575  21.908  0.00  0.00    +0.000 A 
ATOM      6  N   UNL     1      -1.237  12.392  23.028  0.00  0.00    +0.000 N 
ATOM      7  N   UNL     1      -1.887  11.673  20.871  0.00  0.00    +0.000 NA
ATOM      8  C   UNL     1      -1.656  10.879  19.771  0.00  0.00    +0.000 A 
ATOM      9  N   UNL     1      -2.507  11.098  18.730  0.00  0.00    +0.000 N 
ATOM     10  N   UNL     1      -0.705   9.994  19.681  0.00  0.00    +0.000 NA
ATOM     11  C   UNL     1       0.086   9.804  20.768  0.00  0.00    +0.000 A 
ATOM     12  H   UNL     1      -0.614  12.153  23.797  0.00  0.00    +0.000 HD
ATOM     13  H   UNL     1      -3.213  11.794  18.921  0.00  0.00    +0.000 HD
ENDROOT
BRANCH   1  17
ATOM     14  C   UNL     1       2.162   4.090  20.471  0.00  0.00    +0.000 C 
ATOM     15  C   UNL     1       2.120   5.456  19.842  0.00  0.00    +0.000 A 
ATOM     16  C   UNL     1       1.600   6.508  20.629  0.00  0.00    +0.000 A 
ATOM     17  C   UNL     1       1.574   7.847  20.197  0.00  0.00    +0.000 A 
ATOM     18  C   UNL     1       2.058   8.122  18.918  0.00  0.00    +0.000 A 
ATOM     19  C   UNL     1       2.567   7.089  18.110  0.00  0.00    +0.000 A 
ATOM     20  C   UNL     1       2.602   5.751  18.552  0.00  0.00    +0.000 A 
BRANCH  20  21
ATOM     21  C   UNL     1       3.246   4.764  17.617  0.00  0.00    +0.000 C 
ATOM     22  O   UNL     1       2.585   3.819  17.196  0.00  0.00    +0.000 OA
ATOM     23  N   UNL     1       4.583   4.938  17.307  0.00  0.00    +0.000 N 
ATOM     24  H   UNL     1       5.132   5.601  17.832  0.00  0.00    +0.000 HD
BRANCH  23  25
ATOM     25  C   UNL     1       5.277   4.053  16.417  0.00  0.00    +0.000 C 
ATOM     26  C   UNL     1       5.489   4.436  14.977  0.00  0.00    +0.000 C 
ATOM     27  C   UNL     1       6.660   4.372  15.910  0.00  0.00    +0.000 C 
ENDBRANCH  23  25
ENDBRANCH  20  21
ENDBRANCH   1  17
BRANCH   9  28
ATOM     28  C   UNL     1      -2.145  10.855  17.353  0.00  0.00    +0.000 C 
ATOM     29  C   UNL     1      -2.472   9.426  16.945  0.00  0.00    +0.000 C 
ATOM     30  C   UNL     1      -2.607   9.493  15.431  0.00  0.00    +0.000 C 
ATOM     31  C   UNL     1      -3.075  10.909  15.111  0.00  0.00    +0.000 C 
ATOM     32  C   UNL     1      -2.995  11.702  16.411  0.00  0.00    +0.000 C 
ENDBRANCH   9  28
BRANCH   6  33
ATOM     33  C   UNL     1      -2.538  12.961  23.356  0.00  0.00    +0.000 C 
BRANCH  33  34
ATOM     34  C   UNL     1      -2.511  14.485  23.568  0.00  0.00    +0.000 C 
ATOM     35  C   UNL     1      -1.361  14.937  24.480  0.00  0.00    +0.000 C 
ATOM     36  C   UNL     1      -1.479  16.420  24.816  0.00  0.00    +0.000 C 
ATOM     37  O   UNL     1      -2.739  16.701  25.421  0.00  0.00    +0.000 OA
ATOM     38  C   UNL     1      -3.826  16.422  24.544  0.00  0.00    +0.000 C 
ATOM     39  C   UNL     1      -3.850  14.943  24.181  0.00  0.00    +0.000 C 
ENDBRANCH  33  34
ENDBRANCH   6  33
TORSDOF 6
ENDMDL
MODEL 3
REMARK VINA RESULT:      -8.6      1.186      1.533
REMARK  Name = 
REMARK  7 active torsions:
REMARK  status: ('A' for Active; 'I' for Inactive)
REMARK    1  A    between atoms: C_1  and  C_2
REMARK    2  A    between atoms: C_4  and  C_5
REMARK    3  A    between atoms: N_10  and  C_11
REMARK    4  A    between atoms: C_11  and  C_12
REMARK    5  A    between atoms: N_20  and  C_21
REMARK    6  A    between atoms: C_30  and  C_31
REMARK    7  A    between atoms: N_33  and  C_34
REMARK                            x       y       z     vdW  Elec       q    Type
REMARK                         _______ _______ _______ _____ _____    ______ ____
ROOT
ATOM      1  C   UNL     1       0.445  10.504  20.536  0.00  0.00    +0.000 A 
ATOM      2  C   UNL     1       0.715  11.159  21.770  0.00  0.00    +0.000 A 
ATOM      3  N   UNL     1      -0.082  12.217  22.004  0.00  0.00    +0.000 NA
ATOM      4  N   UNL     1      -0.891  12.213  20.918  0.00  0.00    +0.000 N 
ATOM      5  C   UNL     1      -1.985  13.081  20.731  0.00  0.00    +0.000 A 
ATOM      6  N   UNL     1      -2.235  14.100  21.648  0.00  0.00    +0.000 N 
ATOM      7  N   UNL     1      -2.744  12.886  19.684  0.00  0.00    +0.000 NA
ATOM      8  C   UNL     1      -2.408  11.901  18.784  0.00  0.00    +0.000 A 
ATOM      9  N   UNL     1      -3.236  11.817  17.705  0.00  0.00    +0.000 N 
ATOM     10  N   UNL     1      -1.383  11.105  18.902  0.00  0.00    +0.000 NA
ATOM     11  C   UNL     1      -0.620  11.221  20.018  0.00  0.00    +0.000 A 
ATOM     12  H   UNL     1      -1.623  14.086  22.461  0.00  0.00    +0.000 HD
ATOM     13  H   UNL     1      -4.004  12.471  17.730  0.00  0.00    +0.000 HD
ENDROOT
BRANCH   1  17
ATOM     14  C   UNL     1       1.995   5.803  21.006  0.00  0.00    +0.000 C 
ATOM     15  C   UNL     1       1.831   6.986  20.089  0.00  0.00    +0.000 A 
ATOM     16  C   UNL     1       1.195   8.128  20.624  0.00  0.00    +0.000 A 
ATOM     17  C   UNL     1       1.047   9.329  19.905  0.00  0.00    +0.000 A 
ATOM     18  C   UNL     1       1.526   9.361  18.596  0.00  0.00    +0.000 A 
ATOM     19  C   UNL     1       2.150   8.231  18.037  0.00  0.00    +0.000 A 
ATOM     20  C   UNL     1       2.307   7.034  18.765  0.00  0.00    +0.000 A 
BRANCH  20  21
ATOM     21  C   UNL     1       3.063   5.935  18.071  0.00  0.00    +0.000 C 
ATOM     22  O   UNL     1       4.223   6.134  17.721  0.00  0.00    +0.000 OA
ATOM     23  N   UNL     1       2.398   4.750  17.810  0.00  0.00    +0.000 N 
ATOM     24  H   UNL     1       1.397   4.706  17.930  0.00  0.00    +0.000 HD
BRANCH  23  25
ATOM     25  C   UNL     1       3.041   3.643  17.163  0.00  0.00    +0.000 C 
ATOM     26  C   UNL     1       3.978   2.753  17.933  0.00  0.00    +0.000 C 
ATOM     27  C   UNL     1       2.656   2.220  17.469  0.00  0.00    +0.000 C 
ENDBRANCH  23  25
ENDBRANCH  20  21
ENDBRANCH   1  17
BRANCH   9  28
ATOM     28  C   UNL     1      -2.805  11.321  16.419  0.00  0.00    +0.000 C 
ATOM     29  C   UNL     1      -2.376   9.864  16.510  0.00  0.00    +0.000 C 
ATOM     30  C   UNL     1      -2.531   9.341  15.089  0.00  0.00    +0.000 C 
ATOM     31  C   UNL     1      -3.645  10.167  14.454  0.00  0.00    +0.000 C 
ATOM     32  C   UNL     1      -3.968  11.292  15.431  0.00  0.00    +0.000 C 
ENDBRANCH   9  28
BRANCH   6  33
ATOM     33  C   UNL     1      -3.591  14.607  21.823  0.00  0.00    +0.000 C 
BRANCH  33  34
ATOM     34  C   UNL     1      -4.287  14.086  23.091  0.00  0.00    +0.000 C 
ATOM     35  C   UNL     1      -3.525  12.930  23.755  0.00  0.00    +0.000 C 
ATOM     36  C   UNL     1      -4.337  12.321  24.894  0.00  0.00    +0.000 C 
ATOM     37  O   UNL     1      -5.608  11.879  24.426  0.00  0.00    +0.000 OA
ATOM     38  C   UNL     1      -6.398  12.956  23.930  0.00  0.00    +0.000 C 
ATOM     39  C   UNL     1      -5.712  13.612  22.738  0.00  0.00    +0.000 C 
ENDBRANCH  33  34
ENDBRANCH   6  33
TORSDOF 6
ENDMDL
MODEL 4
REMARK VINA RESULT:      -8.5      2.740      3.722
REMARK  Name = 
REMARK  7 active torsions:
REMARK  status: ('A' for Active; 'I' for Inactive)
REMARK    1  A    between atoms: C_1  and  C_2
REMARK    2  A    between atoms: C_4  and  C_5
REMARK    3  A    between atoms: N_10  and  C_11
REMARK    4  A    between atoms: C_11  and  C_12
REMARK    5  A    between atoms: N_20  and  C_21
REMARK    6  A    between atoms: C_30  and  C_31
REMARK    7  A    between atoms: N_33  and  C_34
REMARK                            x       y       z     vdW  Elec       q    Type
REMARK                         _______ _______ _______ _____ _____    ______ ____
ROOT
ATOM      1  C   UNL     1       0.368   9.446  21.440  0.00  0.00    +0.000 A 
ATOM      2  C   UNL     1      -0.548   9.172  22.493  0.00  0.00    +0.000 A 
ATOM      3  N   UNL     1      -1.038  10.278  23.080  0.00  0.00    +0.000 NA
ATOM      4  N   UNL     1      -0.450  11.268  22.368  0.00  0.00    +0.000 N 
ATOM      5  C   UNL     1      -0.719  12.641  22.529  0.00  0.00    +0.000 A 
ATOM      6  N   UNL     1      -1.566  13.073  23.549  0.00  0.00    +0.000 N 
ATOM      7  N   UNL     1      -0.156  13.474  21.692  0.00  0.00    +0.000 NA
ATOM      8  C   UNL     1       0.718  12.989  20.747  0.00  0.00    +0.000 A 
ATOM      9  N   UNL     1       1.285  13.946  19.961  0.00  0.00    +0.000 N 
ATOM     10  N   UNL     1       1.022  11.732  20.592  0.00  0.00    +0.000 NA
ATOM     11  C   UNL     1       0.394  10.828  21.386  0.00  0.00    +0.000 A 
ATOM     12  H   UNL     1      -2.005  12.318  24.071  0.00  0.00    +0.000 HD
ATOM     13  H   UNL     1       0.962  14.881  20.161  0.00  0.00    +0.000 HD
ENDROOT
BRANCH   1  17
ATOM     14  C   UNL     1       2.474   5.003  20.698  0.00  0.00    +0.000 C 
ATOM     15  C   UNL     1       2.173   6.361  20.124  0.00  0.00    +0.000 A 
ATOM     16  C   UNL     1       1.401   7.237  20.920  0.00  0.00    +0.000 A 
ATOM     17  C   UNL     1       1.111   8.561  20.542  0.00  0.00    +0.000 A 
ATOM     18  C   UNL     1       1.591   8.999  19.308  0.00  0.00    +0.000 A 
ATOM     19  C   UNL     1       2.350   8.141  18.491  0.00  0.00    +0.000 A 
ATOM     20  C   UNL     1       2.647   6.818  18.879  0.00  0.00    +0.000 A 
BRANCH  20  21
ATOM     21  C   UNL     1       3.534   6.041  17.947  0.00  0.00    +0.000 C 
ATOM     22  O   UNL     1       3.083   5.049  17.380  0.00  0.00    +0.000 OA
ATOM     23  N   UNL     1       4.847   6.452  17.802  0.00  0.00    +0.000 N 
ATOM     24  H   UNL     1       5.225   7.139  18.437  0.00  0.00    +0.000 HD
BRANCH  23  25
ATOM     25  C   UNL     1       5.763   5.777  16.927  0.00  0.00    +0.000 C 
ATOM     26  C   UNL     1       7.211   6.186  16.882  0.00  0.00    +0.000 C 
ATOM     27  C   UNL     1       6.829   4.857  17.462  0.00  0.00    +0.000 C 
ENDBRANCH  23  25
ENDBRANCH  20  21
ENDBRANCH   1  17
BRANCH   9  28
ATOM     28  C   UNL     1       2.583  13.792  19.345  0.00  0.00    +0.000 C 
ATOM     29  C   UNL     1       2.673  14.588  18.052  0.00  0.00    +0.000 C 
ATOM     30  C   UNL     1       4.165  14.815  17.858  0.00  0.00    +0.000 C 
ATOM     31  C   UNL     1       4.775  14.832  19.256  0.00  0.00    +0.000 C 
ATOM     32  C   UNL     1       3.675  14.401  20.219  0.00  0.00    +0.000 C 
ENDBRANCH   9  28
BRANCH   6  33
ATOM     33  C   UNL     1      -2.303  14.322  23.403  0.00  0.00    +0.000 C 
BRANCH  33  34
ATOM     34  C   UNL     1      -3.829  14.136  23.341  0.00  0.00    +0.000 C 
ATOM     35  C   UNL     1      -4.332  13.035  24.286  0.00  0.00    +0.000 C 
ATOM     36  C   UNL     1      -5.814  12.753  24.060  0.00  0.00    +0.000 C 
ATOM     37  O   UNL     1      -6.057  12.396  22.702  0.00  0.00    +0.000 OA
ATOM     38  C   UNL     1      -5.730  13.454  21.805  0.00  0.00    +0.000 C 
ATOM     39  C   UNL     1      -4.247  13.788  21.897  0.00  0.00    +0.000 C 
ENDBRANCH  33  34
ENDBRANCH   6  33
TORSDOF 6
ENDMDL
MODEL 5
REMARK VINA RESULT:      -8.3      1.726      2.413
REMARK  Name = 
REMARK  7 active torsions:
REMARK  status: ('A' for Active; 'I' for Inactive)
REMARK    1  A    between atoms: C_1  and  C_2
REMARK    2  A    between atoms: C_4  and  C_5
REMARK    3  A    between atoms: N_10  and  C_11
REMARK    4  A    between atoms: C_11  and  C_12
REMARK    5  A    between atoms: N_20  and  C_21
REMARK    6  A    between atoms: C_30  and  C_31
REMARK    7  A    between atoms: N_33  and  C_34
REMARK                            x       y       z     vdW  Elec       q    Type
REMARK                         _______ _______ _______ _____ _____    ______ ____
ROOT
ATOM      1  C   UNL     1      -0.393  10.855  21.351  0.00  0.00    +0.000 A 
ATOM      2  C   UNL     1      -0.423  11.563  22.584  0.00  0.00    +0.000 A 
ATOM      3  N   UNL     1      -1.349  12.538  22.623  0.00  0.00    +0.000 NA
ATOM      4  N   UNL     1      -1.936  12.425  21.408  0.00  0.00    +0.000 N 
ATOM      5  C   UNL     1      -3.056  13.170  20.987  0.00  0.00    +0.000 A 
ATOM      6  N   UNL     1      -3.570  14.179  21.799  0.00  0.00    +0.000 N 
ATOM      7  N   UNL     1      -3.583  12.873  19.828  0.00  0.00    +0.000 NA
ATOM      8  C   UNL     1      -2.990  11.907  19.047  0.00  0.00    +0.000 A 
ATOM      9  N   UNL     1      -3.589  11.713  17.839  0.00  0.00    +0.000 N 
ATOM     10  N   UNL     1      -1.933  11.225  19.385  0.00  0.00    +0.000 NA
ATOM     11  C   UNL     1      -1.406  11.446  20.616  0.00  0.00    +0.000 A 
ATOM     12  H   UNL     1      -3.123  14.247  22.710  0.00  0.00    +0.000 HD
ATOM     13  H   UNL     1      -4.408  12.284  17.695  0.00  0.00    +0.000 HD
ENDROOT
BRANCH   1  17
ATOM     14  C   UNL     1       2.153   8.745  17.637  0.00  0.00    +0.000 C 
ATOM     15  C   UNL     1       1.711   8.645  19.072  0.00  0.00    +0.000 A 
ATOM     16  C   UNL     1       0.970   9.730  19.592  0.00  0.00    +0.000 A 
ATOM     17  C   UNL     1       0.428   9.734  20.891  0.00  0.00    +0.000 A 
ATOM     18  C   UNL     1       0.671   8.622  21.696  0.00  0.00    +0.000 A 
ATOM     19  C   UNL     1       1.418   7.535  21.205  0.00  0.00    +0.000 A 
ATOM     20  C   UNL     1       1.950   7.530  19.899  0.00  0.00    +0.000 A 
BRANCH  20  21
ATOM     21  C   UNL     1       2.658   6.272  19.480  0.00  0.00    +0.000 C 
ATOM     22  O   UNL     1       3.886   6.249  19.473  0.00  0.00    +0.000 OA
ATOM     23  N   UNL     1       1.889   5.197  19.070  0.00  0.00    +0.000 N 
ATOM     24  H   UNL     1       0.904   5.329  18.898  0.00  0.00    +0.000 HD
BRANCH  23  25
ATOM     25  C   UNL     1       2.477   3.953  18.663  0.00  0.00    +0.000 C 
ATOM     26  C   UNL     1       1.622   2.724  18.508  0.00  0.00    +0.000 C 
ATOM     27  C   UNL     1       2.222   3.372  17.297  0.00  0.00    +0.000 C 
ENDBRANCH  23  25
ENDBRANCH  20  21
ENDBRANCH   1  17
BRANCH   9  28
ATOM     28  C   UNL     1      -2.880  11.234  16.676  0.00  0.00    +0.000 C 
ATOM     29  C   UNL     1      -2.566   9.751  16.798  0.00  0.00    +0.000 C 
ATOM     30  C   UNL     1      -2.391   9.287  15.359  0.00  0.00    +0.000 C 
ATOM     31  C   UNL     1      -3.265  10.205  14.510  0.00  0.00    +0.000 C 
ATOM     32  C   UNL     1      -3.760  11.314  15.432  0.00  0.00    +0.000 C 
ENDBRANCH   9  28
BRANCH   6  33
ATOM     33  C   UNL     1      -4.978  14.547  21.700  0.00  0.00    +0.000 C 
BRANCH  33  34
ATOM     34  C   UNL     1      -5.847  13.977  22.834  0.00  0.00    +0.000 C 
ATOM     35  C   UNL     1      -5.092  12.966  23.710  0.00  0.00    +0.000 C 
ATOM     36  C   UNL     1      -6.035  12.288  24.699  0.00  0.00    +0.000 C 
ATOM     37  O   UNL     1      -7.110  11.651  24.014  0.00  0.00    +0.000 OA
ATOM     38  C   UNL     1      -7.916  12.585  23.302  0.00  0.00    +0.000 C 
ATOM     39  C   UNL     1      -7.091  13.291  22.233  0.00  0.00    +0.000 C 
ENDBRANCH  33  34
ENDBRANCH   6  33
TORSDOF 6
ENDMDL
MODEL 6
REMARK VINA RESULT:      -8.2      2.705      3.842
REMARK  Name = 
REMARK  7 active torsions:
REMARK  status: ('A' for Active; 'I' for Inactive)
REMARK    1  A    between atoms: C_1  and  C_2
REMARK    2  A    between atoms: C_4  and  C_5
REMARK    3  A    between atoms: N_10  and  C_11
REMARK    4  A    between atoms: C_11  and  C_12
REMARK    5  A    between atoms: N_20  and  C_21
REMARK    6  A    between atoms: C_30  and  C_31
REMARK    7  A    between atoms: N_33  and  C_34
REMARK                            x       y       z     vdW  Elec       q    Type
REMARK                         _______ _______ _______ _____ _____    ______ ____
ROOT
ATOM      1  C   UNL     1       0.329   9.374  21.660  0.00  0.00    +0.000 A 
ATOM      2  C   UNL     1      -0.617   9.106  22.689  0.00  0.00    +0.000 A 
ATOM      3  N   UNL     1      -1.149  10.215  23.233  0.00  0.00    +0.000 NA
ATOM      4  N   UNL     1      -0.556  11.199  22.518  0.00  0.00    +0.000 N 
ATOM      5  C   UNL     1      -0.858  12.570  22.638  0.00  0.00    +0.000 A 
ATOM      6  N   UNL     1      -1.747  13.008  23.618  0.00  0.00    +0.000 N 
ATOM      7  N   UNL     1      -0.283  13.395  21.801  0.00  0.00    +0.000 NA
ATOM      8  C   UNL     1       0.632  12.907  20.897  0.00  0.00    +0.000 A 
ATOM      9  N   UNL     1       1.208  13.857  20.109  0.00  0.00    +0.000 N 
ATOM     10  N   UNL     1       0.966  11.653  20.782  0.00  0.00    +0.000 NA
ATOM     11  C   UNL     1       0.329  10.755  21.576  0.00  0.00    +0.000 A 
ATOM     12  H   UNL     1      -2.189  12.256  24.142  0.00  0.00    +0.000 HD
ATOM     13  H   UNL     1       0.859  14.789  20.275  0.00  0.00    +0.000 HD
ENDROOT
BRANCH   1  17
ATOM     14  C   UNL     1       2.574   8.631  17.287  0.00  0.00    +0.000 C 
ATOM     15  C   UNL     1       2.255   8.068  18.646  0.00  0.00    +0.000 A 
ATOM     16  C   UNL     1       1.550   8.907  19.537  0.00  0.00    +0.000 A 
ATOM     17  C   UNL     1       1.119   8.484  20.809  0.00  0.00    +0.000 A 
ATOM     18  C   UNL     1       1.441   7.185  21.200  0.00  0.00    +0.000 A 
ATOM     19  C   UNL     1       2.155   6.335  20.334  0.00  0.00    +0.000 A 
ATOM     20  C   UNL     1       2.575   6.760  19.057  0.00  0.00    +0.000 A 
BRANCH  20  21
ATOM     21  C   UNL     1       3.257   5.723  18.209  0.00  0.00    +0.000 C 
ATOM     22  O   UNL     1       2.606   4.771  17.787  0.00  0.00    +0.000 OA
ATOM     23  N   UNL     1       4.614   5.861  17.977  0.00  0.00    +0.000 N 
ATOM     24  H   UNL     1       5.142   6.538  18.507  0.00  0.00    +0.000 HD
BRANCH  23  25
ATOM     25  C   UNL     1       5.346   4.926  17.172  0.00  0.00    +0.000 C 
ATOM     26  C   UNL     1       5.582   5.204  15.711  0.00  0.00    +0.000 C 
ATOM     27  C   UNL     1       6.733   5.236  16.671  0.00  0.00    +0.000 C 
ENDBRANCH  23  25
ENDBRANCH  20  21
ENDBRANCH   1  17
BRANCH   9  28
ATOM     28  C   UNL     1       2.528  13.715  19.541  0.00  0.00    +0.000 C 
ATOM     29  C   UNL     1       2.599  14.345  18.158  0.00  0.00    +0.000 C 
ATOM     30  C   UNL     1       4.078  14.648  17.962  0.00  0.00    +0.000 C 
ATOM     31  C   UNL     1       4.649  14.884  19.357  0.00  0.00    +0.000 C 
ATOM     32  C   UNL     1       3.554  14.504  20.348  0.00  0.00    +0.000 C 
ENDBRANCH   9  28
BRANCH   6  33
ATOM     33  C   UNL     1      -2.503  14.238  23.418  0.00  0.00    +0.000 C 
BRANCH  33  34
ATOM     34  C   UNL     1      -4.027  14.032  23.405  0.00  0.00    +0.000 C 
ATOM     35  C   UNL     1      -4.486  12.934  24.376  0.00  0.00    +0.000 C 
ATOM     36  C   UNL     1      -5.971  12.631  24.198  0.00  0.00    +0.000 C 
ATOM     37  O   UNL     1      -6.250  12.257  22.852  0.00  0.00    +0.000 OA
ATOM     38  C   UNL     1      -5.965  13.309  21.935  0.00  0.00    +0.000 C 
ATOM     39  C   UNL     1      -4.484  13.664  21.978  0.00  0.00    +0.000 C 
ENDBRANCH  33  34
ENDBRANCH   6  33
TORSDOF 6
ENDMDL
MODEL 7
REMARK VINA RESULT:      -8.2      1.404      1.770
REMARK  Name = 
REMARK  7 active torsions:
REMARK  status: ('A' for Active; 'I' for Inactive)
REMARK    1  A    between atoms: C_1  and  C_2
REMARK    2  A    between atoms: C_4  and  C_5
REMARK    3  A    between atoms: N_10  and  C_11
REMARK    4  A    between atoms: C_11  and  C_12
REMARK    5  A    between atoms: N_20  and  C_21
REMARK    6  A    between atoms: C_30  and  C_31
REMARK    7  A    between atoms: N_33  and  C_34
REMARK                            x       y       z     vdW  Elec       q    Type
REMARK                         _______ _______ _______ _____ _____    ______ ____
ROOT
ATOM      1  C   UNL     1       0.568  10.093  20.750  0.00  0.00    +0.000 A 
ATOM      2  C   UNL     1       0.846  10.625  22.040  0.00  0.00    +0.000 A 
ATOM      3  N   UNL     1       0.040  11.645  22.386  0.00  0.00    +0.000 NA
ATOM      4  N   UNL     1      -0.781  11.740  21.314  0.00  0.00    +0.000 N 
ATOM      5  C   UNL     1      -1.887  12.608  21.226  0.00  0.00    +0.000 A 
ATOM      6  N   UNL     1      -2.137  13.529  22.242  0.00  0.00    +0.000 N 
ATOM      7  N   UNL     1      -2.656  12.509  20.173  0.00  0.00    +0.000 NA
ATOM      8  C   UNL     1      -2.320  11.622  19.176  0.00  0.00    +0.000 A 
ATOM      9  N   UNL     1      -3.160  11.636  18.104  0.00  0.00    +0.000 N 
ATOM     10  N   UNL     1      -1.286  10.831  19.204  0.00  0.00    +0.000 NA
ATOM     11  C   UNL     1      -0.511  10.845  20.317  0.00  0.00    +0.000 A 
ATOM     12  H   UNL     1      -1.515  13.441  23.043  0.00  0.00    +0.000 HD
ATOM     13  H   UNL     1      -3.934  12.275  18.201  0.00  0.00    +0.000 HD
ENDROOT
BRANCH   1  17
ATOM     14  C   UNL     1       2.248   5.413  20.756  0.00  0.00    +0.000 C 
ATOM     15  C   UNL     1       2.022   6.665  19.951  0.00  0.00    +0.000 A 
ATOM     16  C   UNL     1       1.379   7.739  20.606  0.00  0.00    +0.000 A 
ATOM     17  C   UNL     1       1.174   8.993  19.999  0.00  0.00    +0.000 A 
ATOM     18  C   UNL     1       1.605   9.151  18.682  0.00  0.00    +0.000 A 
ATOM     19  C   UNL     1       2.235   8.090  18.006  0.00  0.00    +0.000 A 
ATOM     20  C   UNL     1       2.448   6.839  18.621  0.00  0.00    +0.000 A 
BRANCH  20  21
ATOM     21  C   UNL     1       3.204   5.825  17.809  0.00  0.00    +0.000 C 
ATOM     22  O   UNL     1       2.665   4.757  17.533  0.00  0.00    +0.000 OA
ATOM     23  N   UNL     1       4.506   6.121  17.444  0.00  0.00    +0.000 N 
ATOM     24  H   UNL     1       4.971   6.913  17.863  0.00  0.00    +0.000 HD
BRANCH  23  25
ATOM     25  C   UNL     1       5.300   5.219  16.661  0.00  0.00    +0.000 C 
ATOM     26  C   UNL     1       5.583   5.517  15.213  0.00  0.00    +0.000 C 
ATOM     27  C   UNL     1       6.694   5.579  16.218  0.00  0.00    +0.000 C 
ENDBRANCH  23  25
ENDBRANCH  20  21
ENDBRANCH   1  17
BRANCH   9  28
ATOM     28  C   UNL     1      -2.739  11.275  16.770  0.00  0.00    +0.000 C 
ATOM     29  C   UNL     1      -2.346   9.807  16.698  0.00  0.00    +0.000 C 
ATOM     30  C   UNL     1      -2.511   9.449  15.229  0.00  0.00    +0.000 C 
ATOM     31  C   UNL     1      -3.604  10.367  14.690  0.00  0.00    +0.000 C 
ATOM     32  C   UNL     1      -3.901  11.384  15.786  0.00  0.00    +0.000 C 
ENDBRANCH   9  28
BRANCH   6  33
ATOM     33  C   UNL     1      -3.495  14.000  22.481  0.00  0.00    +0.000 C 
BRANCH  33  34
ATOM     34  C   UNL     1      -3.561  15.385  23.147  0.00  0.00    +0.000 C 
ATOM     35  C   UNL     1      -3.116  15.360  24.617  0.00  0.00    +0.000 C 
ATOM     36  C   UNL     1      -3.372  16.704  25.290  0.00  0.00    +0.000 C 
ATOM     37  O   UNL     1      -4.748  17.063  25.191  0.00  0.00    +0.000 OA
ATOM     38  C   UNL     1      -5.158  17.232  23.837  0.00  0.00    +0.000 C 
ATOM     39  C   UNL     1      -5.004  15.926  23.068  0.00  0.00    +0.000 C 
ENDBRANCH  33  34
ENDBRANCH   6  33
TORSDOF 6
ENDMDL
MODEL 8
REMARK VINA RESULT:      -8.2      2.258      9.720
REMARK  Name = 
REMARK  7 active torsions:
REMARK  status: ('A' for Active; 'I' for Inactive)
REMARK    1  A    between atoms: C_1  and  C_2
REMARK    2  A    between atoms: C_4  and  C_5
REMARK    3  A    between atoms: N_10  and  C_11
REMARK    4  A    between atoms: C_11  and  C_12
REMARK    5  A    between atoms: N_20  and  C_21
REMARK    6  A    between atoms: C_30  and  C_31
REMARK    7  A    between atoms: N_33  and  C_34
REMARK                            x       y       z     vdW  Elec       q    Type
REMARK                         _______ _______ _______ _____ _____    ______ ____
ROOT
ATOM      1  C   UNL     1      -0.107  10.611  22.119  0.00  0.00    +0.000 A 
ATOM      2  C   UNL     1       0.833   9.759  22.763  0.00  0.00    +0.000 A 
ATOM      3  N   UNL     1       1.420   8.880  21.932  0.00  0.00    +0.000 NA
ATOM      4  N   UNL     1       0.868   9.199  20.738  0.00  0.00    +0.000 N 
ATOM      5  C   UNL     1       1.234   8.623  19.506  0.00  0.00    +0.000 A 
ATOM      6  N   UNL     1       2.150   7.572  19.469  0.00  0.00    +0.000 N 
ATOM      7  N   UNL     1       0.693   9.112  18.420  0.00  0.00    +0.000 NA
ATOM      8  C   UNL     1      -0.251  10.108  18.529  0.00  0.00    +0.000 A 
ATOM      9  N   UNL     1      -0.787  10.508  17.343  0.00  0.00    +0.000 N 
ATOM     10  N   UNL     1      -0.643  10.639  19.652  0.00  0.00    +0.000 NA
ATOM     11  C   UNL     1      -0.043  10.216  20.794  0.00  0.00    +0.000 A 
ATOM     12  H   UNL     1       2.560   7.348  20.373  0.00  0.00    +0.000 HD
ATOM     13  H   UNL     1      -0.394  10.039  16.540  0.00  0.00    +0.000 HD
ENDROOT
BRANCH   1  17
ATOM     14  C   UNL     1      -0.629  15.484  22.955  0.00  0.00    +0.000 C 
ATOM     15  C   UNL     1      -1.252  14.118  23.062  0.00  0.00    +0.000 A 
ATOM     16  C   UNL     1      -0.518  13.036  22.527  0.00  0.00    +0.000 A 
ATOM     17  C   UNL     1      -0.944  11.698  22.627  0.00  0.00    +0.000 A 
ATOM     18  C   UNL     1      -2.163  11.455  23.258  0.00  0.00    +0.000 A 
ATOM     19  C   UNL     1      -2.919  12.518  23.786  0.00  0.00    +0.000 A 
ATOM     20  C   UNL     1      -2.483  13.856  23.693  0.00  0.00    +0.000 A 
BRANCH  20  21
ATOM     21  C   UNL     1      -3.350  14.880  24.371  0.00  0.00    +0.000 C 
ATOM     22  O   UNL     1      -3.209  15.083  25.573  0.00  0.00    +0.000 OA
ATOM     23  N   UNL     1      -4.313  15.523  23.613  0.00  0.00    +0.000 N 
ATOM     24  H   UNL     1      -4.528  15.180  22.689  0.00  0.00    +0.000 HD
BRANCH  23  25
ATOM     25  C   UNL     1      -5.178  16.522  24.172  0.00  0.00    +0.000 C 
ATOM     26  C   UNL     1      -5.621  17.695  23.339  0.00  0.00    +0.000 C 
ATOM     27  C   UNL     1      -6.616  16.647  23.741  0.00  0.00    +0.000 C 
ENDBRANCH  23  25
ENDBRANCH  20  21
ENDBRANCH   1  17
BRANCH   9  28
ATOM     28  C   UNL     1      -2.116  11.060  17.226  0.00  0.00    +0.000 C 
ATOM     29  C   UNL     1      -2.619  10.978  15.792  0.00  0.00    +0.000 C 
ATOM     30  C   UNL     1      -4.134  11.017  15.926  0.00  0.00    +0.000 C 
ATOM     31  C   UNL     1      -4.454  10.405  17.287  0.00  0.00    +0.000 C 
ATOM     32  C   UNL     1      -3.123  10.222  18.008  0.00  0.00    +0.000 C 
ENDBRANCH   9  28
BRANCH   6  33
ATOM     33  C   UNL     1       2.961   7.354  18.277  0.00  0.00    +0.000 C 
BRANCH  33  34
ATOM     34  C   UNL     1       3.321   5.878  18.036  0.00  0.00    +0.000 C 
ATOM     35  C   UNL     1       2.092   4.958  18.043  0.00  0.00    +0.000 C 
ATOM     36  C   UNL     1       2.505   3.491  17.988  0.00  0.00    +0.000 C 
ATOM     37  O   UNL     1       3.374   3.172  19.071  0.00  0.00    +0.000 OA
ATOM     38  C   UNL     1       4.591   3.912  19.015  0.00  0.00    +0.000 C 
ATOM     39  C   UNL     1       4.309   5.405  19.122  0.00  0.00    +0.000 C 
ENDBRANCH  33  34
ENDBRANCH   6  33
TORSDOF 6
ENDMDL
MODEL 9
REMARK VINA RESULT:      -8.2      2.116      9.738
REMARK  Name = 
REMARK  7 active torsions:
REMARK  status: ('A' for Active; 'I' for Inactive)
REMARK    1  A    between atoms: C_1  and  C_2
REMARK    2  A    between atoms: C_4  and  C_5
REMARK    3  A    between atoms: N_10  and  C_11
REMARK    4  A    between atoms: C_11  and  C_12
REMARK    5  A    between atoms: N_20  and  C_21
REMARK    6  A    between atoms: C_30  and  C_31
REMARK    7  A    between atoms: N_33  and  C_34
REMARK                            x       y       z     vdW  Elec       q    Type
REMARK                         _______ _______ _______ _____ _____    ______ ____
ROOT
ATOM      1  C   UNL     1      -0.375  10.783  22.298  0.00  0.00    +0.000 A 
ATOM      2  C   UNL     1       0.508   9.892  22.968  0.00  0.00    +0.000 A 
ATOM      3  N   UNL     1       1.104   9.008  22.148  0.00  0.00    +0.000 NA
ATOM      4  N   UNL     1       0.616   9.365  20.936  0.00  0.00    +0.000 N 
ATOM      5  C   UNL     1       1.019   8.797  19.711  0.00  0.00    +0.000 A 
ATOM      6  N   UNL     1       1.902   7.719  19.696  0.00  0.00    +0.000 N 
ATOM      7  N   UNL     1       0.541   9.321  18.612  0.00  0.00    +0.000 NA
ATOM      8  C   UNL     1      -0.375  10.344  18.697  0.00  0.00    +0.000 A 
ATOM      9  N   UNL     1      -0.845  10.781  17.496  0.00  0.00    +0.000 N 
ATOM     10  N   UNL     1      -0.800  10.869  19.811  0.00  0.00    +0.000 NA
ATOM     11  C   UNL     1      -0.265  10.409  20.970  0.00  0.00    +0.000 A 
ATOM     12  H   UNL     1       2.265   7.467  20.613  0.00  0.00    +0.000 HD
ATOM     13  H   UNL     1      -0.431  10.313  16.703  0.00  0.00    +0.000 HD
ENDROOT
BRANCH   1  17
ATOM     14  C   UNL     1      -4.597  12.236  24.487  0.00  0.00    +0.000 C 
ATOM     15  C   UNL     1      -3.288  12.661  23.878  0.00  0.00    +0.000 A 
ATOM     16  C   UNL     1      -2.419  11.634  23.446  0.00  0.00    +0.000 A 
ATOM     17  C   UNL     1      -1.200  11.888  22.789  0.00  0.00    +0.000 A 
ATOM     18  C   UNL     1      -0.838  13.220  22.594  0.00  0.00    +0.000 A 
ATOM     19  C   UNL     1      -1.680  14.260  23.029  0.00  0.00    +0.000 A 
ATOM     20  C   UNL     1      -2.905  14.001  23.677  0.00  0.00    +0.000 A 
BRANCH  20  21
ATOM     21  C   UNL     1      -3.741  15.204  24.014  0.00  0.00    +0.000 C 
ATOM     22  O   UNL     1      -3.639  15.710  25.128  0.00  0.00    +0.000 OA
ATOM     23  N   UNL     1      -4.632  15.667  23.063  0.00  0.00    +0.000 N 
ATOM     24  H   UNL     1      -4.827  15.102  22.249  0.00  0.00    +0.000 HD
BRANCH  23  25
ATOM     25  C   UNL     1      -5.462  16.814  23.293  0.00  0.00    +0.000 C 
ATOM     26  C   UNL     1      -6.325  17.361  22.187  0.00  0.00    +0.000 C 
ATOM     27  C   UNL     1      -6.962  16.697  23.371  0.00  0.00    +0.000 C 
ENDBRANCH  23  25
ENDBRANCH  20  21
ENDBRANCH   1  17
BRANCH   9  28
ATOM     28  C   UNL     1      -2.150  11.376  17.331  0.00  0.00    +0.000 C 
ATOM     29  C   UNL     1      -2.704  11.105  15.940  0.00  0.00    +0.000 C 
ATOM     30  C   UNL     1      -4.210  11.241  16.105  0.00  0.00    +0.000 C 
ATOM     31  C   UNL     1      -4.513  10.858  17.551  0.00  0.00    +0.000 C 
ATOM     32  C   UNL     1      -3.169  10.719  18.257  0.00  0.00    +0.000 C 
ENDBRANCH   9  28
BRANCH   6  33
ATOM     33  C   UNL     1       2.759   7.496  18.538  0.00  0.00    +0.000 C 
BRANCH  33  34
ATOM     34  C   UNL     1       2.689   6.062  17.984  0.00  0.00    +0.000 C 
ATOM     35  C   UNL     1       2.163   5.053  19.015  0.00  0.00    +0.000 C 
ATOM     36  C   UNL     1       2.285   3.624  18.494  0.00  0.00    +0.000 C 
ATOM     37  O   UNL     1       3.635   3.328  18.147  0.00  0.00    +0.000 OA
ATOM     38  C   UNL     1       4.109   4.159  17.092  0.00  0.00    +0.000 C 
ATOM     39  C   UNL     1       4.092   5.621  17.519  0.00  0.00    +0.000 C 
ENDBRANCH  33  34
ENDBRANCH   6  33
TORSDOF 6
ENDMDL
