MODEL 1
REMARK VINA RESULT:      -8.5      0.000      0.000
REMARK  Name = 
REMARK  8 active torsions:
REMARK  status: ('A' for Active; 'I' for Inactive)
REMARK    1  A    between atoms: C_1  and  C_2
REMARK    2  A    between atoms: C_6  and  N_7
REMARK    3  A    between atoms: C_8  and  C_10
REMARK    4  A    between atoms: C_10  and  O_11
REMARK    5  A    between atoms: O_11  and  C_12
REMARK    6  A    between atoms: C_12  and  C_14
REMARK    7  A    between atoms: C_17  and  N_18
REMARK    8  A    between atoms: C_22  and  C_23
REMARK                            x       y       z     vdW  Elec       q    Type
REMARK                         _______ _______ _______ _____ _____    ______ ____
ROOT
ATOM      1  N   UNL     1       5.106   3.911  18.137  0.00  0.00    +0.000 N 
ATOM      2  C   UNL     1       6.048   4.737  18.717  0.00  0.00    +0.000 C 
ATOM      3  O   UNL     1       5.801   5.484  19.660  0.00  0.00    +0.000 OA
ATOM      4  H   UNL     1       5.376   3.346  17.334  0.00  0.00    +0.000 HD
ENDROOT
BRANCH   1  10
ATOM      5  C   UNL     1       1.848   3.565  21.115  0.00  0.00    +0.000 C 
ATOM      6  C   UNL     1       2.047   2.507  20.018  0.00  0.00    +0.000 C 
ATOM      7  C   UNL     1       1.008   2.686  18.899  0.00  0.00    +0.000 C 
ATOM      8  C   UNL     1       1.268   3.927  18.043  0.00  0.00    +0.000 C 
ATOM      9  C   UNL     1       2.705   4.003  17.522  0.00  0.00    +0.000 C 
ATOM     10  C   UNL     1       3.740   3.827  18.643  0.00  0.00    +0.000 C 
ATOM     11  C   UNL     1       3.491   2.528  19.451  0.00  0.00    +0.000 C 
ATOM     12  C   UNL     1       3.762   1.263  18.614  0.00  0.00    +0.000 C 
ENDBRANCH   1  10
BRANCH   2  13
ATOM     13  C   UNL     1       7.441   4.681  18.083  0.00  0.00    +0.000 C 
BRANCH  13  14
ATOM     14  O   UNL     1       7.409   4.288  16.712  0.00  0.00    +0.000 OA
BRANCH  14  15
ATOM     15  C   UNL     1       7.367   5.318  15.822  0.00  0.00    +0.000 C 
ATOM     16  O   UNL     1       7.534   6.491  16.136  0.00  0.00    +0.000 OA
BRANCH  15  17
ATOM     17  C   UNL     1       7.090   4.814  14.487  0.00  0.00    +0.000 A 
ATOM     18  C   UNL     1       7.743   5.052  13.288  0.00  0.00    +0.000 A 
ATOM     19  C   UNL     1       7.150   4.356  12.189  0.00  0.00    +0.000 A 
ATOM     20  C   UNL     1       6.063   3.614  12.593  0.00  0.00    +0.000 A 
ATOM     21  S   UNL     1       5.761   3.747  14.258  0.00  0.00    +0.000 S 
BRANCH  20  22
ATOM     22  N   UNL     1       5.223   2.794  11.759  0.00  0.00    +0.000 N 
ATOM     23  O   UNL     1       5.715   1.723  11.372  0.00  0.00    +0.000 OA
ATOM     24  O   UNL     1       4.086   3.197  11.486  0.00  0.00    +0.000 OA
ENDBRANCH  20  22
ENDBRANCH  15  17
ENDBRANCH  14  15
ENDBRANCH  13  14
ENDBRANCH   2  13
TORSDOF 6
ENDMDL
MODEL 2
REMARK VINA RESULT:      -7.8      0.727      1.076
REMARK  Name = 
REMARK  8 active torsions:
REMARK  status: ('A' for Active; 'I' for Inactive)
REMARK    1  A    between atoms: C_1  and  C_2
REMARK    2  A    between atoms: C_6  and  N_7
REMARK    3  A    between atoms: C_8  and  C_10
REMARK    4  A    between atoms: C_10  and  O_11
REMARK    5  A    between atoms: O_11  and  C_12
REMARK    6  A    between atoms: C_12  and  C_14
REMARK    7  A    between atoms: C_17  and  N_18
REMARK    8  A    between atoms: C_22  and  C_23
REMARK                            x       y       z     vdW  Elec       q    Type
REMARK                         _______ _______ _______ _____ _____    ______ ____
ROOT
ATOM      1  N   UNL     1       5.146   3.637  18.432  0.00  0.00    +0.000 N 
ATOM      2  C   UNL     1       5.864   4.814  18.351  0.00  0.00    +0.000 C 
ATOM      3  O   UNL     1       5.365   5.923  18.524  0.00  0.00    +0.000 OA
ATOM      4  H   UNL     1       5.621   2.758  18.241  0.00  0.00    +0.000 HD
ENDROOT
BRANCH   1  10
ATOM      5  C   UNL     1       1.421   4.836  20.502  0.00  0.00    +0.000 C 
ATOM      6  C   UNL     1       1.989   3.415  20.635  0.00  0.00    +0.000 C 
ATOM      7  C   UNL     1       1.191   2.430  19.764  0.00  0.00    +0.000 C 
ATOM      8  C   UNL     1       1.448   2.621  18.269  0.00  0.00    +0.000 C 
ATOM      9  C   UNL     1       2.937   2.637  17.915  0.00  0.00    +0.000 C 
ATOM     10  C   UNL     1       3.729   3.624  18.784  0.00  0.00    +0.000 C 
ATOM     11  C   UNL     1       3.502   3.364  20.295  0.00  0.00    +0.000 C 
ATOM     12  C   UNL     1       4.115   2.027  20.753  0.00  0.00    +0.000 C 
ENDBRANCH   1  10
BRANCH   2  13
ATOM     13  C   UNL     1       7.346   4.648  18.002  0.00  0.00    +0.000 C 
BRANCH  13  14
ATOM     14  O   UNL     1       7.557   4.303  16.634  0.00  0.00    +0.000 OA
BRANCH  14  15
ATOM     15  C   UNL     1       7.423   5.336  15.755  0.00  0.00    +0.000 C 
ATOM     16  O   UNL     1       7.534   6.513  16.074  0.00  0.00    +0.000 OA
BRANCH  15  17
ATOM     17  C   UNL     1       7.127   4.826  14.426  0.00  0.00    +0.000 A 
ATOM     18  C   UNL     1       7.751   5.075  13.214  0.00  0.00    +0.000 A 
ATOM     19  C   UNL     1       7.148   4.368  12.128  0.00  0.00    +0.000 A 
ATOM     20  C   UNL     1       6.083   3.606  12.554  0.00  0.00    +0.000 A 
ATOM     21  S   UNL     1       5.814   3.733  14.226  0.00  0.00    +0.000 S 
BRANCH  20  22
ATOM     22  N   UNL     1       5.242   2.769  11.738  0.00  0.00    +0.000 N 
ATOM     23  O   UNL     1       4.134   3.238  11.434  0.00  0.00    +0.000 OA
ATOM     24  O   UNL     1       5.666   1.660  11.395  0.00  0.00    +0.000 OA
ENDBRANCH  20  22
ENDBRANCH  15  17
ENDBRANCH  14  15
ENDBRANCH  13  14
ENDBRANCH   2  13
TORSDOF 6
ENDMDL
MODEL 3
REMARK VINA RESULT:      -7.7      0.972      1.069
REMARK  Name = 
REMARK  8 active torsions:
REMARK  status: ('A' for Active; 'I' for Inactive)
REMARK    1  A    between atoms: C_1  and  C_2
REMARK    2  A    between atoms: C_6  and  N_7
REMARK    3  A    between atoms: C_8  and  C_10
REMARK    4  A    between atoms: C_10  and  O_11
REMARK    5  A    between atoms: O_11  and  C_12
REMARK    6  A    between atoms: C_12  and  C_14
REMARK    7  A    between atoms: C_17  and  N_18
REMARK    8  A    between atoms: C_22  and  C_23
REMARK                            x       y       z     vdW  Elec       q    Type
REMARK                         _______ _______ _______ _____ _____    ______ ____
ROOT
ATOM      1  N   UNL     1       5.078   3.838  18.213  0.00  0.00    +0.000 N 
ATOM      2  C   UNL     1       6.266   4.505  18.437  0.00  0.00    +0.000 C 
ATOM      3  O   UNL     1       6.462   5.226  19.413  0.00  0.00    +0.000 OA
ATOM      4  H   UNL     1       4.977   3.287  17.364  0.00  0.00    +0.000 HD
ENDROOT
BRANCH   1  10
ATOM      5  C   UNL     1       2.530   2.655  21.636  0.00  0.00    +0.000 C 
ATOM      6  C   UNL     1       1.977   2.702  20.204  0.00  0.00    +0.000 C 
ATOM      7  C   UNL     1       1.118   3.961  19.997  0.00  0.00    +0.000 C 
ATOM      8  C   UNL     1       1.951   5.242  19.942  0.00  0.00    +0.000 C 
ATOM      9  C   UNL     1       3.112   5.159  18.948  0.00  0.00    +0.000 C 
ATOM     10  C   UNL     1       3.969   3.903  19.160  0.00  0.00    +0.000 C 
ATOM     11  C   UNL     1       3.107   2.615  19.144  0.00  0.00    +0.000 C 
ATOM     12  C   UNL     1       2.520   2.326  17.749  0.00  0.00    +0.000 C 
ENDBRANCH   1  10
BRANCH   2  13
ATOM     13  C   UNL     1       7.337   4.305  17.362  0.00  0.00    +0.000 C 
BRANCH  13  14
ATOM     14  O   UNL     1       7.567   5.480  16.585  0.00  0.00    +0.000 OA
BRANCH  14  15
ATOM     15  C   UNL     1       6.533   5.843  15.775  0.00  0.00    +0.000 C 
ATOM     16  O   UNL     1       5.688   6.673  16.088  0.00  0.00    +0.000 OA
BRANCH  15  17
ATOM     17  C   UNL     1       6.591   5.099  14.528  0.00  0.00    +0.000 A 
ATOM     18  C   UNL     1       7.579   5.058  13.557  0.00  0.00    +0.000 A 
ATOM     19  C   UNL     1       7.250   4.190  12.470  0.00  0.00    +0.000 A 
ATOM     20  C   UNL     1       6.018   3.603  12.653  0.00  0.00    +0.000 A 
ATOM     21  S   UNL     1       5.273   4.079  14.102  0.00  0.00    +0.000 S 
BRANCH  20  22
ATOM     22  N   UNL     1       5.364   2.678  11.762  0.00  0.00    +0.000 N 
ATOM     23  O   UNL     1       6.004   1.658  11.466  0.00  0.00    +0.000 OA
ATOM     24  O   UNL     1       4.228   2.951  11.358  0.00  0.00    +0.000 OA
ENDBRANCH  20  22
ENDBRANCH  15  17
ENDBRANCH  14  15
ENDBRANCH  13  14
ENDBRANCH   2  13
TORSDOF 6
ENDMDL
MODEL 4
REMARK VINA RESULT:      -7.7      1.240      1.594
REMARK  Name = 
REMARK  8 active torsions:
REMARK  status: ('A' for Active; 'I' for Inactive)
REMARK    1  A    between atoms: C_1  and  C_2
REMARK    2  A    between atoms: C_6  and  N_7
REMARK    3  A    between atoms: C_8  and  C_10
REMARK    4  A    between atoms: C_10  and  O_11
REMARK    5  A    between atoms: O_11  and  C_12
REMARK    6  A    between atoms: C_12  and  C_14
REMARK    7  A    between atoms: C_17  and  N_18
REMARK    8  A    between atoms: C_22  and  C_23
REMARK                            x       y       z     vdW  Elec       q    Type
REMARK                         _______ _______ _______ _____ _____    ______ ____
ROOT
ATOM      1  N   UNL     1       5.041   5.460  18.348  0.00  0.00    +0.000 N 
ATOM      2  C   UNL     1       5.289   6.481  17.452  0.00  0.00    +0.000 C 
ATOM      3  O   UNL     1       4.413   7.012  16.774  0.00  0.00    +0.000 OA
ATOM      4  H   UNL     1       5.824   5.045  18.848  0.00  0.00    +0.000 HD
ENDROOT
BRANCH   1  10
ATOM      5  C   UNL     1       1.277   4.734  20.563  0.00  0.00    +0.000 C 
ATOM      6  C   UNL     1       2.164   3.573  20.088  0.00  0.00    +0.000 C 
ATOM      7  C   UNL     1       1.560   2.907  18.840  0.00  0.00    +0.000 C 
ATOM      8  C   UNL     1       1.672   3.782  17.591  0.00  0.00    +0.000 C 
ATOM      9  C   UNL     1       3.092   4.298  17.347  0.00  0.00    +0.000 C 
ATOM     10  C   UNL     1       3.690   4.965  18.594  0.00  0.00    +0.000 C 
ATOM     11  C   UNL     1       3.624   4.030  19.828  0.00  0.00    +0.000 C 
ATOM     12  C   UNL     1       4.555   2.811  19.684  0.00  0.00    +0.000 C 
ENDBRANCH   1  10
BRANCH   2  13
ATOM     13  C   UNL     1       6.756   6.903  17.336  0.00  0.00    +0.000 C 
BRANCH  13  14
ATOM     14  O   UNL     1       7.366   6.459  16.125  0.00  0.00    +0.000 OA
BRANCH  14  15
ATOM     15  C   UNL     1       7.463   5.106  15.995  0.00  0.00    +0.000 C 
ATOM     16  O   UNL     1       7.781   4.360  16.913  0.00  0.00    +0.000 OA
BRANCH  15  17
ATOM     17  C   UNL     1       7.151   4.712  14.631  0.00  0.00    +0.000 A 
ATOM     18  C   UNL     1       7.746   5.080  13.435  0.00  0.00    +0.000 A 
ATOM     19  C   UNL     1       7.134   4.462  12.301  0.00  0.00    +0.000 A 
ATOM     20  C   UNL     1       6.091   3.645  12.676  0.00  0.00    +0.000 A 
ATOM     21  S   UNL     1       5.853   3.617  14.356  0.00  0.00    +0.000 S 
BRANCH  20  22
ATOM     22  N   UNL     1       5.249   2.869  11.803  0.00  0.00    +0.000 N 
ATOM     23  O   UNL     1       4.161   3.381  11.495  0.00  0.00    +0.000 OA
ATOM     24  O   UNL     1       5.653   1.765  11.420  0.00  0.00    +0.000 OA
ENDBRANCH  20  22
ENDBRANCH  15  17
ENDBRANCH  14  15
ENDBRANCH  13  14
ENDBRANCH   2  13
TORSDOF 6
ENDMDL
MODEL 5
REMARK VINA RESULT:      -7.5      1.159      1.893
REMARK  Name = 
REMARK  8 active torsions:
REMARK  status: ('A' for Active; 'I' for Inactive)
REMARK    1  A    between atoms: C_1  and  C_2
REMARK    2  A    between atoms: C_6  and  N_7
REMARK    3  A    between atoms: C_8  and  C_10
REMARK    4  A    between atoms: C_10  and  O_11
REMARK    5  A    between atoms: O_11  and  C_12
REMARK    6  A    between atoms: C_12  and  C_14
REMARK    7  A    between atoms: C_17  and  N_18
REMARK    8  A    between atoms: C_22  and  C_23
REMARK                            x       y       z     vdW  Elec       q    Type
REMARK                         _______ _______ _______ _____ _____    ______ ____
ROOT
ATOM      1  N   UNL     1       4.022   5.541  17.694  0.00  0.00    +0.000 N 
ATOM      2  C   UNL     1       5.293   6.079  17.712  0.00  0.00    +0.000 C 
ATOM      3  O   UNL     1       5.976   6.163  18.730  0.00  0.00    +0.000 OA
ATOM      4  H   UNL     1       3.503   5.538  16.818  0.00  0.00    +0.000 HD
ENDROOT
BRANCH   1  10
ATOM      5  C   UNL     1       3.150   2.553  20.842  0.00  0.00    +0.000 C 
ATOM      6  C   UNL     1       2.050   3.073  19.905  0.00  0.00    +0.000 C 
ATOM      7  C   UNL     1       1.163   4.099  20.630  0.00  0.00    +0.000 C 
ATOM      8  C   UNL     1       1.876   5.429  20.875  0.00  0.00    +0.000 C 
ATOM      9  C   UNL     1       2.519   6.005  19.611  0.00  0.00    +0.000 C 
ATOM     10  C   UNL     1       3.407   4.979  18.892  0.00  0.00    +0.000 C 
ATOM     11  C   UNL     1       2.638   3.666  18.597  0.00  0.00    +0.000 C 
ATOM     12  C   UNL     1       1.528   3.866  17.547  0.00  0.00    +0.000 C 
ENDBRANCH   1  10
BRANCH   2  13
ATOM     13  C   UNL     1       5.801   6.596  16.363  0.00  0.00    +0.000 C 
BRANCH  13  14
ATOM     14  O   UNL     1       7.177   6.293  16.137  0.00  0.00    +0.000 OA
BRANCH  14  15
ATOM     15  C   UNL     1       7.447   4.974  15.934  0.00  0.00    +0.000 C 
ATOM     16  O   UNL     1       7.899   4.235  16.801  0.00  0.00    +0.000 OA
BRANCH  15  17
ATOM     17  C   UNL     1       7.133   4.605  14.563  0.00  0.00    +0.000 A 
ATOM     18  C   UNL     1       7.723   5.000  13.374  0.00  0.00    +0.000 A 
ATOM     19  C   UNL     1       7.112   4.401  12.228  0.00  0.00    +0.000 A 
ATOM     20  C   UNL     1       6.074   3.572  12.590  0.00  0.00    +0.000 A 
ATOM     21  S   UNL     1       5.839   3.510  14.270  0.00  0.00    +0.000 S 
BRANCH  20  22
ATOM     22  N   UNL     1       5.232   2.810  11.704  0.00  0.00    +0.000 N 
ATOM     23  O   UNL     1       4.175   3.353  11.351  0.00  0.00    +0.000 OA
ATOM     24  O   UNL     1       5.608   1.685  11.355  0.00  0.00    +0.000 OA
ENDBRANCH  20  22
ENDBRANCH  15  17
ENDBRANCH  14  15
ENDBRANCH  13  14
ENDBRANCH   2  13
TORSDOF 6
ENDMDL
MODEL 6
REMARK VINA RESULT:      -7.4      1.122      1.421
REMARK  Name = 
REMARK  8 active torsions:
REMARK  status: ('A' for Active; 'I' for Inactive)
REMARK    1  A    between atoms: C_1  and  C_2
REMARK    2  A    between atoms: C_6  and  N_7
REMARK    3  A    between atoms: C_8  and  C_10
REMARK    4  A    between atoms: C_10  and  O_11
REMARK    5  A    between atoms: O_11  and  C_12
REMARK    6  A    between atoms: C_12  and  C_14
REMARK    7  A    between atoms: C_17  and  N_18
REMARK    8  A    between atoms: C_22  and  C_23
REMARK                            x       y       z     vdW  Elec       q    Type
REMARK                         _______ _______ _______ _____ _____    ______ ____
ROOT
ATOM      1  N   UNL     1       5.212   3.895  18.921  0.00  0.00    +0.000 N 
ATOM      2  C   UNL     1       5.842   5.094  19.188  0.00  0.00    +0.000 C 
ATOM      3  O   UNL     1       5.247   6.099  19.570  0.00  0.00    +0.000 OA
ATOM      4  H   UNL     1       5.767   3.116  18.573  0.00  0.00    +0.000 HD
ENDROOT
BRANCH   1  10
ATOM      5  C   UNL     1       1.463   2.901  21.058  0.00  0.00    +0.000 C 
ATOM      6  C   UNL     1       1.894   2.136  19.797  0.00  0.00    +0.000 C 
ATOM      7  C   UNL     1       1.079   2.600  18.578  0.00  0.00    +0.000 C 
ATOM      8  C   UNL     1       1.461   4.005  18.112  0.00  0.00    +0.000 C 
ATOM      9  C   UNL     1       2.967   4.178  17.905  0.00  0.00    +0.000 C 
ATOM     10  C   UNL     1       3.777   3.717  19.125  0.00  0.00    +0.000 C 
ATOM     11  C   UNL     1       3.418   2.266  19.534  0.00  0.00    +0.000 C 
ATOM     12  C   UNL     1       3.876   1.236  18.484  0.00  0.00    +0.000 C 
ENDBRANCH   1  10
BRANCH   2  13
ATOM     13  C   UNL     1       7.354   5.101  18.950  0.00  0.00    +0.000 C 
BRANCH  13  14
ATOM     14  O   UNL     1       7.703   4.818  17.596  0.00  0.00    +0.000 OA
BRANCH  14  15
ATOM     15  C   UNL     1       7.270   5.739  16.689  0.00  0.00    +0.000 C 
ATOM     16  O   UNL     1       7.451   6.944  16.810  0.00  0.00    +0.000 OA
BRANCH  15  17
ATOM     17  C   UNL     1       6.572   5.076  15.600  0.00  0.00    +0.000 A 
ATOM     18  C   UNL     1       5.244   4.694  15.490  0.00  0.00    +0.000 A 
ATOM     19  C   UNL     1       4.953   4.062  14.241  0.00  0.00    +0.000 A 
ATOM     20  C   UNL     1       6.073   3.985  13.445  0.00  0.00    +0.000 A 
ATOM     21  S   UNL     1       7.447   4.660  14.179  0.00  0.00    +0.000 S 
BRANCH  20  22
ATOM     22  N   UNL     1       6.154   3.411  12.126  0.00  0.00    +0.000 N 
ATOM     23  O   UNL     1       5.131   2.846  11.712  0.00  0.00    +0.000 OA
ATOM     24  O   UNL     1       7.216   3.517  11.500  0.00  0.00    +0.000 OA
ENDBRANCH  20  22
ENDBRANCH  15  17
ENDBRANCH  14  15
ENDBRANCH  13  14
ENDBRANCH   2  13
TORSDOF 6
ENDMDL
MODEL 7
REMARK VINA RESULT:      -7.3      1.368      1.689
REMARK  Name = 
REMARK  8 active torsions:
REMARK  status: ('A' for Active; 'I' for Inactive)
REMARK    1  A    between atoms: C_1  and  C_2
REMARK    2  A    between atoms: C_6  and  N_7
REMARK    3  A    between atoms: C_8  and  C_10
REMARK    4  A    between atoms: C_10  and  O_11
REMARK    5  A    between atoms: O_11  and  C_12
REMARK    6  A    between atoms: C_12  and  C_14
REMARK    7  A    between atoms: C_17  and  N_18
REMARK    8  A    between atoms: C_22  and  C_23
REMARK                            x       y       z     vdW  Elec       q    Type
REMARK                         _______ _______ _______ _____ _____    ______ ____
ROOT
ATOM      1  N   UNL     1       5.150   3.921  18.481  0.00  0.00    +0.000 N 
ATOM      2  C   UNL     1       6.321   4.580  18.798  0.00  0.00    +0.000 C 
ATOM      3  O   UNL     1       6.457   5.268  19.806  0.00  0.00    +0.000 OA
ATOM      4  H   UNL     1       5.102   3.398  17.609  0.00  0.00    +0.000 HD
ENDROOT
BRANCH   1  10
ATOM      5  C   UNL     1       2.427   2.654  21.734  0.00  0.00    +0.000 C 
ATOM      6  C   UNL     1       1.958   2.707  20.272  0.00  0.00    +0.000 C 
ATOM      7  C   UNL     1       1.090   3.953  20.027  0.00  0.00    +0.000 C 
ATOM      8  C   UNL     1       1.901   5.249  20.035  0.00  0.00    +0.000 C 
ATOM      9  C   UNL     1       3.120   5.198  19.112  0.00  0.00    +0.000 C 
ATOM     10  C   UNL     1       3.986   3.955  19.361  0.00  0.00    +0.000 C 
ATOM     11  C   UNL     1       3.150   2.652  19.280  0.00  0.00    +0.000 C 
ATOM     12  C   UNL     1       2.652   2.369  17.850  0.00  0.00    +0.000 C 
ENDBRANCH   1  10
BRANCH   2  13
ATOM     13  C   UNL     1       7.455   4.415  17.782  0.00  0.00    +0.000 C 
BRANCH  13  14
ATOM     14  O   UNL     1       7.747   5.621  17.078  0.00  0.00    +0.000 OA
BRANCH  14  15
ATOM     15  C   UNL     1       6.687   6.173  16.423  0.00  0.00    +0.000 C 
ATOM     16  O   UNL     1       6.211   7.266  16.708  0.00  0.00    +0.000 OA
BRANCH  15  17
ATOM     17  C   UNL     1       6.225   5.277  15.377  0.00  0.00    +0.000 A 
ATOM     18  C   UNL     1       5.000   4.649  15.214  0.00  0.00    +0.000 A 
ATOM     19  C   UNL     1       4.947   3.839  14.037  0.00  0.00    +0.000 A 
ATOM     20  C   UNL     1       6.137   3.880  13.346  0.00  0.00    +0.000 A 
ATOM     21  S   UNL     1       7.295   4.872  14.093  0.00  0.00    +0.000 S 
BRANCH  20  22
ATOM     22  N   UNL     1       6.446   3.187  12.122  0.00  0.00    +0.000 N 
ATOM     23  O   UNL     1       5.629   2.327  11.759  0.00  0.00    +0.000 OA
ATOM     24  O   UNL     1       7.483   3.486  11.519  0.00  0.00    +0.000 OA
ENDBRANCH  20  22
ENDBRANCH  15  17
ENDBRANCH  14  15
ENDBRANCH  13  14
ENDBRANCH   2  13
TORSDOF 6
ENDMDL
MODEL 8
REMARK VINA RESULT:      -7.3      1.137      1.954
REMARK  Name = 
REMARK  8 active torsions:
REMARK  status: ('A' for Active; 'I' for Inactive)
REMARK    1  A    between atoms: C_1  and  C_2
REMARK    2  A    between atoms: C_6  and  N_7
REMARK    3  A    between atoms: C_8  and  C_10
REMARK    4  A    between atoms: C_10  and  O_11
REMARK    5  A    between atoms: O_11  and  C_12
REMARK    6  A    between atoms: C_12  and  C_14
REMARK    7  A    between atoms: C_17  and  N_18
REMARK    8  A    between atoms: C_22  and  C_23
REMARK                            x       y       z     vdW  Elec       q    Type
REMARK                         _______ _______ _______ _____ _____    ______ ____
ROOT
ATOM      1  N   UNL     1       4.888   3.636  19.321  0.00  0.00    +0.000 N 
ATOM      2  C   UNL     1       5.148   4.207  18.090  0.00  0.00    +0.000 C 
ATOM      3  O   UNL     1       4.309   4.296  17.197  0.00  0.00    +0.000 OA
ATOM      4  H   UNL     1       5.644   3.566  19.998  0.00  0.00    +0.000 HD
ENDROOT
BRANCH   1  10
ATOM      5  C   UNL     1       0.661   2.458  18.738  0.00  0.00    +0.000 C 
ATOM      6  C   UNL     1       1.053   3.575  19.716  0.00  0.00    +0.000 C 
ATOM      7  C   UNL     1       0.997   3.069  21.167  0.00  0.00    +0.000 C 
ATOM      8  C   UNL     1       2.127   2.094  21.497  0.00  0.00    +0.000 C 
ATOM      9  C   UNL     1       3.510   2.632  21.121  0.00  0.00    +0.000 C 
ATOM     10  C   UNL     1       3.563   3.134  19.671  0.00  0.00    +0.000 C 
ATOM     11  C   UNL     1       2.447   4.170  19.384  0.00  0.00    +0.000 C 
ATOM     12  C   UNL     1       2.669   5.489  20.149  0.00  0.00    +0.000 C 
ENDBRANCH   1  10
BRANCH   2  13
ATOM     13  C   UNL     1       6.580   4.712  17.897  0.00  0.00    +0.000 C 
BRANCH  13  14
ATOM     14  O   UNL     1       7.149   4.300  16.655  0.00  0.00    +0.000 OA
BRANCH  14  15
ATOM     15  C   UNL     1       7.308   5.297  15.739  0.00  0.00    +0.000 C 
ATOM     16  O   UNL     1       7.608   6.447  16.037  0.00  0.00    +0.000 OA
BRANCH  15  17
ATOM     17  C   UNL     1       7.059   4.789  14.400  0.00  0.00    +0.000 A 
ATOM     18  C   UNL     1       7.717   5.049  13.209  0.00  0.00    +0.000 A 
ATOM     19  C   UNL     1       7.156   4.340  12.102  0.00  0.00    +0.000 A 
ATOM     20  C   UNL     1       6.087   3.565  12.492  0.00  0.00    +0.000 A 
ATOM     21  S   UNL     1       5.764   3.684  14.155  0.00  0.00    +0.000 S 
BRANCH  20  22
ATOM     22  N   UNL     1       5.280   2.723  11.647  0.00  0.00    +0.000 N 
ATOM     23  O   UNL     1       5.781   1.636  11.320  0.00  0.00    +0.000 OA
ATOM     24  O   UNL     1       4.161   3.125  11.308  0.00  0.00    +0.000 OA
ENDBRANCH  20  22
ENDBRANCH  15  17
ENDBRANCH  14  15
ENDBRANCH  13  14
ENDBRANCH   2  13
TORSDOF 6
ENDMDL
MODEL 9
REMARK VINA RESULT:      -7.0      1.575      2.314
REMARK  Name = 
REMARK  8 active torsions:
REMARK  status: ('A' for Active; 'I' for Inactive)
REMARK    1  A    between atoms: C_1  and  C_2
REMARK    2  A    between atoms: C_6  and  N_7
REMARK    3  A    between atoms: C_8  and  C_10
REMARK    4  A    between atoms: C_10  and  O_11
REMARK    5  A    between atoms: O_11  and  C_12
REMARK    6  A    between atoms: C_12  and  C_14
REMARK    7  A    between atoms: C_17  and  N_18
REMARK    8  A    between atoms: C_22  and  C_23
REMARK                            x       y       z     vdW  Elec       q    Type
REMARK                         _______ _______ _______ _____ _____    ______ ____
ROOT
ATOM      1  N   UNL     1       3.781   5.376  18.555  0.00  0.00    +0.000 N 
ATOM      2  C   UNL     1       4.406   5.217  17.334  0.00  0.00    +0.000 C 
ATOM      3  O   UNL     1       4.412   4.158  16.712  0.00  0.00    +0.000 OA
ATOM      4  H   UNL     1       3.850   6.275  19.028  0.00  0.00    +0.000 HD
ENDROOT
BRANCH   1  10
ATOM      5  C   UNL     1       0.480   2.489  19.163  0.00  0.00    +0.000 C 
ATOM      6  C   UNL     1       0.827   3.544  20.225  0.00  0.00    +0.000 C 
ATOM      7  C   UNL     1       1.603   2.905  21.388  0.00  0.00    +0.000 C 
ATOM      8  C   UNL     1       3.031   2.516  21.004  0.00  0.00    +0.000 C 
ATOM      9  C   UNL     1       3.806   3.659  20.345  0.00  0.00    +0.000 C 
ATOM     10  C   UNL     1       3.030   4.293  19.181  0.00  0.00    +0.000 C 
ATOM     11  C   UNL     1       1.611   4.738  19.618  0.00  0.00    +0.000 C 
ATOM     12  C   UNL     1       1.651   5.918  20.608  0.00  0.00    +0.000 C 
ENDBRANCH   1  10
BRANCH   2  13
ATOM     13  C   UNL     1       5.124   6.461  16.804  0.00  0.00    +0.000 C 
BRANCH  13  14
ATOM     14  O   UNL     1       5.550   6.319  15.449  0.00  0.00    +0.000 OA
BRANCH  14  15
ATOM     15  C   UNL     1       6.744   5.684  15.288  0.00  0.00    +0.000 C 
ATOM     16  O   UNL     1       7.672   5.775  16.084  0.00  0.00    +0.000 OA
BRANCH  15  17
ATOM     17  C   UNL     1       6.739   4.916  14.054  0.00  0.00    +0.000 A 
ATOM     18  C   UNL     1       7.636   4.918  12.997  0.00  0.00    +0.000 A 
ATOM     19  C   UNL     1       7.267   4.005  11.960  0.00  0.00    +0.000 A 
ATOM     20  C   UNL     1       6.099   3.343  12.266  0.00  0.00    +0.000 A 
ATOM     21  S   UNL     1       5.459   3.804  13.769  0.00  0.00    +0.000 S 
BRANCH  20  22
ATOM     22  N   UNL     1       5.431   2.358  11.455  0.00  0.00    +0.000 N 
ATOM     23  O   UNL     1       6.102   1.366  11.135  0.00  0.00    +0.000 OA
ATOM     24  O   UNL     1       4.253   2.556  11.136  0.00  0.00    +0.000 OA
ENDBRANCH  20  22
ENDBRANCH  15  17
ENDBRANCH  14  15
ENDBRANCH  13  14
ENDBRANCH   2  13
TORSDOF 6
ENDMDL
