MODEL 1
REMARK VINA RESULT:      -7.3      0.000      0.000
REMARK  Name = 
REMARK  7 active torsions:
REMARK  status: ('A' for Active; 'I' for Inactive)
REMARK    1  A    between atoms: C_1  and  O_2
REMARK    2  A    between atoms: O_2  and  C_3
REMARK    3  A    between atoms: C_7  and  O_8
REMARK    4  A    between atoms: O_8  and  C_9
REMARK    5  A    between atoms: C_10  and  C_11
REMARK    6  A    between atoms: C_11  and  C_13
REMARK    7  A    between atoms: C_14  and  C_15
REMARK                            x       y       z     vdW  Elec       q    Type
REMARK                         _______ _______ _______ _____ _____    ______ ____
ROOT
ATOM      1  C   UNL     1       4.204   4.278  19.389  0.00  0.00    +0.000 C 
ATOM      2  O   UNL     1       4.067   3.276  20.091  0.00  0.00    +0.000 OA
ENDROOT
BRANCH   1   8
ATOM      3  C   UNL     1       4.305   3.880  16.917  0.00  0.00    +0.000 A 
ATOM      4  C   UNL     1       4.991   3.926  15.697  0.00  0.00    +0.000 A 
ATOM      5  C   UNL     1       6.331   4.283  15.655  0.00  0.00    +0.000 A 
ATOM      6  C   UNL     1       7.004   4.585  16.836  0.00  0.00    +0.000 A 
ATOM      7  C   UNL     1       6.350   4.550  18.074  0.00  0.00    +0.000 A 
ATOM      8  C   UNL     1       4.987   4.176  18.122  0.00  0.00    +0.000 A 
BRANCH   3  10
ATOM      9  C   UNL     1       2.748   2.122  17.277  0.00  0.00    +0.000 C 
ATOM     10  O   UNL     1       2.985   3.499  16.984  0.00  0.00    +0.000 OA
ENDBRANCH   3  10
BRANCH   7  11
ATOM     11  O   UNL     1       6.977   4.873  19.252  0.00  0.00    +0.000 OA
ATOM     12  C   UNL     1       7.902   5.962  19.203  0.00  0.00    +0.000 C 
ENDBRANCH   7  11
ENDBRANCH   1   8
BRANCH   1  13
ATOM     13  C   UNL     1       3.629   5.601  19.819  0.00  0.00    +0.000 C 
ATOM     14  C   UNL     1       3.134   6.395  18.851  0.00  0.00    +0.000 C 
BRANCH  14  15
ATOM     15  C   UNL     1       2.359   7.647  18.975  0.00  0.00    +0.000 A 
ATOM     16  C   UNL     1       2.375   8.508  17.858  0.00  0.00    +0.000 A 
ATOM     17  C   UNL     1       1.639   9.693  17.848  0.00  0.00    +0.000 A 
ATOM     18  C   UNL     1       0.886  10.041  18.962  0.00  0.00    +0.000 A 
ATOM     19  F   UNL     1       0.167  11.165  18.946  0.00  0.00    +0.000 F 
ATOM     20  C   UNL     1       0.874   9.227  20.091  0.00  0.00    +0.000 A 
ATOM     21  C   UNL     1       1.609   8.039  20.088  0.00  0.00    +0.000 A 
ATOM     22  F   UNL     1       1.585   7.288  21.199  0.00  0.00    +0.000 F 
ENDBRANCH  14  15
ENDBRANCH   1  13
TORSDOF 5
ENDMDL
MODEL 2
REMARK VINA RESULT:      -7.2      0.556      2.735
REMARK  Name = 
REMARK  7 active torsions:
REMARK  status: ('A' for Active; 'I' for Inactive)
REMARK    1  A    between atoms: C_1  and  O_2
REMARK    2  A    between atoms: O_2  and  C_3
REMARK    3  A    between atoms: C_7  and  O_8
REMARK    4  A    between atoms: O_8  and  C_9
REMARK    5  A    between atoms: C_10  and  C_11
REMARK    6  A    between atoms: C_11  and  C_13
REMARK    7  A    between atoms: C_14  and  C_15
REMARK                            x       y       z     vdW  Elec       q    Type
REMARK                         _______ _______ _______ _____ _____    ______ ____
ROOT
ATOM      1  C   UNL     1       3.717   4.342  19.570  0.00  0.00    +0.000 C 
ATOM      2  O   UNL     1       3.877   3.416  20.365  0.00  0.00    +0.000 OA
ENDROOT
BRANCH   1   8
ATOM      3  C   UNL     1       5.922   4.801  18.472  0.00  0.00    +0.000 A 
ATOM      4  C   UNL     1       6.778   4.726  17.366  0.00  0.00    +0.000 A 
ATOM      5  C   UNL     1       6.317   4.241  16.150  0.00  0.00    +0.000 A 
ATOM      6  C   UNL     1       4.990   3.839  16.023  0.00  0.00    +0.000 A 
ATOM      7  C   UNL     1       4.106   3.901  17.108  0.00  0.00    +0.000 A 
ATOM      8  C   UNL     1       4.569   4.404  18.345  0.00  0.00    +0.000 A 
BRANCH   3  10
ATOM      9  C   UNL     1       7.742   5.615  19.764  0.00  0.00    +0.000 C 
ATOM     10  O   UNL     1       6.351   5.307  19.678  0.00  0.00    +0.000 OA
ENDBRANCH   3  10
BRANCH   7  11
ATOM     11  O   UNL     1       2.800   3.483  17.024  0.00  0.00    +0.000 OA
ATOM     12  C   UNL     1       2.527   2.154  17.472  0.00  0.00    +0.000 C 
ENDBRANCH   7  11
ENDBRANCH   1   8
BRANCH   1  13
ATOM     13  C   UNL     1       2.708   5.424  19.847  0.00  0.00    +0.000 C 
ATOM     14  C   UNL     1       2.971   6.646  19.345  0.00  0.00    +0.000 C 
BRANCH  14  15
ATOM     15  C   UNL     1       2.104   7.841  19.297  0.00  0.00    +0.000 A 
ATOM     16  C   UNL     1       1.921   8.433  18.029  0.00  0.00    +0.000 A 
ATOM     17  C   UNL     1       1.083   9.536  17.861  0.00  0.00    +0.000 A 
ATOM     18  C   UNL     1       0.428  10.072  18.961  0.00  0.00    +0.000 A 
ATOM     19  F   UNL     1      -0.388  11.116  18.797  0.00  0.00    +0.000 F 
ATOM     20  C   UNL     1       0.612   9.530  20.229  0.00  0.00    +0.000 A 
ATOM     21  C   UNL     1       1.446   8.421  20.386  0.00  0.00    +0.000 A 
ATOM     22  F   UNL     1       1.611   7.934  21.625  0.00  0.00    +0.000 F 
ENDBRANCH  14  15
ENDBRANCH   1  13
TORSDOF 5
ENDMDL
MODEL 3
REMARK VINA RESULT:      -7.2      1.092      3.096
REMARK  Name = 
REMARK  7 active torsions:
REMARK  status: ('A' for Active; 'I' for Inactive)
REMARK    1  A    between atoms: C_1  and  O_2
REMARK    2  A    between atoms: O_2  and  C_3
REMARK    3  A    between atoms: C_7  and  O_8
REMARK    4  A    between atoms: O_8  and  C_9
REMARK    5  A    between atoms: C_10  and  C_11
REMARK    6  A    between atoms: C_11  and  C_13
REMARK    7  A    between atoms: C_14  and  C_15
REMARK                            x       y       z     vdW  Elec       q    Type
REMARK                         _______ _______ _______ _____ _____    ______ ____
ROOT
ATOM      1  C   UNL     1       4.719   4.337  19.174  0.00  0.00    +0.000 C 
ATOM      2  O   UNL     1       4.782   3.307  19.845  0.00  0.00    +0.000 OA
ENDROOT
BRANCH   1   8
ATOM      3  C   UNL     1       6.679   4.580  17.631  0.00  0.00    +0.000 A 
ATOM      4  C   UNL     1       7.266   4.444  16.367  0.00  0.00    +0.000 A 
ATOM      5  C   UNL     1       6.504   4.055  15.275  0.00  0.00    +0.000 A 
ATOM      6  C   UNL     1       5.142   3.810  15.432  0.00  0.00    +0.000 A 
ATOM      7  C   UNL     1       4.522   3.936  16.682  0.00  0.00    +0.000 A 
ATOM      8  C   UNL     1       5.293   4.343  17.795  0.00  0.00    +0.000 A 
BRANCH   3  10
ATOM      9  C   UNL     1       7.816   6.362  18.713  0.00  0.00    +0.000 C 
ATOM     10  O   UNL     1       7.410   4.994  18.721  0.00  0.00    +0.000 OA
ENDBRANCH   3  10
BRANCH   7  11
ATOM     11  O   UNL     1       3.188   3.671  16.877  0.00  0.00    +0.000 OA
ATOM     12  C   UNL     1       2.851   2.329  17.236  0.00  0.00    +0.000 C 
ENDBRANCH   7  11
ENDBRANCH   1   8
BRANCH   1  13
ATOM     13  C   UNL     1       4.112   5.590  19.747  0.00  0.00    +0.000 C 
ATOM     14  C   UNL     1       3.185   6.216  18.998  0.00  0.00    +0.000 C 
BRANCH  14  15
ATOM     15  C   UNL     1       2.300   7.343  19.358  0.00  0.00    +0.000 A 
ATOM     16  C   UNL     1       1.725   7.303  20.645  0.00  0.00    +0.000 A 
ATOM     17  C   UNL     1       0.914   8.340  21.106  0.00  0.00    +0.000 A 
ATOM     18  C   UNL     1       0.654   9.426  20.281  0.00  0.00    +0.000 A 
ATOM     19  F   UNL     1      -0.108  10.426  20.729  0.00  0.00    +0.000 F 
ATOM     20  C   UNL     1       1.181   9.480  18.994  0.00  0.00    +0.000 A 
ATOM     21  C   UNL     1       1.999   8.440  18.544  0.00  0.00    +0.000 A 
ATOM     22  F   UNL     1       2.478   8.519  17.294  0.00  0.00    +0.000 F 
ENDBRANCH  14  15
ENDBRANCH   1  13
TORSDOF 5
ENDMDL
MODEL 4
REMARK VINA RESULT:      -7.1      1.400      2.948
REMARK  Name = 
REMARK  7 active torsions:
REMARK  status: ('A' for Active; 'I' for Inactive)
REMARK    1  A    between atoms: C_1  and  O_2
REMARK    2  A    between atoms: O_2  and  C_3
REMARK    3  A    between atoms: C_7  and  O_8
REMARK    4  A    between atoms: O_8  and  C_9
REMARK    5  A    between atoms: C_10  and  C_11
REMARK    6  A    between atoms: C_11  and  C_13
REMARK    7  A    between atoms: C_14  and  C_15
REMARK                            x       y       z     vdW  Elec       q    Type
REMARK                         _______ _______ _______ _____ _____    ______ ____
ROOT
ATOM      1  C   UNL     1       4.088   5.886  18.451  0.00  0.00    +0.000 C 
ATOM      2  O   UNL     1       4.407   5.497  19.574  0.00  0.00    +0.000 OA
ENDROOT
BRANCH   1   8
ATOM      3  C   UNL     1       6.009   6.062  16.851  0.00  0.00    +0.000 A 
ATOM      4  C   UNL     1       6.811   5.523  15.838  0.00  0.00    +0.000 A 
ATOM      5  C   UNL     1       6.483   4.309  15.250  0.00  0.00    +0.000 A 
ATOM      6  C   UNL     1       5.340   3.627  15.660  0.00  0.00    +0.000 A 
ATOM      7  C   UNL     1       4.514   4.137  16.671  0.00  0.00    +0.000 A 
ATOM      8  C   UNL     1       4.840   5.378  17.265  0.00  0.00    +0.000 A 
BRANCH   3  10
ATOM      9  C   UNL     1       7.686   7.565  17.605  0.00  0.00    +0.000 C 
ATOM     10  O   UNL     1       6.300   7.278  17.426  0.00  0.00    +0.000 OA
ENDBRANCH   3  10
BRANCH   7  11
ATOM     11  O   UNL     1       3.399   3.474  17.120  0.00  0.00    +0.000 OA
ATOM     12  C   UNL     1       3.627   2.290  17.887  0.00  0.00    +0.000 C 
ENDBRANCH   7  11
ENDBRANCH   1   8
BRANCH   1  13
ATOM     13  C   UNL     1       2.984   6.894  18.273  0.00  0.00    +0.000 C 
ATOM     14  C   UNL     1       2.429   7.395  19.393  0.00  0.00    +0.000 C 
BRANCH  14  15
ATOM     15  C   UNL     1       1.468   8.508  19.542  0.00  0.00    +0.000 A 
ATOM     16  C   UNL     1       1.143   9.216  18.366  0.00  0.00    +0.000 A 
ATOM     17  C   UNL     1       0.210  10.254  18.384  0.00  0.00    +0.000 A 
ATOM     18  C   UNL     1      -0.400  10.607  19.580  0.00  0.00    +0.000 A 
ATOM     19  F   UNL     1      -1.306  11.587  19.593  0.00  0.00    +0.000 F 
ATOM     20  C   UNL     1      -0.077   9.947  20.762  0.00  0.00    +0.000 A 
ATOM     21  C   UNL     1       0.853   8.905  20.733  0.00  0.00    +0.000 A 
ATOM     22  F   UNL     1       1.150   8.302  21.893  0.00  0.00    +0.000 F 
ENDBRANCH  14  15
ENDBRANCH   1  13
TORSDOF 5
ENDMDL
MODEL 5
REMARK VINA RESULT:      -7.0      1.086      1.497
REMARK  Name = 
REMARK  7 active torsions:
REMARK  status: ('A' for Active; 'I' for Inactive)
REMARK    1  A    between atoms: C_1  and  O_2
REMARK    2  A    between atoms: O_2  and  C_3
REMARK    3  A    between atoms: C_7  and  O_8
REMARK    4  A    between atoms: O_8  and  C_9
REMARK    5  A    between atoms: C_10  and  C_11
REMARK    6  A    between atoms: C_11  and  C_13
REMARK    7  A    between atoms: C_14  and  C_15
REMARK                            x       y       z     vdW  Elec       q    Type
REMARK                         _______ _______ _______ _____ _____    ______ ____
ROOT
ATOM      1  C   UNL     1       3.825   4.376  19.592  0.00  0.00    +0.000 C 
ATOM      2  O   UNL     1       3.582   3.347  20.222  0.00  0.00    +0.000 OA
ENDROOT
BRANCH   1   8
ATOM      3  C   UNL     1       4.111   3.962  17.138  0.00  0.00    +0.000 A 
ATOM      4  C   UNL     1       4.875   4.029  15.966  0.00  0.00    +0.000 A 
ATOM      5  C   UNL     1       6.197   4.448  16.010  0.00  0.00    +0.000 A 
ATOM      6  C   UNL     1       6.775   4.791  17.229  0.00  0.00    +0.000 A 
ATOM      7  C   UNL     1       6.040   4.736  18.422  0.00  0.00    +0.000 A 
ATOM      8  C   UNL     1       4.696   4.300  18.382  0.00  0.00    +0.000 A 
BRANCH   3  10
ATOM      9  C   UNL     1       2.625   2.114  17.281  0.00  0.00    +0.000 C 
ATOM     10  O   UNL     1       2.808   3.520  17.120  0.00  0.00    +0.000 OA
ENDBRANCH   3  10
BRANCH   7  11
ATOM     11  O   UNL     1       6.570   5.099  19.635  0.00  0.00    +0.000 OA
ATOM     12  C   UNL     1       7.905   5.610  19.620  0.00  0.00    +0.000 C 
ENDBRANCH   7  11
ENDBRANCH   1   8
BRANCH   1  13
ATOM     13  C   UNL     1       3.289   5.704  20.057  0.00  0.00    +0.000 C 
ATOM     14  C   UNL     1       2.800   6.529  19.112  0.00  0.00    +0.000 C 
BRANCH  14  15
ATOM     15  C   UNL     1       2.059   7.797  19.272  0.00  0.00    +0.000 A 
ATOM     16  C   UNL     1       1.473   8.026  20.534  0.00  0.00    +0.000 A 
ATOM     17  C   UNL     1       0.792   9.212  20.810  0.00  0.00    +0.000 A 
ATOM     18  C   UNL     1       0.675  10.181  19.823  0.00  0.00    +0.000 A 
ATOM     19  F   UNL     1       0.040  11.323  20.093  0.00  0.00    +0.000 F 
ATOM     20  C   UNL     1       1.216   9.972  18.558  0.00  0.00    +0.000 A 
ATOM     21  C   UNL     1       1.903   8.784  18.293  0.00  0.00    +0.000 A 
ATOM     22  F   UNL     1       2.398   8.611  17.059  0.00  0.00    +0.000 F 
ENDBRANCH  14  15
ENDBRANCH   1  13
TORSDOF 5
ENDMDL
MODEL 6
REMARK VINA RESULT:      -7.0      1.209      1.328
REMARK  Name = 
REMARK  7 active torsions:
REMARK  status: ('A' for Active; 'I' for Inactive)
REMARK    1  A    between atoms: C_1  and  O_2
REMARK    2  A    between atoms: O_2  and  C_3
REMARK    3  A    between atoms: C_7  and  O_8
REMARK    4  A    between atoms: O_8  and  C_9
REMARK    5  A    between atoms: C_10  and  C_11
REMARK    6  A    between atoms: C_11  and  C_13
REMARK    7  A    between atoms: C_14  and  C_15
REMARK                            x       y       z     vdW  Elec       q    Type
REMARK                         _______ _______ _______ _____ _____    ______ ____
ROOT
ATOM      1  C   UNL     1       4.323   5.714  18.487  0.00  0.00    +0.000 C 
ATOM      2  O   UNL     1       4.514   5.285  19.625  0.00  0.00    +0.000 OA
ENDROOT
BRANCH   1   8
ATOM      3  C   UNL     1       4.608   4.126  16.570  0.00  0.00    +0.000 A 
ATOM      4  C   UNL     1       5.287   3.705  15.421  0.00  0.00    +0.000 A 
ATOM      5  C   UNL     1       6.467   4.323  15.033  0.00  0.00    +0.000 A 
ATOM      6  C   UNL     1       6.989   5.362  15.799  0.00  0.00    +0.000 A 
ATOM      7  C   UNL     1       6.336   5.810  16.956  0.00  0.00    +0.000 A 
ATOM      8  C   UNL     1       5.139   5.174  17.360  0.00  0.00    +0.000 A 
BRANCH   3  10
ATOM      9  C   UNL     1       3.629   2.305  17.741  0.00  0.00    +0.000 C 
ATOM     10  O   UNL     1       3.453   3.506  16.989  0.00  0.00    +0.000 OA
ENDBRANCH   3  10
BRANCH   7  11
ATOM     11  O   UNL     1       6.807   6.852  17.716  0.00  0.00    +0.000 OA
ATOM     12  C   UNL     1       7.900   6.559  18.590  0.00  0.00    +0.000 C 
ENDBRANCH   7  11
ENDBRANCH   1   8
BRANCH   1  13
ATOM     13  C   UNL     1       3.310   6.800  18.237  0.00  0.00    +0.000 C 
ATOM     14  C   UNL     1       2.582   7.210  19.293  0.00  0.00    +0.000 C 
BRANCH  14  15
ATOM     15  C   UNL     1       1.656   8.356  19.399  0.00  0.00    +0.000 A 
ATOM     16  C   UNL     1       1.369   9.044  18.201  0.00  0.00    +0.000 A 
ATOM     17  C   UNL     1       0.469  10.110  18.179  0.00  0.00    +0.000 A 
ATOM     18  C   UNL     1      -0.145  10.514  19.357  0.00  0.00    +0.000 A 
ATOM     19  F   UNL     1      -1.019  11.522  19.332  0.00  0.00    +0.000 F 
ATOM     20  C   UNL     1       0.142   9.875  20.560  0.00  0.00    +0.000 A 
ATOM     21  C   UNL     1       1.038   8.803  20.571  0.00  0.00    +0.000 A 
ATOM     22  F   UNL     1       1.300   8.222  21.751  0.00  0.00    +0.000 F 
ENDBRANCH  14  15
ENDBRANCH   1  13
TORSDOF 5
ENDMDL
MODEL 7
REMARK VINA RESULT:      -6.9      1.698      3.279
REMARK  Name = 
REMARK  7 active torsions:
REMARK  status: ('A' for Active; 'I' for Inactive)
REMARK    1  A    between atoms: C_1  and  O_2
REMARK    2  A    between atoms: O_2  and  C_3
REMARK    3  A    between atoms: C_7  and  O_8
REMARK    4  A    between atoms: O_8  and  C_9
REMARK    5  A    between atoms: C_10  and  C_11
REMARK    6  A    between atoms: C_11  and  C_13
REMARK    7  A    between atoms: C_14  and  C_15
REMARK                            x       y       z     vdW  Elec       q    Type
REMARK                         _______ _______ _______ _____ _____    ______ ____
ROOT
ATOM      1  C   UNL     1       4.071   5.925  18.470  0.00  0.00    +0.000 C 
ATOM      2  O   UNL     1       4.288   5.443  19.582  0.00  0.00    +0.000 OA
ENDROOT
BRANCH   1   8
ATOM      3  C   UNL     1       6.013   6.103  16.897  0.00  0.00    +0.000 A 
ATOM      4  C   UNL     1       6.830   5.565  15.896  0.00  0.00    +0.000 A 
ATOM      5  C   UNL     1       6.512   4.351  15.303  0.00  0.00    +0.000 A 
ATOM      6  C   UNL     1       5.365   3.668  15.697  0.00  0.00    +0.000 A 
ATOM      7  C   UNL     1       4.525   4.176  16.697  0.00  0.00    +0.000 A 
ATOM      8  C   UNL     1       4.840   5.418  17.295  0.00  0.00    +0.000 A 
BRANCH   3  10
ATOM      9  C   UNL     1       7.678   7.653  17.584  0.00  0.00    +0.000 C 
ATOM     10  O   UNL     1       6.294   7.320  17.476  0.00  0.00    +0.000 OA
ENDBRANCH   3  10
BRANCH   7  11
ATOM     11  O   UNL     1       3.404   3.512  17.130  0.00  0.00    +0.000 OA
ATOM     12  C   UNL     1       3.623   2.304  17.862  0.00  0.00    +0.000 C 
ENDBRANCH   7  11
ENDBRANCH   1   8
BRANCH   1  13
ATOM     13  C   UNL     1       3.075   7.041  18.300  0.00  0.00    +0.000 C 
ATOM     14  C   UNL     1       2.350   7.382  19.382  0.00  0.00    +0.000 C 
BRANCH  14  15
ATOM     15  C   UNL     1       1.440   8.531  19.572  0.00  0.00    +0.000 A 
ATOM     16  C   UNL     1       0.860   8.667  20.850  0.00  0.00    +0.000 A 
ATOM     17  C   UNL     1       0.025   9.743  21.154  0.00  0.00    +0.000 A 
ATOM     18  C   UNL     1      -0.253  10.691  20.178  0.00  0.00    +0.000 A 
ATOM     19  F   UNL     1      -1.036  11.730  20.474  0.00  0.00    +0.000 F 
ATOM     20  C   UNL     1       0.280  10.568  18.899  0.00  0.00    +0.000 A 
ATOM     21  C   UNL     1       1.121   9.491  18.606  0.00  0.00    +0.000 A 
ATOM     22  F   UNL     1       1.604   9.397  17.359  0.00  0.00    +0.000 F 
ENDBRANCH  14  15
ENDBRANCH   1  13
TORSDOF 5
ENDMDL
MODEL 8
REMARK VINA RESULT:      -6.9      3.688      6.502
REMARK  Name = 
REMARK  7 active torsions:
REMARK  status: ('A' for Active; 'I' for Inactive)
REMARK    1  A    between atoms: C_1  and  O_2
REMARK    2  A    between atoms: O_2  and  C_3
REMARK    3  A    between atoms: C_7  and  O_8
REMARK    4  A    between atoms: O_8  and  C_9
REMARK    5  A    between atoms: C_10  and  C_11
REMARK    6  A    between atoms: C_11  and  C_13
REMARK    7  A    between atoms: C_14  and  C_15
REMARK                            x       y       z     vdW  Elec       q    Type
REMARK                         _______ _______ _______ _____ _____    ______ ____
ROOT
ATOM      1  C   UNL     1       4.975   4.575  18.734  0.00  0.00    +0.000 C 
ATOM      2  O   UNL     1       5.319   5.055  19.814  0.00  0.00    +0.000 OA
ENDROOT
BRANCH   1   8
ATOM      3  C   UNL     1       3.426   2.635  19.076  0.00  0.00    +0.000 A 
ATOM      4  C   UNL     1       2.138   2.089  19.109  0.00  0.00    +0.000 A 
ATOM      5  C   UNL     1       1.042   2.842  18.710  0.00  0.00    +0.000 A 
ATOM      6  C   UNL     1       1.226   4.148  18.261  0.00  0.00    +0.000 A 
ATOM      7  C   UNL     1       2.502   4.727  18.216  0.00  0.00    +0.000 A 
ATOM      8  C   UNL     1       3.621   3.958  18.611  0.00  0.00    +0.000 A 
BRANCH   3  10
ATOM      9  C   UNL     1       4.676   1.641  20.835  0.00  0.00    +0.000 C 
ATOM     10  O   UNL     1       4.528   1.895  19.438  0.00  0.00    +0.000 OA
ENDBRANCH   3  10
BRANCH   7  11
ATOM     11  O   UNL     1       2.713   6.021  17.808  0.00  0.00    +0.000 OA
ATOM     12  C   UNL     1       2.322   7.048  18.722  0.00  0.00    +0.000 C 
ENDBRANCH   7  11
ENDBRANCH   1   8
BRANCH   1  13
ATOM     13  C   UNL     1       5.920   4.568  17.561  0.00  0.00    +0.000 C 
ATOM     14  C   UNL     1       5.405   4.223  16.366  0.00  0.00    +0.000 C 
BRANCH  14  15
ATOM     15  C   UNL     1       6.026   4.294  15.027  0.00  0.00    +0.000 A 
ATOM     16  C   UNL     1       5.397   3.553  14.004  0.00  0.00    +0.000 A 
ATOM     17  C   UNL     1       5.871   3.588  12.692  0.00  0.00    +0.000 A 
ATOM     18  C   UNL     1       6.989   4.353  12.387  0.00  0.00    +0.000 A 
ATOM     19  F   UNL     1       7.430   4.401  11.128  0.00  0.00    +0.000 F 
ATOM     20  C   UNL     1       7.649   5.070  13.380  0.00  0.00    +0.000 A 
ATOM     21  C   UNL     1       7.163   5.035  14.690  0.00  0.00    +0.000 A 
ATOM     22  F   UNL     1       7.833   5.727  15.623  0.00  0.00    +0.000 F 
ENDBRANCH  14  15
ENDBRANCH   1  13
TORSDOF 5
ENDMDL
MODEL 9
REMARK VINA RESULT:      -6.9      1.542      1.914
REMARK  Name = 
REMARK  7 active torsions:
REMARK  status: ('A' for Active; 'I' for Inactive)
REMARK    1  A    between atoms: C_1  and  O_2
REMARK    2  A    between atoms: O_2  and  C_3
REMARK    3  A    between atoms: C_7  and  O_8
REMARK    4  A    between atoms: O_8  and  C_9
REMARK    5  A    between atoms: C_10  and  C_11
REMARK    6  A    between atoms: C_11  and  C_13
REMARK    7  A    between atoms: C_14  and  C_15
REMARK                            x       y       z     vdW  Elec       q    Type
REMARK                         _______ _______ _______ _____ _____    ______ ____
ROOT
ATOM      1  C   UNL     1       4.690   5.600  18.641  0.00  0.00    +0.000 C 
ATOM      2  O   UNL     1       4.937   5.153  19.761  0.00  0.00    +0.000 OA
ENDROOT
BRANCH   1   8
ATOM      3  C   UNL     1       4.738   4.176  16.580  0.00  0.00    +0.000 A 
ATOM      4  C   UNL     1       5.351   3.766  15.389  0.00  0.00    +0.000 A 
ATOM      5  C   UNL     1       6.615   4.228  15.052  0.00  0.00    +0.000 A 
ATOM      6  C   UNL     1       7.287   5.096  15.909  0.00  0.00    +0.000 A 
ATOM      7  C   UNL     1       6.704   5.528  17.109  0.00  0.00    +0.000 A 
ATOM      8  C   UNL     1       5.420   5.050  17.460  0.00  0.00    +0.000 A 
BRANCH   3  10
ATOM      9  C   UNL     1       3.489   2.470  17.662  0.00  0.00    +0.000 C 
ATOM     10  O   UNL     1       3.498   3.705  16.947  0.00  0.00    +0.000 OA
ENDBRANCH   3  10
BRANCH   7  11
ATOM     11  O   UNL     1       7.326   6.407  17.960  0.00  0.00    +0.000 OA
ATOM     12  C   UNL     1       7.561   7.724  17.455  0.00  0.00    +0.000 C 
ENDBRANCH   7  11
ENDBRANCH   1   8
BRANCH   1  13
ATOM     13  C   UNL     1       3.696   6.717  18.463  0.00  0.00    +0.000 C 
ATOM     14  C   UNL     1       2.796   6.895  19.448  0.00  0.00    +0.000 C 
BRANCH  14  15
ATOM     15  C   UNL     1       1.829   7.995  19.641  0.00  0.00    +0.000 A 
ATOM     16  C   UNL     1       1.236   8.092  20.918  0.00  0.00    +0.000 A 
ATOM     17  C   UNL     1       0.346   9.122  21.224  0.00  0.00    +0.000 A 
ATOM     18  C   UNL     1       0.025  10.062  20.254  0.00  0.00    +0.000 A 
ATOM     19  F   UNL     1      -0.811  11.058  20.553  0.00  0.00    +0.000 F 
ATOM     20  C   UNL     1       0.570   9.976  18.976  0.00  0.00    +0.000 A 
ATOM     21  C   UNL     1       1.466   8.945  18.681  0.00  0.00    +0.000 A 
ATOM     22  F   UNL     1       1.960   8.885  17.436  0.00  0.00    +0.000 F 
ENDBRANCH  14  15
ENDBRANCH   1  13
TORSDOF 5
ENDMDL
