MODEL 1
REMARK VINA RESULT:      -8.3      0.000      0.000
REMARK  Name = 
REMARK  11 active torsions:
REMARK  status: ('A' for Active; 'I' for Inactive)
REMARK    1  A    between atoms: C_1  and  C_2
REMARK    2  A    between atoms: C_2  and  C_3
REMARK    3  A    between atoms: C_2  and  C_4
REMARK    4  A    between atoms: C_2  and  O_5
REMARK    5  A    between atoms: O_5  and  C_6
REMARK    6  A    between atoms: C_11  and  C_12
REMARK    7  A    between atoms: N_14  and  C_15
REMARK    8  A    between atoms: C_18  and  C_19
REMARK    9  A    between atoms: N_21  and  C_22
REMARK   10  A    between atoms: C_22  and  C_23
REMARK   11  A    between atoms: C_23  and  C_24
REMARK                            x       y       z     vdW  Elec       q    Type
REMARK                         _______ _______ _______ _____ _____    ______ ____
ROOT
ATOM      1  C   UNL     1       1.282   9.277  18.862  0.00  0.00    +0.000 A 
ATOM      2  C   UNL     1       2.014   8.974  17.712  0.00  0.00    +0.000 A 
ATOM      3  C   UNL     1       2.828   7.840  17.644  0.00  0.00    +0.000 A 
ATOM      4  C   UNL     1       2.917   6.980  18.738  0.00  0.00    +0.000 A 
ATOM      5  C   UNL     1       2.217   7.292  19.910  0.00  0.00    +0.000 A 
ATOM      6  C   UNL     1       1.407   8.437  19.976  0.00  0.00    +0.000 A 
ENDROOT
BRANCH   1   9
ATOM      7  C   UNL     1       0.910  11.726  18.993  0.00  0.00    +0.000 C 
ATOM      8  O   UNL     1       2.076  12.059  18.795  0.00  0.00    +0.000 OA
ATOM      9  N   UNL     1       0.450  10.417  18.951  0.00  0.00    +0.000 N 
ATOM     10  H   UNL     1      -0.544  10.275  18.846  0.00  0.00    +0.000 HD
BRANCH   7  16
ATOM     11  C   UNL     1      -0.809  13.955  23.173  0.00  0.00    +0.000 C 
ATOM     12  O   UNL     1      -0.344  15.051  23.478  0.00  0.00    +0.000 OA
ATOM     13  N   UNL     1      -0.326  13.230  22.102  0.00  0.00    +0.000 N 
ATOM     14  C   UNL     1       0.824  13.744  21.370  0.00  0.00    +0.000 C 
ATOM     15  C   UNL     1       0.440  14.022  19.917  0.00  0.00    +0.000 C 
ATOM     16  C   UNL     1      -0.175  12.776  19.248  0.00  0.00    +0.000 C 
ATOM     17  C   UNL     1      -1.339  12.245  20.105  0.00  0.00    +0.000 C 
ATOM     18  C   UNL     1      -0.933  12.022  21.566  0.00  0.00    +0.000 C 
BRANCH  11  19
ATOM     19  O   UNL     1      -1.828  13.346  23.847  0.00  0.00    +0.000 OA
BRANCH  19  21
ATOM     20  C   UNL     1      -3.403  14.640  22.480  0.00  0.00    +0.000 C 
ATOM     21  C   UNL     1      -3.135  13.983  23.842  0.00  0.00    +0.000 C 
ATOM     22  C   UNL     1      -3.285  14.966  25.015  0.00  0.00    +0.000 C 
ATOM     23  C   UNL     1      -4.183  12.871  24.030  0.00  0.00    +0.000 C 
ENDBRANCH  19  21
ENDBRANCH  11  19
ENDBRANCH   7  16
ENDBRANCH   1   9
BRANCH   4  24
ATOM     24  C   UNL     1       3.796   5.777  18.681  0.00  0.00    +0.000 C 
ATOM     25  O   UNL     1       4.655   5.606  19.539  0.00  0.00    +0.000 OA
ATOM     26  N   UNL     1       3.570   4.902  17.634  0.00  0.00    +0.000 N 
ATOM     27  H   UNL     1       2.718   4.988  17.097  0.00  0.00    +0.000 HD
BRANCH  26  28
ATOM     28  C   UNL     1       4.378   3.703  17.474  0.00  0.00    +0.000 C 
BRANCH  28  29
ATOM     29  C   UNL     1       3.606   2.423  17.808  0.00  0.00    +0.000 C 
BRANCH  29  30
ATOM     30  C   UNL     1       2.780   2.574  19.062  0.00  0.00    +0.000 A 
ATOM     31  C   UNL     1       1.404   2.834  18.986  0.00  0.00    +0.000 A 
ATOM     32  C   UNL     1       0.654   3.031  20.148  0.00  0.00    +0.000 A 
ATOM     33  C   UNL     1       1.269   2.968  21.397  0.00  0.00    +0.000 A 
ATOM     34  C   UNL     1       2.633   2.696  21.485  0.00  0.00    +0.000 A 
ATOM     35  C   UNL     1       3.385   2.500  20.325  0.00  0.00    +0.000 A 
ENDBRANCH  29  30
ENDBRANCH  28  29
ENDBRANCH  26  28
ENDBRANCH   4  24
TORSDOF 8
ENDMDL
MODEL 2
REMARK VINA RESULT:      -8.1      1.421      1.939
REMARK  Name = 
REMARK  11 active torsions:
REMARK  status: ('A' for Active; 'I' for Inactive)
REMARK    1  A    between atoms: C_1  and  C_2
REMARK    2  A    between atoms: C_2  and  C_3
REMARK    3  A    between atoms: C_2  and  C_4
REMARK    4  A    between atoms: C_2  and  O_5
REMARK    5  A    between atoms: O_5  and  C_6
REMARK    6  A    between atoms: C_11  and  C_12
REMARK    7  A    between atoms: N_14  and  C_15
REMARK    8  A    between atoms: C_18  and  C_19
REMARK    9  A    between atoms: N_21  and  C_22
REMARK   10  A    between atoms: C_22  and  C_23
REMARK   11  A    between atoms: C_23  and  C_24
REMARK                            x       y       z     vdW  Elec       q    Type
REMARK                         _______ _______ _______ _____ _____    ______ ____
ROOT
ATOM      1  C   UNL     1       1.074   9.858  19.264  0.00  0.00    +0.000 A 
ATOM      2  C   UNL     1       1.155   8.900  20.277  0.00  0.00    +0.000 A 
ATOM      3  C   UNL     1       1.882   7.718  20.107  0.00  0.00    +0.000 A 
ATOM      4  C   UNL     1       2.550   7.477  18.907  0.00  0.00    +0.000 A 
ATOM      5  C   UNL     1       2.446   8.413  17.869  0.00  0.00    +0.000 A 
ATOM      6  C   UNL     1       1.708   9.595  18.042  0.00  0.00    +0.000 A 
ENDROOT
BRANCH   1   9
ATOM      7  C   UNL     1       0.636  12.040  20.356  0.00  0.00    +0.000 C 
ATOM      8  O   UNL     1       1.647  12.058  21.054  0.00  0.00    +0.000 OA
ATOM      9  N   UNL     1       0.348  11.061  19.417  0.00  0.00    +0.000 N 
ATOM     10  H   UNL     1      -0.343  11.278  18.712  0.00  0.00    +0.000 HD
BRANCH   7  16
ATOM     11  C   UNL     1      -3.387  12.864  23.277  0.00  0.00    +0.000 C 
ATOM     12  O   UNL     1      -3.244  13.567  24.276  0.00  0.00    +0.000 OA
ATOM     13  N   UNL     1      -2.319  12.506  22.478  0.00  0.00    +0.000 N 
ATOM     14  C   UNL     1      -0.978  12.905  22.882  0.00  0.00    +0.000 C 
ATOM     15  C   UNL     1      -0.363  13.825  21.828  0.00  0.00    +0.000 C 
ATOM     16  C   UNL     1      -0.389  13.176  20.429  0.00  0.00    +0.000 C 
ATOM     17  C   UNL     1      -1.820  12.719  20.093  0.00  0.00    +0.000 C 
ATOM     18  C   UNL     1      -2.424  11.837  21.191  0.00  0.00    +0.000 C 
BRANCH  11  19
ATOM     19  O   UNL     1      -4.588  12.368  22.862  0.00  0.00    +0.000 OA
BRANCH  19  21
ATOM     20  C   UNL     1      -4.993  14.465  21.653  0.00  0.00    +0.000 C 
ATOM     21  C   UNL     1      -5.617  13.309  22.449  0.00  0.00    +0.000 C 
ATOM     22  C   UNL     1      -6.449  13.795  23.648  0.00  0.00    +0.000 C 
ATOM     23  C   UNL     1      -6.566  12.557  21.499  0.00  0.00    +0.000 C 
ENDBRANCH  19  21
ENDBRANCH  11  19
ENDBRANCH   7  16
ENDBRANCH   1   9
BRANCH   4  24
ATOM     24  C   UNL     1       3.312   6.212  18.709  0.00  0.00    +0.000 C 
ATOM     25  O   UNL     1       4.116   5.843  19.557  0.00  0.00    +0.000 OA
ATOM     26  N   UNL     1       3.046   5.512  17.546  0.00  0.00    +0.000 N 
ATOM     27  H   UNL     1       2.227   5.754  17.004  0.00  0.00    +0.000 HD
BRANCH  26  28
ATOM     28  C   UNL     1       3.742   4.271  17.244  0.00  0.00    +0.000 C 
BRANCH  28  29
ATOM     29  C   UNL     1       2.869   3.034  17.474  0.00  0.00    +0.000 C 
BRANCH  29  30
ATOM     30  C   UNL     1       2.439   2.908  18.916  0.00  0.00    +0.000 A 
ATOM     31  C   UNL     1       1.124   3.206  19.298  0.00  0.00    +0.000 A 
ATOM     32  C   UNL     1       0.745   3.145  20.641  0.00  0.00    +0.000 A 
ATOM     33  C   UNL     1       1.674   2.783  21.615  0.00  0.00    +0.000 A 
ATOM     34  C   UNL     1       2.981   2.471  21.244  0.00  0.00    +0.000 A 
ATOM     35  C   UNL     1       3.362   2.533  19.902  0.00  0.00    +0.000 A 
ENDBRANCH  29  30
ENDBRANCH  28  29
ENDBRANCH  26  28
ENDBRANCH   4  24
TORSDOF 8
ENDMDL
MODEL 3
REMARK VINA RESULT:      -8.1      0.146      1.398
REMARK  Name = 
REMARK  11 active torsions:
REMARK  status: ('A' for Active; 'I' for Inactive)
REMARK    1  A    between atoms: C_1  and  C_2
REMARK    2  A    between atoms: C_2  and  C_3
REMARK    3  A    between atoms: C_2  and  C_4
REMARK    4  A    between atoms: C_2  and  O_5
REMARK    5  A    between atoms: O_5  and  C_6
REMARK    6  A    between atoms: C_11  and  C_12
REMARK    7  A    between atoms: N_14  and  C_15
REMARK    8  A    between atoms: C_18  and  C_19
REMARK    9  A    between atoms: N_21  and  C_22
REMARK   10  A    between atoms: C_22  and  C_23
REMARK   11  A    between atoms: C_23  and  C_24
REMARK                            x       y       z     vdW  Elec       q    Type
REMARK                         _______ _______ _______ _____ _____    ______ ____
ROOT
ATOM      1  C   UNL     1       1.310   9.275  18.873  0.00  0.00    +0.000 A 
ATOM      2  C   UNL     1       1.448   8.391  19.946  0.00  0.00    +0.000 A 
ATOM      3  C   UNL     1       2.269   7.264  19.860  0.00  0.00    +0.000 A 
ATOM      4  C   UNL     1       2.977   7.005  18.687  0.00  0.00    +0.000 A 
ATOM      5  C   UNL     1       2.820   7.864  17.592  0.00  0.00    +0.000 A 
ATOM      6  C   UNL     1       1.986   8.991  17.680  0.00  0.00    +0.000 A 
ENDROOT
BRANCH   1   9
ATOM      7  C   UNL     1       0.953  11.729  18.897  0.00  0.00    +0.000 C 
ATOM      8  O   UNL     1       2.110  12.046  18.632  0.00  0.00    +0.000 OA
ATOM      9  N   UNL     1       0.487  10.423  18.940  0.00  0.00    +0.000 N 
ATOM     10  H   UNL     1      -0.512  10.281  18.885  0.00  0.00    +0.000 HD
BRANCH   7  16
ATOM     11  C   UNL     1      -0.736  14.009  23.061  0.00  0.00    +0.000 C 
ATOM     12  O   UNL     1      -0.256  15.100  23.360  0.00  0.00    +0.000 OA
ATOM     13  N   UNL     1      -0.263  13.270  21.995  0.00  0.00    +0.000 N 
ATOM     14  C   UNL     1       0.895  13.764  21.261  0.00  0.00    +0.000 C 
ATOM     15  C   UNL     1       0.516  14.039  19.805  0.00  0.00    +0.000 C 
ATOM     16  C   UNL     1      -0.117  12.797  19.144  0.00  0.00    +0.000 C 
ATOM     17  C   UNL     1      -1.289  12.288  20.003  0.00  0.00    +0.000 C 
ATOM     18  C   UNL     1      -0.888  12.069  21.466  0.00  0.00    +0.000 C 
BRANCH  11  19
ATOM     19  O   UNL     1      -1.764  13.419  23.738  0.00  0.00    +0.000 OA
BRANCH  19  21
ATOM     20  C   UNL     1      -4.155  12.877  23.641  0.00  0.00    +0.000 C 
ATOM     21  C   UNL     1      -3.096  13.987  23.600  0.00  0.00    +0.000 C 
ATOM     22  C   UNL     1      -3.205  14.866  22.343  0.00  0.00    +0.000 C 
ATOM     23  C   UNL     1      -3.332  14.894  24.822  0.00  0.00    +0.000 C 
ENDBRANCH  19  21
ENDBRANCH  11  19
ENDBRANCH   7  16
ENDBRANCH   1   9
BRANCH   4  24
ATOM     24  C   UNL     1       3.842   5.796  18.580  0.00  0.00    +0.000 C 
ATOM     25  O   UNL     1       4.745   5.615  19.388  0.00  0.00    +0.000 OA
ATOM     26  N   UNL     1       3.552   4.925  17.544  0.00  0.00    +0.000 N 
ATOM     27  H   UNL     1       2.672   5.020  17.056  0.00  0.00    +0.000 HD
BRANCH  26  28
ATOM     28  C   UNL     1       4.340   3.720  17.337  0.00  0.00    +0.000 C 
BRANCH  28  29
ATOM     29  C   UNL     1       3.591   2.448  17.747  0.00  0.00    +0.000 C 
BRANCH  29  30
ATOM     30  C   UNL     1       2.799   2.645  19.017  0.00  0.00    +0.000 A 
ATOM     31  C   UNL     1       3.417   2.531  20.270  0.00  0.00    +0.000 A 
ATOM     32  C   UNL     1       2.670   2.656  21.443  0.00  0.00    +0.000 A 
ATOM     33  C   UNL     1       1.299   2.900  21.377  0.00  0.00    +0.000 A 
ATOM     34  C   UNL     1       0.677   3.030  20.136  0.00  0.00    +0.000 A 
ATOM     35  C   UNL     1       1.423   2.904  18.963  0.00  0.00    +0.000 A 
ENDBRANCH  29  30
ENDBRANCH  28  29
ENDBRANCH  26  28
ENDBRANCH   4  24
TORSDOF 8
ENDMDL
MODEL 4
REMARK VINA RESULT:      -8.0      2.168      3.574
REMARK  Name = 
REMARK  11 active torsions:
REMARK  status: ('A' for Active; 'I' for Inactive)
REMARK    1  A    between atoms: C_1  and  C_2
REMARK    2  A    between atoms: C_2  and  C_3
REMARK    3  A    between atoms: C_2  and  C_4
REMARK    4  A    between atoms: C_2  and  O_5
REMARK    5  A    between atoms: O_5  and  C_6
REMARK    6  A    between atoms: C_11  and  C_12
REMARK    7  A    between atoms: N_14  and  C_15
REMARK    8  A    between atoms: C_18  and  C_19
REMARK    9  A    between atoms: N_21  and  C_22
REMARK   10  A    between atoms: C_22  and  C_23
REMARK   11  A    between atoms: C_23  and  C_24
REMARK                            x       y       z     vdW  Elec       q    Type
REMARK                         _______ _______ _______ _____ _____    ______ ____
ROOT
ATOM      1  C   UNL     1       0.850   9.973  19.702  0.00  0.00    +0.000 A 
ATOM      2  C   UNL     1       0.952   9.017  20.716  0.00  0.00    +0.000 A 
ATOM      3  C   UNL     1       1.638   7.816  20.518  0.00  0.00    +0.000 A 
ATOM      4  C   UNL     1       2.244   7.553  19.290  0.00  0.00    +0.000 A 
ATOM      5  C   UNL     1       2.117   8.487  18.253  0.00  0.00    +0.000 A 
ATOM      6  C   UNL     1       1.419   9.689  18.454  0.00  0.00    +0.000 A 
ENDROOT
BRANCH   1   9
ATOM      7  C   UNL     1       0.653  12.275  20.603  0.00  0.00    +0.000 C 
ATOM      8  O   UNL     1       1.803  12.361  21.031  0.00  0.00    +0.000 OA
ATOM      9  N   UNL     1       0.163  11.196  19.882  0.00  0.00    +0.000 N 
ATOM     10  H   UNL     1      -0.679  11.339  19.343  0.00  0.00    +0.000 HD
BRANCH   7  16
ATOM     11  C   UNL     1      -3.636  12.737  23.207  0.00  0.00    +0.000 C 
ATOM     12  O   UNL     1      -3.582  13.235  24.329  0.00  0.00    +0.000 OA
ATOM     13  N   UNL     1      -2.499  12.482  22.466  0.00  0.00    +0.000 N 
ATOM     14  C   UNL     1      -1.198  12.734  23.072  0.00  0.00    +0.000 C 
ATOM     15  C   UNL     1      -0.448  13.803  22.278  0.00  0.00    +0.000 C 
ATOM     16  C   UNL     1      -0.341  13.426  20.785  0.00  0.00    +0.000 C 
ATOM     17  C   UNL     1      -1.740  13.108  20.226  0.00  0.00    +0.000 C 
ATOM     18  C   UNL     1      -2.483  12.068  21.072  0.00  0.00    +0.000 C 
BRANCH  11  19
ATOM     19  O   UNL     1      -4.799  12.384  22.587  0.00  0.00    +0.000 OA
BRANCH  19  21
ATOM     20  C   UNL     1      -4.988  14.709  21.826  0.00  0.00    +0.000 C 
ATOM     21  C   UNL     1      -5.741  13.436  22.238  0.00  0.00    +0.000 C 
ATOM     22  C   UNL     1      -6.752  13.683  23.369  0.00  0.00    +0.000 C 
ATOM     23  C   UNL     1      -6.529  12.950  21.007  0.00  0.00    +0.000 C 
ENDBRANCH  19  21
ENDBRANCH  11  19
ENDBRANCH   7  16
ENDBRANCH   1   9
BRANCH   4  24
ATOM     24  C   UNL     1       2.962   6.267  19.063  0.00  0.00    +0.000 C 
ATOM     25  O   UNL     1       3.585   5.744  19.980  0.00  0.00    +0.000 OA
ATOM     26  N   UNL     1       2.868   5.729  17.792  0.00  0.00    +0.000 N 
ATOM     27  H   UNL     1       2.171   6.091  17.156  0.00  0.00    +0.000 HD
BRANCH  26  28
ATOM     28  C   UNL     1       3.541   4.484  17.456  0.00  0.00    +0.000 C 
BRANCH  28  29
ATOM     29  C   UNL     1       4.755   4.697  16.546  0.00  0.00    +0.000 C 
BRANCH  29  30
ATOM     30  C   UNL     1       5.849   5.473  17.238  0.00  0.00    +0.000 A 
ATOM     31  C   UNL     1       6.164   6.779  16.835  0.00  0.00    +0.000 A 
ATOM     32  C   UNL     1       7.216   7.472  17.438  0.00  0.00    +0.000 A 
ATOM     33  C   UNL     1       7.960   6.872  18.453  0.00  0.00    +0.000 A 
ATOM     34  C   UNL     1       7.645   5.580  18.871  0.00  0.00    +0.000 A 
ATOM     35  C   UNL     1       6.596   4.884  18.268  0.00  0.00    +0.000 A 
ENDBRANCH  29  30
ENDBRANCH  28  29
ENDBRANCH  26  28
ENDBRANCH   4  24
TORSDOF 8
ENDMDL
MODEL 5
REMARK VINA RESULT:      -8.0      1.687      3.098
REMARK  Name = 
REMARK  11 active torsions:
REMARK  status: ('A' for Active; 'I' for Inactive)
REMARK    1  A    between atoms: C_1  and  C_2
REMARK    2  A    between atoms: C_2  and  C_3
REMARK    3  A    between atoms: C_2  and  C_4
REMARK    4  A    between atoms: C_2  and  O_5
REMARK    5  A    between atoms: O_5  and  C_6
REMARK    6  A    between atoms: C_11  and  C_12
REMARK    7  A    between atoms: N_14  and  C_15
REMARK    8  A    between atoms: C_18  and  C_19
REMARK    9  A    between atoms: N_21  and  C_22
REMARK   10  A    between atoms: C_22  and  C_23
REMARK   11  A    between atoms: C_23  and  C_24
REMARK                            x       y       z     vdW  Elec       q    Type
REMARK                         _______ _______ _______ _____ _____    ______ ____
ROOT
ATOM      1  C   UNL     1       1.168   9.471  19.020  0.00  0.00    +0.000 A 
ATOM      2  C   UNL     1       1.352   8.648  20.133  0.00  0.00    +0.000 A 
ATOM      3  C   UNL     1       2.093   7.466  20.051  0.00  0.00    +0.000 A 
ATOM      4  C   UNL     1       2.670   7.088  18.840  0.00  0.00    +0.000 A 
ATOM      5  C   UNL     1       2.462   7.885  17.707  0.00  0.00    +0.000 A 
ATOM      6  C   UNL     1       1.710   9.068  17.792  0.00  0.00    +0.000 A 
ENDROOT
BRANCH   1   9
ATOM      7  C   UNL     1       0.980  11.944  19.035  0.00  0.00    +0.000 C 
ATOM      8  O   UNL     1       2.157  12.180  18.770  0.00  0.00    +0.000 OA
ATOM      9  N   UNL     1       0.426  10.672  19.082  0.00  0.00    +0.000 N 
ATOM     10  H   UNL     1      -0.580  10.600  19.026  0.00  0.00    +0.000 HD
BRANCH   7  16
ATOM     11  C   UNL     1      -0.942  14.002  23.213  0.00  0.00    +0.000 C 
ATOM     12  O   UNL     1      -0.405  15.012  23.662  0.00  0.00    +0.000 OA
ATOM     13  N   UNL     1      -0.423  13.318  22.132  0.00  0.00    +0.000 N 
ATOM     14  C   UNL     1       0.845  13.760  21.567  0.00  0.00    +0.000 C 
ATOM     15  C   UNL     1       0.648  14.196  20.115  0.00  0.00    +0.000 C 
ATOM     16  C   UNL     1      -0.015  13.083  19.278  0.00  0.00    +0.000 C 
ATOM     17  C   UNL     1      -1.311  12.615  19.964  0.00  0.00    +0.000 C 
ATOM     18  C   UNL     1      -1.089  12.232  21.431  0.00  0.00    +0.000 C 
BRANCH  11  19
ATOM     19  O   UNL     1      -2.084  13.457  23.726  0.00  0.00    +0.000 OA
BRANCH  19  21
ATOM     20  C   UNL     1      -3.447  14.976  22.363  0.00  0.00    +0.000 C 
ATOM     21  C   UNL     1      -3.297  14.258  23.712  0.00  0.00    +0.000 C 
ATOM     22  C   UNL     1      -3.346  15.225  24.907  0.00  0.00    +0.000 C 
ATOM     23  C   UNL     1      -4.485  13.288  23.851  0.00  0.00    +0.000 C 
ENDBRANCH  19  21
ENDBRANCH  11  19
ENDBRANCH   7  16
ENDBRANCH   1   9
BRANCH   4  24
ATOM     24  C   UNL     1       3.447   5.820  18.737  0.00  0.00    +0.000 C 
ATOM     25  O   UNL     1       3.983   5.348  19.733  0.00  0.00    +0.000 OA
ATOM     26  N   UNL     1       3.505   5.237  17.484  0.00  0.00    +0.000 N 
ATOM     27  H   UNL     1       2.870   5.554  16.765  0.00  0.00    +0.000 HD
BRANCH  26  28
ATOM     28  C   UNL     1       4.247   4.004  17.266  0.00  0.00    +0.000 C 
BRANCH  28  29
ATOM     29  C   UNL     1       5.577   4.236  16.542  0.00  0.00    +0.000 C 
BRANCH  29  30
ATOM     30  C   UNL     1       6.449   5.229  17.272  0.00  0.00    +0.000 A 
ATOM     31  C   UNL     1       6.665   6.512  16.748  0.00  0.00    +0.000 A 
ATOM     32  C   UNL     1       7.519   7.408  17.395  0.00  0.00    +0.000 A 
ATOM     33  C   UNL     1       8.163   7.034  18.574  0.00  0.00    +0.000 A 
ATOM     34  C   UNL     1       7.945   5.766  19.111  0.00  0.00    +0.000 A 
ATOM     35  C   UNL     1       7.092   4.869  18.464  0.00  0.00    +0.000 A 
ENDBRANCH  29  30
ENDBRANCH  28  29
ENDBRANCH  26  28
ENDBRANCH   4  24
TORSDOF 8
ENDMDL
MODEL 6
REMARK VINA RESULT:      -7.9      0.986      1.254
REMARK  Name = 
REMARK  11 active torsions:
REMARK  status: ('A' for Active; 'I' for Inactive)
REMARK    1  A    between atoms: C_1  and  C_2
REMARK    2  A    between atoms: C_2  and  C_3
REMARK    3  A    between atoms: C_2  and  C_4
REMARK    4  A    between atoms: C_2  and  O_5
REMARK    5  A    between atoms: O_5  and  C_6
REMARK    6  A    between atoms: C_11  and  C_12
REMARK    7  A    between atoms: N_14  and  C_15
REMARK    8  A    between atoms: C_18  and  C_19
REMARK    9  A    between atoms: N_21  and  C_22
REMARK   10  A    between atoms: C_22  and  C_23
REMARK   11  A    between atoms: C_23  and  C_24
REMARK                            x       y       z     vdW  Elec       q    Type
REMARK                         _______ _______ _______ _____ _____    ______ ____
ROOT
ATOM      1  C   UNL     1       1.336   9.431  19.065  0.00  0.00    +0.000 A 
ATOM      2  C   UNL     1       2.031   9.204  17.875  0.00  0.00    +0.000 A 
ATOM      3  C   UNL     1       2.772   8.035  17.676  0.00  0.00    +0.000 A 
ATOM      4  C   UNL     1       2.824   7.065  18.675  0.00  0.00    +0.000 A 
ATOM      5  C   UNL     1       2.162   7.297  19.888  0.00  0.00    +0.000 A 
ATOM      6  C   UNL     1       1.425   8.476  20.086  0.00  0.00    +0.000 A 
ENDROOT
BRANCH   1   9
ATOM      7  C   UNL     1      -0.690  10.830  18.770  0.00  0.00    +0.000 C 
ATOM      8  O   UNL     1      -1.371   9.980  18.201  0.00  0.00    +0.000 OA
ATOM      9  N   UNL     1       0.578  10.604  19.286  0.00  0.00    +0.000 N 
ATOM     10  H   UNL     1       0.929  11.262  19.967  0.00  0.00    +0.000 HD
BRANCH   7  16
ATOM     11  C   UNL     1      -0.682  13.864  22.794  0.00  0.00    +0.000 C 
ATOM     12  O   UNL     1       0.206  14.709  22.881  0.00  0.00    +0.000 OA
ATOM     13  N   UNL     1      -0.703  12.929  21.778  0.00  0.00    +0.000 N 
ATOM     14  C   UNL     1       0.408  12.894  20.836  0.00  0.00    +0.000 C 
ATOM     15  C   UNL     1      -0.093  13.190  19.423  0.00  0.00    +0.000 C 
ATOM     16  C   UNL     1      -1.239  12.238  19.020  0.00  0.00    +0.000 C 
ATOM     17  C   UNL     1      -2.346  12.273  20.088  0.00  0.00    +0.000 C 
ATOM     18  C   UNL     1      -1.804  12.020  21.499  0.00  0.00    +0.000 C 
BRANCH  11  19
ATOM     19  O   UNL     1      -1.719  13.757  23.675  0.00  0.00    +0.000 OA
BRANCH  19  21
ATOM     20  C   UNL     1      -4.148  14.060  23.851  0.00  0.00    +0.000 C 
ATOM     21  C   UNL     1      -2.792  14.735  23.598  0.00  0.00    +0.000 C 
ATOM     22  C   UNL     1      -2.753  15.509  22.270  0.00  0.00    +0.000 C 
ATOM     23  C   UNL     1      -2.565  15.749  24.734  0.00  0.00    +0.000 C 
ENDBRANCH  19  21
ENDBRANCH  11  19
ENDBRANCH   7  16
ENDBRANCH   1   9
BRANCH   4  24
ATOM     24  C   UNL     1       3.626   5.824  18.480  0.00  0.00    +0.000 C 
ATOM     25  O   UNL     1       4.599   5.604  19.193  0.00  0.00    +0.000 OA
ATOM     26  N   UNL     1       3.199   4.970  17.478  0.00  0.00    +0.000 N 
ATOM     27  H   UNL     1       2.279   5.101  17.081  0.00  0.00    +0.000 HD
BRANCH  26  28
ATOM     28  C   UNL     1       3.915   3.737  17.191  0.00  0.00    +0.000 C 
BRANCH  28  29
ATOM     29  C   UNL     1       3.132   2.489  17.611  0.00  0.00    +0.000 C 
BRANCH  29  30
ATOM     30  C   UNL     1       2.522   2.642  18.983  0.00  0.00    +0.000 A 
ATOM     31  C   UNL     1       1.179   3.015  19.131  0.00  0.00    +0.000 A 
ATOM     32  C   UNL     1       0.634   3.213  20.402  0.00  0.00    +0.000 A 
ATOM     33  C   UNL     1       1.423   3.035  21.537  0.00  0.00    +0.000 A 
ATOM     34  C   UNL     1       2.756   2.650  21.402  0.00  0.00    +0.000 A 
ATOM     35  C   UNL     1       3.302   2.454  20.132  0.00  0.00    +0.000 A 
ENDBRANCH  29  30
ENDBRANCH  28  29
ENDBRANCH  26  28
ENDBRANCH   4  24
TORSDOF 8
ENDMDL
MODEL 7
REMARK VINA RESULT:      -7.9      6.433      8.722
REMARK  Name = 
REMARK  11 active torsions:
REMARK  status: ('A' for Active; 'I' for Inactive)
REMARK    1  A    between atoms: C_1  and  C_2
REMARK    2  A    between atoms: C_2  and  C_3
REMARK    3  A    between atoms: C_2  and  C_4
REMARK    4  A    between atoms: C_2  and  O_5
REMARK    5  A    between atoms: O_5  and  C_6
REMARK    6  A    between atoms: C_11  and  C_12
REMARK    7  A    between atoms: N_14  and  C_15
REMARK    8  A    between atoms: C_18  and  C_19
REMARK    9  A    between atoms: N_21  and  C_22
REMARK   10  A    between atoms: C_22  and  C_23
REMARK   11  A    between atoms: C_23  and  C_24
REMARK                            x       y       z     vdW  Elec       q    Type
REMARK                         _______ _______ _______ _____ _____    ______ ____
ROOT
ATOM      1  C   UNL     1       8.017   7.354  18.418  0.00  0.00    +0.000 A 
ATOM      2  C   UNL     1       7.215   7.526  17.288  0.00  0.00    +0.000 A 
ATOM      3  C   UNL     1       6.331   6.530  16.863  0.00  0.00    +0.000 A 
ATOM      4  C   UNL     1       6.233   5.335  17.575  0.00  0.00    +0.000 A 
ATOM      5  C   UNL     1       7.059   5.135  18.689  0.00  0.00    +0.000 A 
ATOM      6  C   UNL     1       7.952   6.136  19.107  0.00  0.00    +0.000 A 
ENDROOT
BRANCH   1   9
ATOM      7  C   UNL     1       8.834   9.693  18.528  0.00  0.00    +0.000 C 
ATOM      8  O   UNL     1       7.887  10.205  17.936  0.00  0.00    +0.000 OA
ATOM      9  N   UNL     1       8.915   8.350  18.867  0.00  0.00    +0.000 N 
ATOM     10  H   UNL     1       9.578   8.088  19.582  0.00  0.00    +0.000 HD
BRANCH   7  16
ATOM     11  C   UNL     1       9.355  14.611  19.495  0.00  0.00    +0.000 C 
ATOM     12  O   UNL     1       9.219  14.991  20.656  0.00  0.00    +0.000 OA
ATOM     13  N   UNL     1       9.132  13.299  19.126  0.00  0.00    +0.000 N 
ATOM     14  C   UNL     1       8.639  12.364  20.128  0.00  0.00    +0.000 C 
ATOM     15  C   UNL     1       9.652  11.240  20.341  0.00  0.00    +0.000 C 
ATOM     16  C   UNL     1      10.012  10.545  19.011  0.00  0.00    +0.000 C 
ATOM     17  C   UNL     1      10.460  11.595  17.979  0.00  0.00    +0.000 C 
ATOM     18  C   UNL     1       9.444  12.732  17.824  0.00  0.00    +0.000 C 
BRANCH  11  19
ATOM     19  O   UNL     1       9.729  15.426  18.467  0.00  0.00    +0.000 OA
BRANCH  19  21
ATOM     20  C   UNL     1      12.041  14.993  19.166  0.00  0.00    +0.000 C 
ATOM     21  C   UNL     1      11.079  15.968  18.472  0.00  0.00    +0.000 C 
ATOM     22  C   UNL     1      11.117  17.377  19.086  0.00  0.00    +0.000 C 
ATOM     23  C   UNL     1      11.526  16.088  17.004  0.00  0.00    +0.000 C 
ENDBRANCH  19  21
ENDBRANCH  11  19
ENDBRANCH   7  16
ENDBRANCH   1   9
BRANCH   4  24
ATOM     24  C   UNL     1       5.307   4.260  17.119  0.00  0.00    +0.000 C 
ATOM     25  O   UNL     1       5.140   4.063  15.922  0.00  0.00    +0.000 OA
ATOM     26  N   UNL     1       4.685   3.526  18.114  0.00  0.00    +0.000 N 
ATOM     27  H   UNL     1       5.029   3.593  19.062  0.00  0.00    +0.000 HD
BRANCH  26  28
ATOM     28  C   UNL     1       3.751   2.461  17.784  0.00  0.00    +0.000 C 
BRANCH  28  29
ATOM     29  C   UNL     1       2.289   2.917  17.850  0.00  0.00    +0.000 C 
BRANCH  29  30
ATOM     30  C   UNL     1       2.136   4.208  18.617  0.00  0.00    +0.000 A 
ATOM     31  C   UNL     1       2.319   5.443  17.981  0.00  0.00    +0.000 A 
ATOM     32  C   UNL     1       2.234   6.634  18.706  0.00  0.00    +0.000 A 
ATOM     33  C   UNL     1       1.962   6.603  20.073  0.00  0.00    +0.000 A 
ATOM     34  C   UNL     1       1.765   5.380  20.713  0.00  0.00    +0.000 A 
ATOM     35  C   UNL     1       1.851   4.189  19.990  0.00  0.00    +0.000 A 
ENDBRANCH  29  30
ENDBRANCH  28  29
ENDBRANCH  26  28
ENDBRANCH   4  24
TORSDOF 8
ENDMDL
MODEL 8
REMARK VINA RESULT:      -7.9      1.931      3.291
REMARK  Name = 
REMARK  11 active torsions:
REMARK  status: ('A' for Active; 'I' for Inactive)
REMARK    1  A    between atoms: C_1  and  C_2
REMARK    2  A    between atoms: C_2  and  C_3
REMARK    3  A    between atoms: C_2  and  C_4
REMARK    4  A    between atoms: C_2  and  O_5
REMARK    5  A    between atoms: O_5  and  C_6
REMARK    6  A    between atoms: C_11  and  C_12
REMARK    7  A    between atoms: N_14  and  C_15
REMARK    8  A    between atoms: C_18  and  C_19
REMARK    9  A    between atoms: N_21  and  C_22
REMARK   10  A    between atoms: C_22  and  C_23
REMARK   11  A    between atoms: C_23  and  C_24
REMARK                            x       y       z     vdW  Elec       q    Type
REMARK                         _______ _______ _______ _____ _____    ______ ____
ROOT
ATOM      1  C   UNL     1       1.083   9.492  19.656  0.00  0.00    +0.000 A 
ATOM      2  C   UNL     1       1.182   8.542  20.675  0.00  0.00    +0.000 A 
ATOM      3  C   UNL     1       1.834   7.322  20.473  0.00  0.00    +0.000 A 
ATOM      4  C   UNL     1       2.406   7.034  19.235  0.00  0.00    +0.000 A 
ATOM      5  C   UNL     1       2.281   7.963  18.193  0.00  0.00    +0.000 A 
ATOM      6  C   UNL     1       1.619   9.184  18.398  0.00  0.00    +0.000 A 
ENDROOT
BRANCH   1   9
ATOM      7  C   UNL     1      -0.843  11.029  19.380  0.00  0.00    +0.000 C 
ATOM      8  O   UNL     1      -1.620  10.203  18.906  0.00  0.00    +0.000 OA
ATOM      9  N   UNL     1       0.432  10.734  19.840  0.00  0.00    +0.000 N 
ATOM     10  H   UNL     1       0.872  11.402  20.457  0.00  0.00    +0.000 HD
BRANCH   7  16
ATOM     11  C   UNL     1      -1.704  13.871  23.451  0.00  0.00    +0.000 C 
ATOM     12  O   UNL     1      -0.790  14.579  23.868  0.00  0.00    +0.000 OA
ATOM     13  N   UNL     1      -1.525  12.989  22.404  0.00  0.00    +0.000 N 
ATOM     14  C   UNL     1      -0.192  12.835  21.839  0.00  0.00    +0.000 C 
ATOM     15  C   UNL     1      -0.193  13.254  20.369  0.00  0.00    +0.000 C 
ATOM     16  C   UNL     1      -1.266  12.489  19.566  0.00  0.00    +0.000 C 
ATOM     17  C   UNL     1      -2.636  12.637  20.253  0.00  0.00    +0.000 C 
ATOM     18  C   UNL     1      -2.589  12.256  21.737  0.00  0.00    +0.000 C 
BRANCH  11  19
ATOM     19  O   UNL     1      -2.967  13.876  23.969  0.00  0.00    +0.000 OA
BRANCH  19  21
ATOM     20  C   UNL     1      -5.278  14.572  23.524  0.00  0.00    +0.000 C 
ATOM     21  C   UNL     1      -3.820  15.022  23.695  0.00  0.00    +0.000 C 
ATOM     22  C   UNL     1      -3.304  15.832  22.495  0.00  0.00    +0.000 C 
ATOM     23  C   UNL     1      -3.763  15.937  24.932  0.00  0.00    +0.000 C 
ENDBRANCH  19  21
ENDBRANCH  11  19
ENDBRANCH   7  16
ENDBRANCH   1   9
BRANCH   4  24
ATOM     24  C   UNL     1       3.087   5.728  19.004  0.00  0.00    +0.000 C 
ATOM     25  O   UNL     1       3.604   5.134  19.942  0.00  0.00    +0.000 OA
ATOM     26  N   UNL     1       3.080   5.256  17.703  0.00  0.00    +0.000 N 
ATOM     27  H   UNL     1       2.457   5.680  17.030  0.00  0.00    +0.000 HD
BRANCH  26  28
ATOM     28  C   UNL     1       3.727   3.999  17.362  0.00  0.00    +0.000 C 
BRANCH  28  29
ATOM     29  C   UNL     1       4.975   4.194  16.495  0.00  0.00    +0.000 C 
BRANCH  29  30
ATOM     30  C   UNL     1       5.946   5.168  17.116  0.00  0.00    +0.000 A 
ATOM     31  C   UNL     1       6.035   6.486  16.648  0.00  0.00    +0.000 A 
ATOM     32  C   UNL     1       6.975   7.368  17.187  0.00  0.00    +0.000 A 
ATOM     33  C   UNL     1       7.833   6.943  18.200  0.00  0.00    +0.000 A 
ATOM     34  C   UNL     1       7.744   5.639  18.683  0.00  0.00    +0.000 A 
ATOM     35  C   UNL     1       6.805   4.756  18.144  0.00  0.00    +0.000 A 
ENDBRANCH  29  30
ENDBRANCH  28  29
ENDBRANCH  26  28
ENDBRANCH   4  24
TORSDOF 8
ENDMDL
MODEL 9
REMARK VINA RESULT:      -7.8      2.393      3.612
REMARK  Name = 
REMARK  11 active torsions:
REMARK  status: ('A' for Active; 'I' for Inactive)
REMARK    1  A    between atoms: C_1  and  C_2
REMARK    2  A    between atoms: C_2  and  C_3
REMARK    3  A    between atoms: C_2  and  C_4
REMARK    4  A    between atoms: C_2  and  O_5
REMARK    5  A    between atoms: O_5  and  C_6
REMARK    6  A    between atoms: C_11  and  C_12
REMARK    7  A    between atoms: N_14  and  C_15
REMARK    8  A    between atoms: C_18  and  C_19
REMARK    9  A    between atoms: N_21  and  C_22
REMARK   10  A    between atoms: C_22  and  C_23
REMARK   11  A    between atoms: C_23  and  C_24
REMARK                            x       y       z     vdW  Elec       q    Type
REMARK                         _______ _______ _______ _____ _____    ______ ____
ROOT
ATOM      1  C   UNL     1       1.444   8.922  19.582  0.00  0.00    +0.000 A 
ATOM      2  C   UNL     1       2.051   9.008  18.327  0.00  0.00    +0.000 A 
ATOM      3  C   UNL     1       2.816   7.956  17.814  0.00  0.00    +0.000 A 
ATOM      4  C   UNL     1       2.982   6.788  18.557  0.00  0.00    +0.000 A 
ATOM      5  C   UNL     1       2.409   6.704  19.833  0.00  0.00    +0.000 A 
ATOM      6  C   UNL     1       1.648   7.766  20.348  0.00  0.00    +0.000 A 
ENDROOT
BRANCH   1   9
ATOM      7  C   UNL     1      -0.484  10.481  19.527  0.00  0.00    +0.000 C 
ATOM      8  O   UNL     1      -1.049   9.978  18.560  0.00  0.00    +0.000 OA
ATOM      9  N   UNL     1       0.664   9.972  20.119  0.00  0.00    +0.000 N 
ATOM     10  H   UNL     1       0.883  10.281  21.055  0.00  0.00    +0.000 HD
BRANCH   7  16
ATOM     11  C   UNL     1       0.620  15.392  19.283  0.00  0.00    +0.000 C 
ATOM     12  O   UNL     1      -0.037  16.097  18.519  0.00  0.00    +0.000 OA
ATOM     13  N   UNL     1       0.452  14.023  19.339  0.00  0.00    +0.000 N 
ATOM     14  C   UNL     1      -0.471  13.392  18.405  0.00  0.00    +0.000 C 
ATOM     15  C   UNL     1      -1.606  12.709  19.168  0.00  0.00    +0.000 C 
ATOM     16  C   UNL     1      -1.062  11.719  20.219  0.00  0.00    +0.000 C 
ATOM     17  C   UNL     1      -0.045  12.432  21.130  0.00  0.00    +0.000 C 
ATOM     18  C   UNL     1       1.051  13.146  20.332  0.00  0.00    +0.000 C 
BRANCH  11  19
ATOM     19  O   UNL     1       1.570  15.875  20.135  0.00  0.00    +0.000 OA
BRANCH  19  21
ATOM     20  C   UNL     1       2.787  16.433  18.078  0.00  0.00    +0.000 C 
ATOM     21  C   UNL     1       2.880  16.202  19.593  0.00  0.00    +0.000 C 
ATOM     22  C   UNL     1       3.925  15.139  19.969  0.00  0.00    +0.000 C 
ATOM     23  C   UNL     1       3.318  17.531  20.235  0.00  0.00    +0.000 C 
ENDBRANCH  19  21
ENDBRANCH  11  19
ENDBRANCH   7  16
ENDBRANCH   1   9
BRANCH   4  24
ATOM     24  C   UNL     1       3.810   5.669  18.026  0.00  0.00    +0.000 C 
ATOM     25  O   UNL     1       5.032   5.731  18.084  0.00  0.00    +0.000 OA
ATOM     26  N   UNL     1       3.119   4.594  17.494  0.00  0.00    +0.000 N 
ATOM     27  H   UNL     1       2.128   4.510  17.674  0.00  0.00    +0.000 HD
BRANCH  26  28
ATOM     28  C   UNL     1       3.827   3.453  16.936  0.00  0.00    +0.000 C 
BRANCH  28  29
ATOM     29  C   UNL     1       3.658   2.184  17.778  0.00  0.00    +0.000 C 
BRANCH  29  30
ATOM     30  C   UNL     1       2.819   2.433  19.009  0.00  0.00    +0.000 A 
ATOM     31  C   UNL     1       1.428   2.570  18.910  0.00  0.00    +0.000 A 
ATOM     32  C   UNL     1       0.662   2.858  20.042  0.00  0.00    +0.000 A 
ATOM     33  C   UNL     1       1.277   3.008  21.284  0.00  0.00    +0.000 A 
ATOM     34  C   UNL     1       2.658   2.860  21.396  0.00  0.00    +0.000 A 
ATOM     35  C   UNL     1       3.426   2.573  20.265  0.00  0.00    +0.000 A 
ENDBRANCH  29  30
ENDBRANCH  28  29
ENDBRANCH  26  28
ENDBRANCH   4  24
TORSDOF 8
ENDMDL
