MODEL 1
REMARK VINA RESULT:      -7.9      0.000      0.000
REMARK  Name = 
REMARK  4 active torsions:
REMARK  status: ('A' for Active; 'I' for Inactive)
REMARK    1  A    between atoms: C_1  and  C_2
REMARK    2  A    between atoms: C_5  and  C_6
REMARK    3  A    between atoms: C_9  and  C_10
REMARK    4  A    between atoms: N_13  and  C_14
REMARK                            x       y       z     vdW  Elec       q    Type
REMARK                         _______ _______ _______ _____ _____    ______ ____
ROOT
ATOM      1  C   UNL     1       1.728   8.696  19.061  0.00  0.00    +0.000 A 
ATOM      2  N   UNL     1       2.041   9.198  17.882  0.00  0.00    +0.000 NA
ATOM      3  N   UNL     1       2.788   8.246  17.232  0.00  0.00    +0.000 NA
ATOM      4  C   UNL     1       2.880   7.219  18.049  0.00  0.00    +0.000 A 
ATOM      5  O   UNL     1       2.238   7.435  19.245  0.00  0.00    +0.000 OA
ENDROOT
BRANCH   1  10
ATOM      6  C   UNL     1      -1.455  11.161  23.216  0.00  0.00    +0.000 C 
ATOM      7  C   UNL     1      -0.635  10.513  22.140  0.00  0.00    +0.000 A 
ATOM      8  C   UNL     1      -0.487  11.121  20.891  0.00  0.00    +0.000 A 
ATOM      9  C   UNL     1       0.288  10.513  19.899  0.00  0.00    +0.000 A 
ATOM     10  C   UNL     1       0.930   9.285  20.129  0.00  0.00    +0.000 A 
ATOM     11  C   UNL     1       0.772   8.678  21.382  0.00  0.00    +0.000 A 
ATOM     12  C   UNL     1       0.000   9.287  22.378  0.00  0.00    +0.000 A 
ENDBRANCH   1  10
BRANCH   4  13
ATOM     13  C   UNL     1       3.553   5.911  17.854  0.00  0.00    +0.000 C 
ATOM     14  C   UNL     1       4.699   5.694  18.833  0.00  0.00    +0.000 C 
ATOM     15  C   UNL     1       4.672   4.201  19.106  0.00  0.00    +0.000 C 
ATOM     16  N   UNL     1       3.256   3.802  19.062  0.00  0.00    +0.000 NA
ATOM     17  C   UNL     1       2.625   4.712  18.080  0.00  0.00    +0.000 C 
BRANCH  16  18
ATOM     18  C   UNL     1       2.631   3.961  20.388  0.00  0.00    +0.000 C 
ATOM     19  C   UNL     1       1.118   3.622  20.295  0.00  0.00    +0.000 C 
ATOM     20  C   UNL     1       1.292   2.774  21.565  0.00  0.00    +0.000 C 
ATOM     21  C   UNL     1       2.781   2.636  21.186  0.00  0.00    +0.000 C 
ENDBRANCH  16  18
ENDBRANCH   4  13
TORSDOF 3
ENDMDL
MODEL 2
REMARK VINA RESULT:      -7.9      0.166      1.056
REMARK  Name = 
REMARK  4 active torsions:
REMARK  status: ('A' for Active; 'I' for Inactive)
REMARK    1  A    between atoms: C_1  and  C_2
REMARK    2  A    between atoms: C_5  and  C_6
REMARK    3  A    between atoms: C_9  and  C_10
REMARK    4  A    between atoms: N_13  and  C_14
REMARK                            x       y       z     vdW  Elec       q    Type
REMARK                         _______ _______ _______ _____ _____    ______ ____
ROOT
ATOM      1  C   UNL     1       1.802   8.674  18.964  0.00  0.00    +0.000 A 
ATOM      2  N   UNL     1       2.155   9.144  17.784  0.00  0.00    +0.000 NA
ATOM      3  N   UNL     1       2.894   8.162  17.170  0.00  0.00    +0.000 NA
ATOM      4  C   UNL     1       2.940   7.148  18.008  0.00  0.00    +0.000 A 
ATOM      5  O   UNL     1       2.275   7.403  19.184  0.00  0.00    +0.000 OA
ENDROOT
BRANCH   1  10
ATOM      6  C   UNL     1      -1.371  11.056  23.175  0.00  0.00    +0.000 C 
ATOM      7  C   UNL     1      -0.545  10.448  22.081  0.00  0.00    +0.000 A 
ATOM      8  C   UNL     1       0.278   9.347  22.334  0.00  0.00    +0.000 A 
ATOM      9  C   UNL     1       1.036   8.782  21.305  0.00  0.00    +0.000 A 
ATOM     10  C   UNL     1       0.994   9.303  20.001  0.00  0.00    +0.000 A 
ATOM     11  C   UNL     1       0.171  10.410  19.755  0.00  0.00    +0.000 A 
ATOM     12  C   UNL     1      -0.592  10.975  20.783  0.00  0.00    +0.000 A 
ENDBRANCH   1  10
BRANCH   4  13
ATOM     13  C   UNL     1       3.584   5.821  17.854  0.00  0.00    +0.000 C 
ATOM     14  C   UNL     1       4.682   5.584  18.882  0.00  0.00    +0.000 C 
ATOM     15  C   UNL     1       4.602   4.095  19.168  0.00  0.00    +0.000 C 
ATOM     16  N   UNL     1       3.179   3.734  19.069  0.00  0.00    +0.000 NA
ATOM     17  C   UNL     1       2.614   4.650  18.053  0.00  0.00    +0.000 C 
BRANCH  16  18
ATOM     18  C   UNL     1       2.504   3.925  20.366  0.00  0.00    +0.000 C 
ATOM     19  C   UNL     1       1.058   3.364  20.289  0.00  0.00    +0.000 C 
ATOM     20  C   UNL     1       1.318   2.672  21.637  0.00  0.00    +0.000 C 
ATOM     21  C   UNL     1       2.821   2.715  21.289  0.00  0.00    +0.000 C 
ENDBRANCH  16  18
ENDBRANCH   4  13
TORSDOF 3
ENDMDL
MODEL 3
REMARK VINA RESULT:      -7.6      1.035      1.492
REMARK  Name = 
REMARK  4 active torsions:
REMARK  status: ('A' for Active; 'I' for Inactive)
REMARK    1  A    between atoms: C_1  and  C_2
REMARK    2  A    between atoms: C_5  and  C_6
REMARK    3  A    between atoms: C_9  and  C_10
REMARK    4  A    between atoms: N_13  and  C_14
REMARK                            x       y       z     vdW  Elec       q    Type
REMARK                         _______ _______ _______ _____ _____    ______ ____
ROOT
ATOM      1  C   UNL     1       2.007   8.511  18.850  0.00  0.00    +0.000 A 
ATOM      2  N   UNL     1       2.132   8.873  17.588  0.00  0.00    +0.000 NA
ATOM      3  N   UNL     1       2.995   7.978  17.002  0.00  0.00    +0.000 NA
ATOM      4  C   UNL     1       3.339   7.121  17.939  0.00  0.00    +0.000 A 
ATOM      5  O   UNL     1       2.758   7.402  19.153  0.00  0.00    +0.000 OA
ENDROOT
BRANCH   1  10
ATOM      6  C   UNL     1      -1.192  10.757  23.115  0.00  0.00    +0.000 C 
ATOM      7  C   UNL     1      -0.358  10.185  22.008  0.00  0.00    +0.000 A 
ATOM      8  C   UNL     1       0.420   9.043  22.216  0.00  0.00    +0.000 A 
ATOM      9  C   UNL     1       1.186   8.512  21.174  0.00  0.00    +0.000 A 
ATOM     10  C   UNL     1       1.194   9.107  19.902  0.00  0.00    +0.000 A 
ATOM     11  C   UNL     1       0.415  10.255  19.701  0.00  0.00    +0.000 A 
ATOM     12  C   UNL     1      -0.355  10.786  20.742  0.00  0.00    +0.000 A 
ENDBRANCH   1  10
BRANCH   4  13
ATOM     13  C   UNL     1       4.230   5.938  17.858  0.00  0.00    +0.000 C 
ATOM     14  C   UNL     1       4.807   5.549  19.213  0.00  0.00    +0.000 C 
ATOM     15  C   UNL     1       4.901   4.035  19.152  0.00  0.00    +0.000 C 
ATOM     16  N   UNL     1       3.756   3.585  18.345  0.00  0.00    +0.000 NA
ATOM     17  C   UNL     1       3.514   4.672  17.370  0.00  0.00    +0.000 C 
BRANCH  16  18
ATOM     18  C   UNL     1       2.569   3.383  19.196  0.00  0.00    +0.000 C 
ATOM     19  C   UNL     1       1.290   3.776  18.409  0.00  0.00    +0.000 C 
ATOM     20  C   UNL     1       0.655   2.467  18.905  0.00  0.00    +0.000 C 
ATOM     21  C   UNL     1       2.086   1.912  19.059  0.00  0.00    +0.000 C 
ENDBRANCH  16  18
ENDBRANCH   4  13
TORSDOF 3
ENDMDL
MODEL 4
REMARK VINA RESULT:      -7.5      1.756      3.208
REMARK  Name = 
REMARK  4 active torsions:
REMARK  status: ('A' for Active; 'I' for Inactive)
REMARK    1  A    between atoms: C_1  and  C_2
REMARK    2  A    between atoms: C_5  and  C_6
REMARK    3  A    between atoms: C_9  and  C_10
REMARK    4  A    between atoms: N_13  and  C_14
REMARK                            x       y       z     vdW  Elec       q    Type
REMARK                         _______ _______ _______ _____ _____    ______ ____
ROOT
ATOM      1  C   UNL     1       1.650   8.293  19.779  0.00  0.00    +0.000 A 
ATOM      2  N   UNL     1       2.122   8.562  18.578  0.00  0.00    +0.000 NA
ATOM      3  N   UNL     1       2.796   7.441  18.157  0.00  0.00    +0.000 NA
ATOM      4  C   UNL     1       2.688   6.554  19.122  0.00  0.00    +0.000 A 
ATOM      5  O   UNL     1       1.979   7.028  20.200  0.00  0.00    +0.000 OA
ENDROOT
BRANCH   1  10
ATOM      6  C   UNL     1      -1.570  11.712  23.158  0.00  0.00    +0.000 C 
ATOM      7  C   UNL     1      -0.740  10.817  22.287  0.00  0.00    +0.000 A 
ATOM      8  C   UNL     1      -0.647  11.046  20.911  0.00  0.00    +0.000 A 
ATOM      9  C   UNL     1       0.137  10.211  20.109  0.00  0.00    +0.000 A 
ATOM     10  C   UNL     1       0.844   9.130  20.660  0.00  0.00    +0.000 A 
ATOM     11  C   UNL     1       0.743   8.903  22.039  0.00  0.00    +0.000 A 
ATOM     12  C   UNL     1      -0.039   9.740  22.844  0.00  0.00    +0.000 A 
ENDBRANCH   1  10
BRANCH   4  13
ATOM     13  C   UNL     1       3.205   5.165  19.194  0.00  0.00    +0.000 C 
ATOM     14  C   UNL     1       2.800   4.330  17.986  0.00  0.00    +0.000 C 
ATOM     15  C   UNL     1       3.984   3.405  17.766  0.00  0.00    +0.000 C 
ATOM     16  N   UNL     1       5.181   4.174  18.140  0.00  0.00    +0.000 NA
ATOM     17  C   UNL     1       4.736   5.090  19.215  0.00  0.00    +0.000 C 
BRANCH  16  18
ATOM     18  C   UNL     1       5.685   4.942  16.987  0.00  0.00    +0.000 C 
ATOM     19  C   UNL     1       7.221   4.752  16.866  0.00  0.00    +0.000 C 
ATOM     20  C   UNL     1       7.013   4.507  15.363  0.00  0.00    +0.000 C 
ATOM     21  C   UNL     1       5.573   4.070  15.705  0.00  0.00    +0.000 C 
ENDBRANCH  16  18
ENDBRANCH   4  13
TORSDOF 3
ENDMDL
MODEL 5
REMARK VINA RESULT:      -7.4      1.808      3.456
REMARK  Name = 
REMARK  4 active torsions:
REMARK  status: ('A' for Active; 'I' for Inactive)
REMARK    1  A    between atoms: C_1  and  C_2
REMARK    2  A    between atoms: C_5  and  C_6
REMARK    3  A    between atoms: C_9  and  C_10
REMARK    4  A    between atoms: N_13  and  C_14
REMARK                            x       y       z     vdW  Elec       q    Type
REMARK                         _______ _______ _______ _____ _____    ______ ____
ROOT
ATOM      1  C   UNL     1       1.679   8.416  19.578  0.00  0.00    +0.000 A 
ATOM      2  N   UNL     1       2.147   8.696  18.377  0.00  0.00    +0.000 NA
ATOM      3  N   UNL     1       2.851   7.593  17.959  0.00  0.00    +0.000 NA
ATOM      4  C   UNL     1       2.765   6.704  18.925  0.00  0.00    +0.000 A 
ATOM      5  O   UNL     1       2.041   7.160  20.002  0.00  0.00    +0.000 OA
ENDROOT
BRANCH   1  10
ATOM      6  C   UNL     1      -1.592  11.552  23.174  0.00  0.00    +0.000 C 
ATOM      7  C   UNL     1      -0.740  10.748  22.239  0.00  0.00    +0.000 A 
ATOM      8  C   UNL     1      -0.034   9.632  22.696  0.00  0.00    +0.000 A 
ATOM      9  C   UNL     1       0.750   8.883  21.813  0.00  0.00    +0.000 A 
ATOM     10  C   UNL     1       0.850   9.232  20.456  0.00  0.00    +0.000 A 
ATOM     11  C   UNL     1       0.144  10.356  20.005  0.00  0.00    +0.000 A 
ATOM     12  C   UNL     1      -0.645  11.104  20.887  0.00  0.00    +0.000 A 
ENDBRANCH   1  10
BRANCH   4  13
ATOM     13  C   UNL     1       3.319   5.330  19.000  0.00  0.00    +0.000 C 
ATOM     14  C   UNL     1       2.776   4.422  17.904  0.00  0.00    +0.000 C 
ATOM     15  C   UNL     1       3.941   3.506  17.575  0.00  0.00    +0.000 C 
ATOM     16  N   UNL     1       5.159   4.313  17.744  0.00  0.00    +0.000 NA
ATOM     17  C   UNL     1       4.840   5.280  18.820  0.00  0.00    +0.000 C 
BRANCH  16  18
ATOM     18  C   UNL     1       5.487   5.024  16.494  0.00  0.00    +0.000 C 
ATOM     19  C   UNL     1       7.016   5.288  16.430  0.00  0.00    +0.000 C 
ATOM     20  C   UNL     1       6.982   4.780  14.980  0.00  0.00    +0.000 C 
ATOM     21  C   UNL     1       5.716   3.985  15.361  0.00  0.00    +0.000 C 
ENDBRANCH  16  18
ENDBRANCH   4  13
TORSDOF 3
ENDMDL
MODEL 6
REMARK VINA RESULT:      -7.3      5.269      6.850
REMARK  Name = 
REMARK  4 active torsions:
REMARK  status: ('A' for Active; 'I' for Inactive)
REMARK    1  A    between atoms: C_1  and  C_2
REMARK    2  A    between atoms: C_5  and  C_6
REMARK    3  A    between atoms: C_9  and  C_10
REMARK    4  A    between atoms: N_13  and  C_14
REMARK                            x       y       z     vdW  Elec       q    Type
REMARK                         _______ _______ _______ _____ _____    ______ ____
ROOT
ATOM      1  C   UNL     1       8.212   8.445  18.230  0.00  0.00    +0.000 A 
ATOM      2  N   UNL     1       8.463   7.383  18.970  0.00  0.00    +0.000 NA
ATOM      3  N   UNL     1       7.835   6.321  18.366  0.00  0.00    +0.000 NA
ATOM      4  C   UNL     1       7.246   6.796  17.290  0.00  0.00    +0.000 A 
ATOM      5  O   UNL     1       7.431   8.150  17.140  0.00  0.00    +0.000 OA
ENDROOT
BRANCH   1  10
ATOM      6  C   UNL     1      10.048  13.864  19.088  0.00  0.00    +0.000 C 
ATOM      7  C   UNL     1       9.575  12.460  18.855  0.00  0.00    +0.000 A 
ATOM      8  C   UNL     1       9.944  11.429  19.723  0.00  0.00    +0.000 A 
ATOM      9  C   UNL     1       9.491  10.125  19.503  0.00  0.00    +0.000 A 
ATOM     10  C   UNL     1       8.660   9.820  18.412  0.00  0.00    +0.000 A 
ATOM     11  C   UNL     1       8.298  10.858  17.542  0.00  0.00    +0.000 A 
ATOM     12  C   UNL     1       8.748  12.165  17.763  0.00  0.00    +0.000 A 
ENDBRANCH   1  10
BRANCH   4  13
ATOM     13  C   UNL     1       6.447   6.091  16.258  0.00  0.00    +0.000 C 
ATOM     14  C   UNL     1       6.945   4.675  16.002  0.00  0.00    +0.000 C 
ATOM     15  C   UNL     1       5.682   3.891  15.694  0.00  0.00    +0.000 C 
ATOM     16  N   UNL     1       4.620   4.482  16.523  0.00  0.00    +0.000 NA
ATOM     17  C   UNL     1       4.975   5.914  16.649  0.00  0.00    +0.000 C 
BRANCH  16  18
ATOM     18  C   UNL     1       4.582   3.842  17.851  0.00  0.00    +0.000 C 
ATOM     19  C   UNL     1       4.290   4.913  18.937  0.00  0.00    +0.000 C 
ATOM     20  C   UNL     1       3.251   3.946  19.526  0.00  0.00    +0.000 C 
ATOM     21  C   UNL     1       3.145   3.315  18.122  0.00  0.00    +0.000 C 
ENDBRANCH  16  18
ENDBRANCH   4  13
TORSDOF 3
ENDMDL
MODEL 7
REMARK VINA RESULT:      -7.2      5.438      7.117
REMARK  Name = 
REMARK  4 active torsions:
REMARK  status: ('A' for Active; 'I' for Inactive)
REMARK    1  A    between atoms: C_1  and  C_2
REMARK    2  A    between atoms: C_5  and  C_6
REMARK    3  A    between atoms: C_9  and  C_10
REMARK    4  A    between atoms: N_13  and  C_14
REMARK                            x       y       z     vdW  Elec       q    Type
REMARK                         _______ _______ _______ _____ _____    ______ ____
ROOT
ATOM      1  C   UNL     1       8.354   9.082  18.117  0.00  0.00    +0.000 A 
ATOM      2  N   UNL     1       7.492   9.094  17.120  0.00  0.00    +0.000 NA
ATOM      3  N   UNL     1       6.999   7.817  17.006  0.00  0.00    +0.000 NA
ATOM      4  C   UNL     1       7.583   7.104  17.945  0.00  0.00    +0.000 A 
ATOM      5  O   UNL     1       8.474   7.840  18.690  0.00  0.00    +0.000 OA
ENDROOT
BRANCH   1  10
ATOM      6  C   UNL     1      11.526  13.466  20.163  0.00  0.00    +0.000 C 
ATOM      7  C   UNL     1      10.696  12.333  19.639  0.00  0.00    +0.000 A 
ATOM      8  C   UNL     1      10.569  12.116  18.264  0.00  0.00    +0.000 A 
ATOM      9  C   UNL     1       9.801  11.050  17.787  0.00  0.00    +0.000 A 
ATOM     10  C   UNL     1       9.140  10.179  18.668  0.00  0.00    +0.000 A 
ATOM     11  C   UNL     1       9.267  10.405  20.045  0.00  0.00    +0.000 A 
ATOM     12  C   UNL     1      10.039  11.470  20.526  0.00  0.00    +0.000 A 
ENDBRANCH   1  10
BRANCH   4  13
ATOM     13  C   UNL     1       7.411   5.673  18.292  0.00  0.00    +0.000 C 
ATOM     14  C   UNL     1       6.481   5.469  19.482  0.00  0.00    +0.000 C 
ATOM     15  C   UNL     1       5.766   4.167  19.171  0.00  0.00    +0.000 C 
ATOM     16  N   UNL     1       5.603   4.127  17.709  0.00  0.00    +0.000 NA
ATOM     17  C   UNL     1       6.776   4.848  17.165  0.00  0.00    +0.000 C 
BRANCH  16  18
ATOM     18  C   UNL     1       4.354   4.801  17.308  0.00  0.00    +0.000 C 
ATOM     19  C   UNL     1       3.279   3.738  16.952  0.00  0.00    +0.000 C 
ATOM     20  C   UNL     1       2.286   4.543  17.805  0.00  0.00    +0.000 C 
ATOM     21  C   UNL     1       3.503   5.096  18.576  0.00  0.00    +0.000 C 
ENDBRANCH  16  18
ENDBRANCH   4  13
TORSDOF 3
ENDMDL
MODEL 8
REMARK VINA RESULT:      -7.2      5.265      6.762
REMARK  Name = 
REMARK  4 active torsions:
REMARK  status: ('A' for Active; 'I' for Inactive)
REMARK    1  A    between atoms: C_1  and  C_2
REMARK    2  A    between atoms: C_5  and  C_6
REMARK    3  A    between atoms: C_9  and  C_10
REMARK    4  A    between atoms: N_13  and  C_14
REMARK                            x       y       z     vdW  Elec       q    Type
REMARK                         _______ _______ _______ _____ _____    ______ ____
ROOT
ATOM      1  C   UNL     1       8.219   8.411  18.252  0.00  0.00    +0.000 A 
ATOM      2  N   UNL     1       8.481   7.328  18.958  0.00  0.00    +0.000 NA
ATOM      3  N   UNL     1       7.819   6.289  18.349  0.00  0.00    +0.000 NA
ATOM      4  C   UNL     1       7.201   6.798  17.305  0.00  0.00    +0.000 A 
ATOM      5  O   UNL     1       7.398   8.153  17.182  0.00  0.00    +0.000 OA
ENDROOT
BRANCH   1  10
ATOM      6  C   UNL     1      10.031  13.866  18.911  0.00  0.00    +0.000 C 
ATOM      7  C   UNL     1       9.558  12.452  18.750  0.00  0.00    +0.000 A 
ATOM      8  C   UNL     1       8.713  12.096  17.696  0.00  0.00    +0.000 A 
ATOM      9  C   UNL     1       8.286  10.773  17.550  0.00  0.00    +0.000 A 
ATOM     10  C   UNL     1       8.691   9.776  18.452  0.00  0.00    +0.000 A 
ATOM     11  C   UNL     1       9.535  10.140  19.511  0.00  0.00    +0.000 A 
ATOM     12  C   UNL     1       9.966  11.464  19.656  0.00  0.00    +0.000 A 
ENDBRANCH   1  10
BRANCH   4  13
ATOM     13  C   UNL     1       6.359   6.128  16.284  0.00  0.00    +0.000 C 
ATOM     14  C   UNL     1       6.772   4.682  16.046  0.00  0.00    +0.000 C 
ATOM     15  C   UNL     1       5.464   3.970  15.750  0.00  0.00    +0.000 C 
ATOM     16  N   UNL     1       4.440   4.635  16.572  0.00  0.00    +0.000 NA
ATOM     17  C   UNL     1       4.880   6.044  16.679  0.00  0.00    +0.000 C 
BRANCH  16  18
ATOM     18  C   UNL     1       4.367   4.015  17.908  0.00  0.00    +0.000 C 
ATOM     19  C   UNL     1       3.033   4.414  18.595  0.00  0.00    +0.000 C 
ATOM     20  C   UNL     1       2.858   2.936  18.979  0.00  0.00    +0.000 C 
ATOM     21  C   UNL     1       3.763   2.589  17.778  0.00  0.00    +0.000 C 
ENDBRANCH  16  18
ENDBRANCH   4  13
TORSDOF 3
ENDMDL
MODEL 9
REMARK VINA RESULT:      -7.1      2.388      7.176
REMARK  Name = 
REMARK  4 active torsions:
REMARK  status: ('A' for Active; 'I' for Inactive)
REMARK    1  A    between atoms: C_1  and  C_2
REMARK    2  A    between atoms: C_5  and  C_6
REMARK    3  A    between atoms: C_9  and  C_10
REMARK    4  A    between atoms: N_13  and  C_14
REMARK                            x       y       z     vdW  Elec       q    Type
REMARK                         _______ _______ _______ _____ _____    ______ ____
ROOT
ATOM      1  C   UNL     1       2.328   7.850  18.499  0.00  0.00    +0.000 A 
ATOM      2  N   UNL     1       2.578   8.564  17.419  0.00  0.00    +0.000 NA
ATOM      3  N   UNL     1       1.955   9.776  17.591  0.00  0.00    +0.000 NA
ATOM      4  C   UNL     1       1.370   9.732  18.769  0.00  0.00    +0.000 A 
ATOM      5  O   UNL     1       1.552   8.528  19.407  0.00  0.00    +0.000 OA
ENDROOT
BRANCH   1  10
ATOM      6  C   UNL     1       4.018   2.515  19.967  0.00  0.00    +0.000 C 
ATOM      7  C   UNL     1       3.578   3.895  19.577  0.00  0.00    +0.000 A 
ATOM      8  C   UNL     1       2.662   4.602  20.361  0.00  0.00    +0.000 A 
ATOM      9  C   UNL     1       2.266   5.890  19.994  0.00  0.00    +0.000 A 
ATOM     10  C   UNL     1       2.772   6.503  18.835  0.00  0.00    +0.000 A 
ATOM     11  C   UNL     1       3.686   5.787  18.050  0.00  0.00    +0.000 A 
ATOM     12  C   UNL     1       4.087   4.497  18.419  0.00  0.00    +0.000 A 
ENDBRANCH   1  10
BRANCH   4  13
ATOM     13  C   UNL     1       0.577  10.771  19.471  0.00  0.00    +0.000 C 
ATOM     14  C   UNL     1       0.730  12.148  18.838  0.00  0.00    +0.000 C 
ATOM     15  C   UNL     1      -0.632  12.792  19.025  0.00  0.00    +0.000 C 
ATOM     16  N   UNL     1      -1.618  11.705  18.917  0.00  0.00    +0.000 NA
ATOM     17  C   UNL     1      -0.933  10.502  19.442  0.00  0.00    +0.000 C 
BRANCH  16  18
ATOM     18  C   UNL     1      -2.012  11.500  17.511  0.00  0.00    +0.000 C 
ATOM     19  C   UNL     1      -1.973   9.984  17.174  0.00  0.00    +0.000 C 
ATOM     20  C   UNL     1      -3.347  10.158  16.509  0.00  0.00    +0.000 C 
ATOM     21  C   UNL     1      -3.559  11.381  17.426  0.00  0.00    +0.000 C 
ENDBRANCH  16  18
ENDBRANCH   4  13
TORSDOF 3
ENDMDL
