MODEL 1
REMARK VINA RESULT:      -8.6      0.000      0.000
REMARK  Name = 
REMARK  12 active torsions:
REMARK  status: ('A' for Active; 'I' for Inactive)
REMARK    1  A    between atoms: C_1  and  O_2
REMARK    2  A    between atoms: O_2  and  C_3
REMARK    3  A    between atoms: C_3  and  C_4
REMARK    4  A    between atoms: C_4  and  C_5
REMARK    5  A    between atoms: C_4  and  N_6
REMARK    6  A    between atoms: C_7  and  S_8
REMARK    7  A    between atoms: S_8  and  C_9
REMARK    8  A    between atoms: C_9  and  C_10
REMARK    9  A    between atoms: N_12  and  C_13
REMARK   10  A    between atoms: C_15  and  C_16
REMARK   11  A    between atoms: C_18  and  C_19
REMARK   12  A    between atoms: C_22  and  O_23
REMARK                            x       y       z     vdW  Elec       q    Type
REMARK                         _______ _______ _______ _____ _____    ______ ____
ROOT
ATOM      1  C   UNL     1       2.032   8.079  18.056  0.00  0.00    +0.000 C 
ENDROOT
BRANCH   1   2
ATOM      2  C   UNL     1       2.698   6.762  18.706  0.00  0.00    +0.000 C 
ATOM      3  O   UNL     1       3.490   6.119  17.997  0.00  0.00    +0.000 OA
ATOM      4  N   UNL     1       2.425   6.329  20.030  0.00  0.00    +0.000 N 
ATOM      5  H   UNL     1       1.672   6.875  20.431  0.00  0.00    +0.000 HD
BRANCH   4   6
ATOM      6  C   UNL     1       2.154   4.945  20.174  0.00  0.00    +0.000 A 
ATOM      7  O   UNL     1       2.651   4.515  21.413  0.00  0.00    +0.000 OA
ATOM      8  C   UNL     1       2.557   3.142  21.352  0.00  0.00    +0.000 A 
ATOM      9  C   UNL     1       1.191   2.726  21.968  0.00  0.00    +0.000 C 
ATOM     10  C   UNL     1       2.905   2.911  20.037  0.00  0.00    +0.000 A 
ATOM     11  C   UNL     1       4.091   2.703  19.278  0.00  0.00    +0.000 A 
ATOM     12  C   UNL     1       5.044   3.830  18.917  0.00  0.00    +0.000 C 
ATOM     13  N   UNL     1       3.651   2.173  18.045  0.00  0.00    +0.000 NA
ATOM     14  N   UNL     1       2.344   2.486  17.524  0.00  0.00    +0.000 NA
ATOM     15  C   UNL     1       1.396   3.268  18.181  0.00  0.00    +0.000 A 
ATOM     16  C   UNL     1       1.885   3.730  19.448  0.00  0.00    +0.000 A 
BRANCH  15  17
ATOM     17  O   UNL     1       0.298   2.405  18.312  0.00  0.00    +0.000 OA
ATOM     18  H   UNL     1       0.115   2.200  17.362  0.00  0.00    +0.000 HD
ENDBRANCH  15  17
ENDBRANCH   4   6
ENDBRANCH   1   2
BRANCH   1  19
ATOM     19  S   UNL     1       1.513   9.406  19.175  0.00  0.00    +0.000 S 
BRANCH  19  21
ATOM     20  N   UNL     1      -0.714  10.834  19.911  0.00  0.00    +0.000 N 
ATOM     21  C   UNL     1      -0.159  10.083  18.843  0.00  0.00    +0.000 A 
ATOM     22  N   UNL     1      -0.809   9.920  17.724  0.00  0.00    +0.000 NA
ATOM     23  C   UNL     1      -2.125  10.508  17.598  0.00  0.00    +0.000 A 
ATOM     24  C   UNL     1      -2.961  10.293  16.493  0.00  0.00    +0.000 A 
ATOM     25  C   UNL     1      -4.243  10.894  16.375  0.00  0.00    +0.000 A 
ATOM     26  C   UNL     1      -4.749  11.737  17.368  0.00  0.00    +0.000 A 
ATOM     27  C   UNL     1      -3.925  11.975  18.462  0.00  0.00    +0.000 A 
ATOM     28  C   UNL     1      -2.659  11.368  18.553  0.00  0.00    +0.000 A 
ATOM     29  C   UNL     1      -1.839  11.645  19.714  0.00  0.00    +0.000 A 
ATOM     30  O   UNL     1      -2.167  12.594  20.421  0.00  0.00    +0.000 OA
BRANCH  20  31
ATOM     31  C   UNL     1      -0.028  11.078  21.199  0.00  0.00    +0.000 C 
ATOM     32  C   UNL     1      -0.870  10.705  22.438  0.00  0.00    +0.000 C 
BRANCH  31  33
ATOM     33  C   UNL     1       0.450  12.534  21.263  0.00  0.00    +0.000 C 
BRANCH  33  35
ATOM     34  C   UNL     1       2.185  13.105  19.803  0.00  0.00    +0.000 C 
ATOM     35  O   UNL     1       1.863  12.585  21.087  0.00  0.00    +0.000 OA
ENDBRANCH  33  35
ENDBRANCH  31  33
ENDBRANCH  20  31
ENDBRANCH  19  21
ENDBRANCH   1  19
TORSDOF 8
ENDMDL
MODEL 2
REMARK VINA RESULT:      -8.4      0.855      1.387
REMARK  Name = 
REMARK  12 active torsions:
REMARK  status: ('A' for Active; 'I' for Inactive)
REMARK    1  A    between atoms: C_1  and  O_2
REMARK    2  A    between atoms: O_2  and  C_3
REMARK    3  A    between atoms: C_3  and  C_4
REMARK    4  A    between atoms: C_4  and  C_5
REMARK    5  A    between atoms: C_4  and  N_6
REMARK    6  A    between atoms: C_7  and  S_8
REMARK    7  A    between atoms: S_8  and  C_9
REMARK    8  A    between atoms: C_9  and  C_10
REMARK    9  A    between atoms: N_12  and  C_13
REMARK   10  A    between atoms: C_15  and  C_16
REMARK   11  A    between atoms: C_18  and  C_19
REMARK   12  A    between atoms: C_22  and  O_23
REMARK                            x       y       z     vdW  Elec       q    Type
REMARK                         _______ _______ _______ _____ _____    ______ ____
ROOT
ATOM      1  C   UNL     1       1.977   8.076  17.932  0.00  0.00    +0.000 C 
ENDROOT
BRANCH   1   2
ATOM      2  C   UNL     1       2.658   6.792  18.629  0.00  0.00    +0.000 C 
ATOM      3  O   UNL     1       3.490   6.158  17.958  0.00  0.00    +0.000 OA
ATOM      4  N   UNL     1       2.355   6.378  19.952  0.00  0.00    +0.000 N 
ATOM      5  H   UNL     1       1.575   6.910  20.318  0.00  0.00    +0.000 HD
BRANCH   4   6
ATOM      6  C   UNL     1       2.118   4.990  20.116  0.00  0.00    +0.000 A 
ATOM      7  O   UNL     1       2.636   4.587  21.356  0.00  0.00    +0.000 OA
ATOM      8  C   UNL     1       2.573   3.212  21.313  0.00  0.00    +0.000 A 
ATOM      9  C   UNL     1       1.223   2.771  21.947  0.00  0.00    +0.000 C 
ATOM     10  C   UNL     1       2.915   2.972  19.998  0.00  0.00    +0.000 A 
ATOM     11  C   UNL     1       4.099   2.782  19.231  0.00  0.00    +0.000 A 
ATOM     12  C   UNL     1       5.022   3.926  18.848  0.00  0.00    +0.000 C 
ATOM     13  N   UNL     1       3.661   2.226  18.009  0.00  0.00    +0.000 NA
ATOM     14  N   UNL     1       2.342   2.502  17.496  0.00  0.00    +0.000 NA
ATOM     15  C   UNL     1       1.382   3.270  18.151  0.00  0.00    +0.000 A 
ATOM     16  C   UNL     1       1.871   3.760  19.408  0.00  0.00    +0.000 A 
BRANCH  15  17
ATOM     17  O   UNL     1       0.306   2.383  18.304  0.00  0.00    +0.000 OA
ATOM     18  H   UNL     1       0.663   1.785  19.006  0.00  0.00    +0.000 HD
ENDBRANCH  15  17
ENDBRANCH   4   6
ENDBRANCH   1   2
BRANCH   1  19
ATOM     19  S   UNL     1       1.451   9.442  19.001  0.00  0.00    +0.000 S 
BRANCH  19  21
ATOM     20  N   UNL     1      -0.798  10.851  19.700  0.00  0.00    +0.000 N 
ATOM     21  C   UNL     1      -0.225  10.095  18.646  0.00  0.00    +0.000 A 
ATOM     22  N   UNL     1      -0.864   9.911  17.523  0.00  0.00    +0.000 NA
ATOM     23  C   UNL     1      -2.185  10.483  17.380  0.00  0.00    +0.000 A 
ATOM     24  C   UNL     1      -3.009  10.245  16.270  0.00  0.00    +0.000 A 
ATOM     25  C   UNL     1      -4.296  10.829  16.133  0.00  0.00    +0.000 A 
ATOM     26  C   UNL     1      -4.821  11.677  17.112  0.00  0.00    +0.000 A 
ATOM     27  C   UNL     1      -4.009  11.938  18.210  0.00  0.00    +0.000 A 
ATOM     28  C   UNL     1      -2.738  11.347  18.320  0.00  0.00    +0.000 A 
ATOM     29  C   UNL     1      -1.931  11.647  19.484  0.00  0.00    +0.000 A 
ATOM     30  O   UNL     1      -2.277  12.601  20.177  0.00  0.00    +0.000 OA
BRANCH  20  31
ATOM     31  C   UNL     1      -0.127  11.119  20.991  0.00  0.00    +0.000 C 
ATOM     32  C   UNL     1       1.170  11.946  20.865  0.00  0.00    +0.000 C 
BRANCH  31  33
ATOM     33  C   UNL     1       0.122   9.797  21.729  0.00  0.00    +0.000 C 
BRANCH  33  35
ATOM     34  C   UNL     1      -1.293  10.953  23.189  0.00  0.00    +0.000 C 
ATOM     35  O   UNL     1      -0.787   9.676  22.820  0.00  0.00    +0.000 OA
ENDBRANCH  33  35
ENDBRANCH  31  33
ENDBRANCH  20  31
ENDBRANCH  19  21
ENDBRANCH   1  19
TORSDOF 8
ENDMDL
MODEL 3
REMARK VINA RESULT:      -8.1      2.307      2.952
REMARK  Name = 
REMARK  12 active torsions:
REMARK  status: ('A' for Active; 'I' for Inactive)
REMARK    1  A    between atoms: C_1  and  O_2
REMARK    2  A    between atoms: O_2  and  C_3
REMARK    3  A    between atoms: C_3  and  C_4
REMARK    4  A    between atoms: C_4  and  C_5
REMARK    5  A    between atoms: C_4  and  N_6
REMARK    6  A    between atoms: C_7  and  S_8
REMARK    7  A    between atoms: S_8  and  C_9
REMARK    8  A    between atoms: C_9  and  C_10
REMARK    9  A    between atoms: N_12  and  C_13
REMARK   10  A    between atoms: C_15  and  C_16
REMARK   11  A    between atoms: C_18  and  C_19
REMARK   12  A    between atoms: C_22  and  O_23
REMARK                            x       y       z     vdW  Elec       q    Type
REMARK                         _______ _______ _______ _____ _____    ______ ____
ROOT
ATOM      1  C   UNL     1       1.987   8.071  19.563  0.00  0.00    +0.000 C 
ENDROOT
BRANCH   1   2
ATOM      2  C   UNL     1       2.514   7.335  18.228  0.00  0.00    +0.000 C 
ATOM      3  O   UNL     1       1.654   6.909  17.438  0.00  0.00    +0.000 OA
ATOM      4  N   UNL     1       3.891   7.170  17.928  0.00  0.00    +0.000 N 
ATOM      5  H   UNL     1       4.460   7.449  18.718  0.00  0.00    +0.000 HD
BRANCH   4   6
ATOM      6  C   UNL     1       4.268   5.875  17.491  0.00  0.00    +0.000 A 
ATOM      7  O   UNL     1       4.064   4.967  18.540  0.00  0.00    +0.000 OA
ATOM      8  C   UNL     1       4.673   3.811  18.105  0.00  0.00    +0.000 A 
ATOM      9  C   UNL     1       3.600   2.940  17.393  0.00  0.00    +0.000 C 
ATOM     10  C   UNL     1       5.787   4.322  17.472  0.00  0.00    +0.000 A 
ATOM     11  C   UNL     1       7.115   4.704  17.812  0.00  0.00    +0.000 A 
ATOM     12  C   UNL     1       7.436   5.990  18.552  0.00  0.00    +0.000 C 
ATOM     13  N   UNL     1       7.799   4.797  16.580  0.00  0.00    +0.000 NA
ATOM     14  N   UNL     1       7.099   5.124  15.362  0.00  0.00    +0.000 NA
ATOM     15  C   UNL     1       5.722   5.319  15.269  0.00  0.00    +0.000 A 
ATOM     16  C   UNL     1       5.082   5.158  16.543  0.00  0.00    +0.000 A 
BRANCH  15  17
ATOM     17  O   UNL     1       5.319   4.349  14.340  0.00  0.00    +0.000 OA
ATOM     18  H   UNL     1       5.378   3.532  14.895  0.00  0.00    +0.000 HD
ENDBRANCH  15  17
ENDBRANCH   4   6
ENDBRANCH   1   2
BRANCH   1  19
ATOM     19  S   UNL     1       1.662   9.852  19.476  0.00  0.00    +0.000 S 
BRANCH  19  21
ATOM     20  N   UNL     1      -0.771  11.057  19.877  0.00  0.00    +0.000 N 
ATOM     21  C   UNL     1      -0.031  10.300  18.934  0.00  0.00    +0.000 A 
ATOM     22  N   UNL     1      -0.542   9.978  17.777  0.00  0.00    +0.000 NA
ATOM     23  C   UNL     1      -1.895  10.397  17.480  0.00  0.00    +0.000 A 
ATOM     24  C   UNL     1      -2.586  10.003  16.325  0.00  0.00    +0.000 A 
ATOM     25  C   UNL     1      -3.906  10.437  16.037  0.00  0.00    +0.000 A 
ATOM     26  C   UNL     1      -4.601  11.286  16.903  0.00  0.00    +0.000 A 
ATOM     27  C   UNL     1      -3.924  11.700  18.045  0.00  0.00    +0.000 A 
ATOM     28  C   UNL     1      -2.615  11.256  18.305  0.00  0.00    +0.000 A 
ATOM     29  C   UNL     1      -1.953  11.713  19.508  0.00  0.00    +0.000 A 
ATOM     30  O   UNL     1      -2.454  12.667  20.098  0.00  0.00    +0.000 OA
BRANCH  20  31
ATOM     31  C   UNL     1      -0.252  11.476  21.198  0.00  0.00    +0.000 C 
ATOM     32  C   UNL     1      -1.204  11.168  22.373  0.00  0.00    +0.000 C 
BRANCH  31  33
ATOM     33  C   UNL     1       0.127  12.962  21.158  0.00  0.00    +0.000 C 
BRANCH  33  35
ATOM     34  C   UNL     1       1.916  14.463  21.282  0.00  0.00    +0.000 C 
ATOM     35  O   UNL     1       1.504  13.117  21.487  0.00  0.00    +0.000 OA
ENDBRANCH  33  35
ENDBRANCH  31  33
ENDBRANCH  20  31
ENDBRANCH  19  21
ENDBRANCH   1  19
TORSDOF 8
ENDMDL
MODEL 4
REMARK VINA RESULT:      -8.1      1.248      1.362
REMARK  Name = 
REMARK  12 active torsions:
REMARK  status: ('A' for Active; 'I' for Inactive)
REMARK    1  A    between atoms: C_1  and  O_2
REMARK    2  A    between atoms: O_2  and  C_3
REMARK    3  A    between atoms: C_3  and  C_4
REMARK    4  A    between atoms: C_4  and  C_5
REMARK    5  A    between atoms: C_4  and  N_6
REMARK    6  A    between atoms: C_7  and  S_8
REMARK    7  A    between atoms: S_8  and  C_9
REMARK    8  A    between atoms: C_9  and  C_10
REMARK    9  A    between atoms: N_12  and  C_13
REMARK   10  A    between atoms: C_15  and  C_16
REMARK   11  A    between atoms: C_18  and  C_19
REMARK   12  A    between atoms: C_22  and  O_23
REMARK                            x       y       z     vdW  Elec       q    Type
REMARK                         _______ _______ _______ _____ _____    ______ ____
ROOT
ATOM      1  C   UNL     1       1.601   9.063  17.849  0.00  0.00    +0.000 C 
ENDROOT
BRANCH   1   2
ATOM      2  C   UNL     1       2.466   7.834  18.432  0.00  0.00    +0.000 C 
ATOM      3  O   UNL     1       3.386   7.399  17.719  0.00  0.00    +0.000 OA
ATOM      4  N   UNL     1       2.226   7.254  19.705  0.00  0.00    +0.000 N 
ATOM      5  H   UNL     1       1.374   7.625  20.107  0.00  0.00    +0.000 HD
BRANCH   4   6
ATOM      6  C   UNL     1       2.200   5.836  19.733  0.00  0.00    +0.000 A 
ATOM      7  O   UNL     1       2.466   5.406  21.042  0.00  0.00    +0.000 OA
ATOM      8  C   UNL     1       2.655   4.048  20.914  0.00  0.00    +0.000 A 
ATOM      9  C   UNL     1       1.289   3.347  21.162  0.00  0.00    +0.000 C 
ATOM     10  C   UNL     1       3.340   3.987  19.718  0.00  0.00    +0.000 A 
ATOM     11  C   UNL     1       4.688   4.055  19.267  0.00  0.00    +0.000 A 
ATOM     12  C   UNL     1       5.464   5.358  19.189  0.00  0.00    +0.000 C 
ATOM     13  N   UNL     1       4.661   3.553  17.948  0.00  0.00    +0.000 NA
ATOM     14  N   UNL     1       3.478   3.667  17.132  0.00  0.00    +0.000 NA
ATOM     15  C   UNL     1       2.270   4.213  17.561  0.00  0.00    +0.000 A 
ATOM     16  C   UNL     1       2.349   4.654  18.924  0.00  0.00    +0.000 A 
BRANCH  15  17
ATOM     17  O   UNL     1       1.359   3.159  17.391  0.00  0.00    +0.000 OA
ATOM     18  H   UNL     1       1.072   3.016  18.327  0.00  0.00    +0.000 HD
ENDBRANCH  15  17
ENDBRANCH   4   6
ENDBRANCH   1   2
BRANCH   1  19
ATOM     19  S   UNL     1       1.158  10.403  18.985  0.00  0.00    +0.000 S 
BRANCH  19  21
ATOM     20  N   UNL     1      -1.047  11.614  20.085  0.00  0.00    +0.000 N 
ATOM     21  C   UNL     1      -0.609  10.892  18.945  0.00  0.00    +0.000 A 
ATOM     22  N   UNL     1      -1.424  10.628  17.961  0.00  0.00    +0.000 NA
ATOM     23  C   UNL     1      -2.796  11.073  18.063  0.00  0.00    +0.000 A 
ATOM     24  C   UNL     1      -3.785  10.739  17.126  0.00  0.00    +0.000 A 
ATOM     25  C   UNL     1      -5.124  11.199  17.228  0.00  0.00    +0.000 A 
ATOM     26  C   UNL     1      -5.537  12.016  18.285  0.00  0.00    +0.000 A 
ATOM     27  C   UNL     1      -4.565  12.372  19.213  0.00  0.00    +0.000 A 
ATOM     28  C   UNL     1      -3.245  11.902  19.086  0.00  0.00    +0.000 A 
ATOM     29  C   UNL     1      -2.269  12.299  20.080  0.00  0.00    +0.000 A 
ATOM     30  O   UNL     1      -2.569  13.230  20.822  0.00  0.00    +0.000 OA
BRANCH  20  31
ATOM     31  C   UNL     1      -0.177  11.968  21.229  0.00  0.00    +0.000 C 
ATOM     32  C   UNL     1      -0.810  11.688  22.608  0.00  0.00    +0.000 C 
BRANCH  31  33
ATOM     33  C   UNL     1       0.273  13.429  21.104  0.00  0.00    +0.000 C 
BRANCH  33  35
ATOM     34  C   UNL     1       0.708  15.349  22.367  0.00  0.00    +0.000 C 
ATOM     35  O   UNL     1       0.646  13.929  22.385  0.00  0.00    +0.000 OA
ENDBRANCH  33  35
ENDBRANCH  31  33
ENDBRANCH  20  31
ENDBRANCH  19  21
ENDBRANCH   1  19
TORSDOF 8
ENDMDL
MODEL 5
REMARK VINA RESULT:      -8.0      2.272      3.161
REMARK  Name = 
REMARK  12 active torsions:
REMARK  status: ('A' for Active; 'I' for Inactive)
REMARK    1  A    between atoms: C_1  and  O_2
REMARK    2  A    between atoms: O_2  and  C_3
REMARK    3  A    between atoms: C_3  and  C_4
REMARK    4  A    between atoms: C_4  and  C_5
REMARK    5  A    between atoms: C_4  and  N_6
REMARK    6  A    between atoms: C_7  and  S_8
REMARK    7  A    between atoms: S_8  and  C_9
REMARK    8  A    between atoms: C_9  and  C_10
REMARK    9  A    between atoms: N_12  and  C_13
REMARK   10  A    between atoms: C_15  and  C_16
REMARK   11  A    between atoms: C_18  and  C_19
REMARK   12  A    between atoms: C_22  and  O_23
REMARK                            x       y       z     vdW  Elec       q    Type
REMARK                         _______ _______ _______ _____ _____    ______ ____
ROOT
ATOM      1  C   UNL     1       2.648   9.144  18.214  0.00  0.00    +0.000 C 
ENDROOT
BRANCH   1   2
ATOM      2  C   UNL     1       2.874   7.652  17.645  0.00  0.00    +0.000 C 
ATOM      3  O   UNL     1       1.910   6.870  17.704  0.00  0.00    +0.000 OA
ATOM      4  N   UNL     1       4.102   7.217  17.082  0.00  0.00    +0.000 N 
ATOM      5  H   UNL     1       4.821   7.916  17.220  0.00  0.00    +0.000 HD
BRANCH   4   6
ATOM      6  C   UNL     1       4.562   5.952  17.529  0.00  0.00    +0.000 A 
ATOM      7  O   UNL     1       4.412   5.884  18.922  0.00  0.00    +0.000 OA
ATOM      8  C   UNL     1       5.095   4.741  19.276  0.00  0.00    +0.000 A 
ATOM      9  C   UNL     1       4.081   3.562  19.298  0.00  0.00    +0.000 C 
ATOM     10  C   UNL     1       6.176   4.804  18.421  0.00  0.00    +0.000 A 
ATOM     11  C   UNL     1       7.477   5.383  18.402  0.00  0.00    +0.000 A 
ATOM     12  C   UNL     1       7.713   6.865  18.172  0.00  0.00    +0.000 C 
ATOM     13  N   UNL     1       8.157   4.726  17.354  0.00  0.00    +0.000 NA
ATOM     14  N   UNL     1       7.441   4.188  16.223  0.00  0.00    +0.000 NA
ATOM     15  C   UNL     1       6.056   4.212  16.079  0.00  0.00    +0.000 A 
ATOM     16  C   UNL     1       5.423   4.844  17.201  0.00  0.00    +0.000 A 
BRANCH  15  17
ATOM     17  O   UNL     1       5.718   2.854  15.968  0.00  0.00    +0.000 OA
ATOM     18  H   UNL     1       4.862   2.841  16.464  0.00  0.00    +0.000 HD
ENDBRANCH  15  17
ENDBRANCH   4   6
ENDBRANCH   1   2
BRANCH   1  19
ATOM     19  S   UNL     1       1.370   9.384  19.476  0.00  0.00    +0.000 S 
BRANCH  19  21
ATOM     20  N   UNL     1      -0.906  10.902  19.709  0.00  0.00    +0.000 N 
ATOM     21  C   UNL     1      -0.232  10.008  18.838  0.00  0.00    +0.000 A 
ATOM     22  N   UNL     1      -0.737   9.689  17.678  0.00  0.00    +0.000 NA
ATOM     23  C   UNL     1      -2.014  10.255  17.301  0.00  0.00    +0.000 A 
ATOM     24  C   UNL     1      -2.705   9.886  16.138  0.00  0.00    +0.000 A 
ATOM     25  C   UNL     1      -3.949  10.464  15.772  0.00  0.00    +0.000 A 
ATOM     26  C   UNL     1      -4.563  11.439  16.563  0.00  0.00    +0.000 A 
ATOM     27  C   UNL     1      -3.882  11.829  17.711  0.00  0.00    +0.000 A 
ATOM     28  C   UNL     1      -2.650  11.240  18.049  0.00  0.00    +0.000 A 
ATOM     29  C   UNL     1      -1.981  11.678  19.257  0.00  0.00    +0.000 A 
ATOM     30  O   UNL     1      -2.380  12.717  19.775  0.00  0.00    +0.000 OA
BRANCH  20  31
ATOM     31  C   UNL     1      -0.387  11.325  21.029  0.00  0.00    +0.000 C 
ATOM     32  C   UNL     1       1.012  11.974  20.974  0.00  0.00    +0.000 C 
BRANCH  31  33
ATOM     33  C   UNL     1      -0.417  10.139  22.001  0.00  0.00    +0.000 C 
BRANCH  33  35
ATOM     34  C   UNL     1      -1.818  11.550  23.232  0.00  0.00    +0.000 C 
ATOM     35  O   UNL     1      -0.768  10.594  23.305  0.00  0.00    +0.000 OA
ENDBRANCH  33  35
ENDBRANCH  31  33
ENDBRANCH  20  31
ENDBRANCH  19  21
ENDBRANCH   1  19
TORSDOF 8
ENDMDL
MODEL 6
REMARK VINA RESULT:      -8.0      2.113      3.637
REMARK  Name = 
REMARK  12 active torsions:
REMARK  status: ('A' for Active; 'I' for Inactive)
REMARK    1  A    between atoms: C_1  and  O_2
REMARK    2  A    between atoms: O_2  and  C_3
REMARK    3  A    between atoms: C_3  and  C_4
REMARK    4  A    between atoms: C_4  and  C_5
REMARK    5  A    between atoms: C_4  and  N_6
REMARK    6  A    between atoms: C_7  and  S_8
REMARK    7  A    between atoms: S_8  and  C_9
REMARK    8  A    between atoms: C_9  and  C_10
REMARK    9  A    between atoms: N_12  and  C_13
REMARK   10  A    between atoms: C_15  and  C_16
REMARK   11  A    between atoms: C_18  and  C_19
REMARK   12  A    between atoms: C_22  and  O_23
REMARK                            x       y       z     vdW  Elec       q    Type
REMARK                         _______ _______ _______ _____ _____    ______ ____
ROOT
ATOM      1  C   UNL     1       1.780   9.043  17.946  0.00  0.00    +0.000 C 
ENDROOT
BRANCH   1   2
ATOM      2  C   UNL     1       2.617   7.785  18.509  0.00  0.00    +0.000 C 
ATOM      3  O   UNL     1       3.557   7.371  17.810  0.00  0.00    +0.000 OA
ATOM      4  N   UNL     1       2.330   7.158  19.750  0.00  0.00    +0.000 N 
ATOM      5  H   UNL     1       1.467   7.520  20.137  0.00  0.00    +0.000 HD
BRANCH   4   6
ATOM      6  C   UNL     1       2.294   5.741  19.721  0.00  0.00    +0.000 A 
ATOM      7  O   UNL     1       2.501   5.257  21.022  0.00  0.00    +0.000 OA
ATOM      8  C   UNL     1       2.686   3.904  20.849  0.00  0.00    +0.000 A 
ATOM      9  C   UNL     1       1.306   3.204  21.011  0.00  0.00    +0.000 C 
ATOM     10  C   UNL     1       3.421   3.884  19.682  0.00  0.00    +0.000 A 
ATOM     11  C   UNL     1       4.788   3.958  19.291  0.00  0.00    +0.000 A 
ATOM     12  C   UNL     1       5.574   5.257  19.297  0.00  0.00    +0.000 C 
ATOM     13  N   UNL     1       4.813   3.508  17.953  0.00  0.00    +0.000 NA
ATOM     14  N   UNL     1       3.667   3.664  17.093  0.00  0.00    +0.000 NA
ATOM     15  C   UNL     1       2.446   4.202  17.492  0.00  0.00    +0.000 A 
ATOM     16  C   UNL     1       2.469   4.589  18.873  0.00  0.00    +0.000 A 
BRANCH  15  17
ATOM     17  O   UNL     1       1.536   3.163  17.241  0.00  0.00    +0.000 OA
ATOM     18  H   UNL     1       1.469   2.761  18.143  0.00  0.00    +0.000 HD
ENDBRANCH  15  17
ENDBRANCH   4   6
ENDBRANCH   1   2
BRANCH   1  19
ATOM     19  S   UNL     1       0.731   9.953  19.110  0.00  0.00    +0.000 S 
BRANCH  19  21
ATOM     20  N   UNL     1       0.061  12.494  19.904  0.00  0.00    +0.000 N 
ATOM     21  C   UNL     1       1.009  11.765  19.142  0.00  0.00    +0.000 A 
ATOM     22  N   UNL     1       1.996  12.368  18.537  0.00  0.00    +0.000 NA
ATOM     23  C   UNL     1       2.094  13.808  18.645  0.00  0.00    +0.000 A 
ATOM     24  C   UNL     1       3.036  14.569  17.937  0.00  0.00    +0.000 A 
ATOM     25  C   UNL     1       3.133  15.980  18.068  0.00  0.00    +0.000 A 
ATOM     26  C   UNL     1       2.281  16.696  18.914  0.00  0.00    +0.000 A 
ATOM     27  C   UNL     1       1.354  15.954  19.636  0.00  0.00    +0.000 A 
ATOM     28  C   UNL     1       1.280  14.556  19.488  0.00  0.00    +0.000 A 
ATOM     29  C   UNL     1       0.294  13.828  20.261  0.00  0.00    +0.000 A 
ATOM     30  O   UNL     1      -0.238  14.422  21.195  0.00  0.00    +0.000 OA
BRANCH  20  31
ATOM     31  C   UNL     1      -1.070  11.878  20.633  0.00  0.00    +0.000 C 
ATOM     32  C   UNL     1      -2.442  12.502  20.304  0.00  0.00    +0.000 C 
BRANCH  31  33
ATOM     33  C   UNL     1      -0.789  11.903  22.141  0.00  0.00    +0.000 C 
BRANCH  33  35
ATOM     34  C   UNL     1      -0.428   9.836  23.173  0.00  0.00    +0.000 C 
ATOM     35  O   UNL     1       0.180  10.910  22.467  0.00  0.00    +0.000 OA
ENDBRANCH  33  35
ENDBRANCH  31  33
ENDBRANCH  20  31
ENDBRANCH  19  21
ENDBRANCH   1  19
TORSDOF 8
ENDMDL
MODEL 7
REMARK VINA RESULT:      -7.9      1.910      3.102
REMARK  Name = 
REMARK  12 active torsions:
REMARK  status: ('A' for Active; 'I' for Inactive)
REMARK    1  A    between atoms: C_1  and  O_2
REMARK    2  A    between atoms: O_2  and  C_3
REMARK    3  A    between atoms: C_3  and  C_4
REMARK    4  A    between atoms: C_4  and  C_5
REMARK    5  A    between atoms: C_4  and  N_6
REMARK    6  A    between atoms: C_7  and  S_8
REMARK    7  A    between atoms: S_8  and  C_9
REMARK    8  A    between atoms: C_9  and  C_10
REMARK    9  A    between atoms: N_12  and  C_13
REMARK   10  A    between atoms: C_15  and  C_16
REMARK   11  A    between atoms: C_18  and  C_19
REMARK   12  A    between atoms: C_22  and  O_23
REMARK                            x       y       z     vdW  Elec       q    Type
REMARK                         _______ _______ _______ _____ _____    ______ ____
ROOT
ATOM      1  C   UNL     1       1.831   8.333  19.570  0.00  0.00    +0.000 C 
ENDROOT
BRANCH   1   2
ATOM      2  C   UNL     1       2.413   7.130  18.667  0.00  0.00    +0.000 C 
ATOM      3  O   UNL     1       2.092   5.974  18.990  0.00  0.00    +0.000 OA
ATOM      4  N   UNL     1       3.249   7.343  17.541  0.00  0.00    +0.000 N 
ATOM      5  H   UNL     1       3.523   8.315  17.484  0.00  0.00    +0.000 HD
BRANCH   4   6
ATOM      6  C   UNL     1       4.394   6.509  17.467  0.00  0.00    +0.000 A 
ATOM      7  O   UNL     1       4.740   6.336  16.118  0.00  0.00    +0.000 OA
ATOM      8  C   UNL     1       5.690   5.340  16.143  0.00  0.00    +0.000 A 
ATOM      9  C   UNL     1       7.091   6.012  16.221  0.00  0.00    +0.000 C 
ATOM     10  C   UNL     1       5.183   4.514  17.125  0.00  0.00    +0.000 A 
ATOM     11  C   UNL     1       4.271   3.425  17.224  0.00  0.00    +0.000 A 
ATOM     12  C   UNL     1       2.765   3.606  17.154  0.00  0.00    +0.000 C 
ATOM     13  N   UNL     1       4.523   2.849  18.488  0.00  0.00    +0.000 NA
ATOM     14  N   UNL     1       5.035   3.639  19.579  0.00  0.00    +0.000 NA
ATOM     15  C   UNL     1       5.373   4.988  19.489  0.00  0.00    +0.000 A 
ATOM     16  C   UNL     1       5.144   5.499  18.167  0.00  0.00    +0.000 A 
BRANCH  15  17
ATOM     17  O   UNL     1       6.731   5.007  19.844  0.00  0.00    +0.000 OA
ATOM     18  H   UNL     1       6.831   4.097  20.218  0.00  0.00    +0.000 HD
ENDBRANCH  15  17
ENDBRANCH   4   6
ENDBRANCH   1   2
BRANCH   1  19
ATOM     19  S   UNL     1       1.568   9.939  18.773  0.00  0.00    +0.000 S 
BRANCH  19  21
ATOM     20  N   UNL     1      -0.660  11.112  19.868  0.00  0.00    +0.000 N 
ATOM     21  C   UNL     1      -0.183  10.480  18.691  0.00  0.00    +0.000 A 
ATOM     22  N   UNL     1      -0.952  10.326  17.649  0.00  0.00    +0.000 NA
ATOM     23  C   UNL     1      -2.317  10.800  17.723  0.00  0.00    +0.000 A 
ATOM     24  C   UNL     1      -3.265  10.576  16.714  0.00  0.00    +0.000 A 
ATOM     25  C   UNL     1      -4.596  11.064  16.792  0.00  0.00    +0.000 A 
ATOM     26  C   UNL     1      -5.042  11.796  17.895  0.00  0.00    +0.000 A 
ATOM     27  C   UNL     1      -4.110  12.041  18.897  0.00  0.00    +0.000 A 
ATOM     28  C   UNL     1      -2.797  11.548  18.794  0.00  0.00    +0.000 A 
ATOM     29  C   UNL     1      -1.864  11.828  19.865  0.00  0.00    +0.000 A 
ATOM     30  O   UNL     1      -2.179  12.699  20.672  0.00  0.00    +0.000 OA
BRANCH  20  31
ATOM     31  C   UNL     1       0.158  11.339  21.080  0.00  0.00    +0.000 C 
ATOM     32  C   UNL     1      -0.506  10.854  22.386  0.00  0.00    +0.000 C 
BRANCH  31  33
ATOM     33  C   UNL     1       0.553  12.819  21.167  0.00  0.00    +0.000 C 
BRANCH  33  35
ATOM     34  C   UNL     1       2.429  13.437  19.915  0.00  0.00    +0.000 C 
ATOM     35  O   UNL     1       1.973  12.939  21.167  0.00  0.00    +0.000 OA
ENDBRANCH  33  35
ENDBRANCH  31  33
ENDBRANCH  20  31
ENDBRANCH  19  21
ENDBRANCH   1  19
TORSDOF 8
ENDMDL
MODEL 8
REMARK VINA RESULT:      -7.9      2.028      2.722
REMARK  Name = 
REMARK  12 active torsions:
REMARK  status: ('A' for Active; 'I' for Inactive)
REMARK    1  A    between atoms: C_1  and  O_2
REMARK    2  A    between atoms: O_2  and  C_3
REMARK    3  A    between atoms: C_3  and  C_4
REMARK    4  A    between atoms: C_4  and  C_5
REMARK    5  A    between atoms: C_4  and  N_6
REMARK    6  A    between atoms: C_7  and  S_8
REMARK    7  A    between atoms: S_8  and  C_9
REMARK    8  A    between atoms: C_9  and  C_10
REMARK    9  A    between atoms: N_12  and  C_13
REMARK   10  A    between atoms: C_15  and  C_16
REMARK   11  A    between atoms: C_18  and  C_19
REMARK   12  A    between atoms: C_22  and  O_23
REMARK                            x       y       z     vdW  Elec       q    Type
REMARK                         _______ _______ _______ _____ _____    ______ ____
ROOT
ATOM      1  C   UNL     1       1.869   8.089  19.255  0.00  0.00    +0.000 C 
ENDROOT
BRANCH   1   2
ATOM      2  C   UNL     1       2.469   6.921  18.318  0.00  0.00    +0.000 C 
ATOM      3  O   UNL     1       1.677   6.048  17.924  0.00  0.00    +0.000 OA
ATOM      4  N   UNL     1       3.833   6.865  17.930  0.00  0.00    +0.000 N 
ATOM      5  H   UNL     1       4.370   7.562  18.429  0.00  0.00    +0.000 HD
BRANCH   4   6
ATOM      6  C   UNL     1       4.449   5.594  18.055  0.00  0.00    +0.000 A 
ATOM      7  O   UNL     1       4.564   5.280  19.418  0.00  0.00    +0.000 OA
ATOM      8  C   UNL     1       5.374   4.167  19.437  0.00  0.00    +0.000 A 
ATOM      9  C   UNL     1       4.461   2.907  19.417  0.00  0.00    +0.000 C 
ATOM     10  C   UNL     1       6.272   4.476  18.437  0.00  0.00    +0.000 A 
ATOM     11  C   UNL     1       7.506   5.173  18.303  0.00  0.00    +0.000 A 
ATOM     12  C   UNL     1       7.597   6.689  18.308  0.00  0.00    +0.000 C 
ATOM     13  N   UNL     1       8.023   4.769  17.052  0.00  0.00    +0.000 NA
ATOM     14  N   UNL     1       7.148   4.360  15.981  0.00  0.00    +0.000 NA
ATOM     15  C   UNL     1       5.761   4.273  16.082  0.00  0.00    +0.000 A 
ATOM     16  C   UNL     1       5.306   4.645  17.391  0.00  0.00    +0.000 A 
BRANCH  15  17
ATOM     17  O   UNL     1       5.498   2.927  15.786  0.00  0.00    +0.000 OA
ATOM     18  H   UNL     1       6.328   2.683  15.306  0.00  0.00    +0.000 HD
ENDBRANCH  15  17
ENDBRANCH   4   6
ENDBRANCH   1   2
BRANCH   1  19
ATOM     19  S   UNL     1       1.628   9.727  18.518  0.00  0.00    +0.000 S 
BRANCH  19  21
ATOM     20  N   UNL     1      -0.521  10.986  19.672  0.00  0.00    +0.000 N 
ATOM     21  C   UNL     1      -0.109  10.312  18.494  0.00  0.00    +0.000 A 
ATOM     22  N   UNL     1      -0.926  10.152  17.489  0.00  0.00    +0.000 NA
ATOM     23  C   UNL     1      -2.274  10.663  17.606  0.00  0.00    +0.000 A 
ATOM     24  C   UNL     1      -3.268  10.439  16.643  0.00  0.00    +0.000 A 
ATOM     25  C   UNL     1      -4.582  10.964  16.762  0.00  0.00    +0.000 A 
ATOM     26  C   UNL     1      -4.963  11.736  17.863  0.00  0.00    +0.000 A 
ATOM     27  C   UNL     1      -3.984  11.982  18.819  0.00  0.00    +0.000 A 
ATOM     28  C   UNL     1      -2.689  11.451  18.675  0.00  0.00    +0.000 A 
ATOM     29  C   UNL     1      -1.705  11.734  19.699  0.00  0.00    +0.000 A 
ATOM     30  O   UNL     1      -1.964  12.633  20.495  0.00  0.00    +0.000 OA
BRANCH  20  31
ATOM     31  C   UNL     1       0.353  11.222  20.843  0.00  0.00    +0.000 C 
ATOM     32  C   UNL     1      -0.035  10.402  22.091  0.00  0.00    +0.000 C 
BRANCH  31  33
ATOM     33  C   UNL     1       0.407  12.724  21.153  0.00  0.00    +0.000 C 
BRANCH  33  35
ATOM     34  C   UNL     1       2.429  13.246  20.099  0.00  0.00    +0.000 C 
ATOM     35  O   UNL     1       1.760  13.126  21.348  0.00  0.00    +0.000 OA
ENDBRANCH  33  35
ENDBRANCH  31  33
ENDBRANCH  20  31
ENDBRANCH  19  21
ENDBRANCH   1  19
TORSDOF 8
ENDMDL
MODEL 9
REMARK VINA RESULT:      -7.9      3.016      4.744
REMARK  Name = 
REMARK  12 active torsions:
REMARK  status: ('A' for Active; 'I' for Inactive)
REMARK    1  A    between atoms: C_1  and  O_2
REMARK    2  A    between atoms: O_2  and  C_3
REMARK    3  A    between atoms: C_3  and  C_4
REMARK    4  A    between atoms: C_4  and  C_5
REMARK    5  A    between atoms: C_4  and  N_6
REMARK    6  A    between atoms: C_7  and  S_8
REMARK    7  A    between atoms: S_8  and  C_9
REMARK    8  A    between atoms: C_9  and  C_10
REMARK    9  A    between atoms: N_12  and  C_13
REMARK   10  A    between atoms: C_15  and  C_16
REMARK   11  A    between atoms: C_18  and  C_19
REMARK   12  A    between atoms: C_22  and  O_23
REMARK                            x       y       z     vdW  Elec       q    Type
REMARK                         _______ _______ _______ _____ _____    ______ ____
ROOT
ATOM      1  C   UNL     1       2.216   8.514  18.921  0.00  0.00    +0.000 C 
ENDROOT
BRANCH   1   2
ATOM      2  C   UNL     1       2.614   7.191  18.088  0.00  0.00    +0.000 C 
ATOM      3  O   UNL     1       1.728   6.335  17.927  0.00  0.00    +0.000 OA
ATOM      4  N   UNL     1       3.907   6.982  17.540  0.00  0.00    +0.000 N 
ATOM      5  H   UNL     1       4.546   7.698  17.862  0.00  0.00    +0.000 HD
BRANCH   4   6
ATOM      6  C   UNL     1       4.462   5.696  17.763  0.00  0.00    +0.000 A 
ATOM      7  O   UNL     1       4.427   5.423  19.138  0.00  0.00    +0.000 OA
ATOM      8  C   UNL     1       5.192   4.285  19.271  0.00  0.00    +0.000 A 
ATOM      9  C   UNL     1       4.241   3.055  19.194  0.00  0.00    +0.000 C 
ATOM     10  C   UNL     1       6.197   4.533  18.359  0.00  0.00    +0.000 A 
ATOM     11  C   UNL     1       7.461   5.185  18.331  0.00  0.00    +0.000 A 
ATOM     12  C   UNL     1       7.605   6.696  18.303  0.00  0.00    +0.000 C 
ATOM     13  N   UNL     1       8.086   4.725  17.151  0.00  0.00    +0.000 NA
ATOM     14  N   UNL     1       7.310   4.312  16.009  0.00  0.00    +0.000 NA
ATOM     15  C   UNL     1       5.918   4.273  15.971  0.00  0.00    +0.000 A 
ATOM     16  C   UNL     1       5.346   4.700  17.216  0.00  0.00    +0.000 A 
BRANCH  15  17
ATOM     17  O   UNL     1       5.638   2.927  15.687  0.00  0.00    +0.000 OA
ATOM     18  H   UNL     1       4.717   2.856  16.040  0.00  0.00    +0.000 HD
ENDBRANCH  15  17
ENDBRANCH   4   6
ENDBRANCH   1   2
BRANCH   1  19
ATOM     19  S   UNL     1       1.344   9.837  18.043  0.00  0.00    +0.000 S 
BRANCH  19  21
ATOM     20  N   UNL     1       1.099  11.998  19.717  0.00  0.00    +0.000 N 
ATOM     21  C   UNL     1       1.791  11.535  18.570  0.00  0.00    +0.000 A 
ATOM     22  N   UNL     1       2.679  12.282  17.971  0.00  0.00    +0.000 NA
ATOM     23  C   UNL     1       2.932  13.606  18.494  0.00  0.00    +0.000 A 
ATOM     24  C   UNL     1       3.769  14.536  17.860  0.00  0.00    +0.000 A 
ATOM     25  C   UNL     1       4.024  15.826  18.396  0.00  0.00    +0.000 A 
ATOM     26  C   UNL     1       3.442  16.248  19.594  0.00  0.00    +0.000 A 
ATOM     27  C   UNL     1       2.623  15.332  20.244  0.00  0.00    +0.000 A 
ATOM     28  C   UNL     1       2.389  14.059  19.692  0.00  0.00    +0.000 A 
ATOM     29  C   UNL     1       1.526  13.141  20.406  0.00  0.00    +0.000 A 
ATOM     30  O   UNL     1       1.262  13.412  21.575  0.00  0.00    +0.000 OA
BRANCH  20  31
ATOM     31  C   UNL     1       0.096  11.203  20.460  0.00  0.00    +0.000 C 
ATOM     32  C   UNL     1      -1.146  12.009  20.895  0.00  0.00    +0.000 C 
BRANCH  31  33
ATOM     33  C   UNL     1       0.764  10.513  21.656  0.00  0.00    +0.000 C 
BRANCH  33  35
ATOM     34  C   UNL     1      -0.135   9.441  23.530  0.00  0.00    +0.000 C 
ATOM     35  O   UNL     1      -0.048  10.668  22.816  0.00  0.00    +0.000 OA
ENDBRANCH  33  35
ENDBRANCH  31  33
ENDBRANCH  20  31
ENDBRANCH  19  21
ENDBRANCH   1  19
TORSDOF 8
ENDMDL
