MODEL 1
REMARK VINA RESULT:      -7.2      0.000      0.000
REMARK  Name = 
REMARK  3 active torsions:
REMARK  status: ('A' for Active; 'I' for Inactive)
REMARK    1  A    between atoms: N_1  and  C_2
REMARK    2  A    between atoms: C_2  and  N_4
REMARK    3  A    between atoms: N_4  and  N_5
REMARK                            x       y       z     vdW  Elec       q    Type
REMARK                         _______ _______ _______ _____ _____    ______ ____
ROOT
ATOM      1  N   UNL     1       6.288   5.973  15.734  0.00  0.00    +0.000 NA
ATOM      2  C   UNL     1       6.093   5.449  16.901  0.00  0.00    +0.000 C 
ATOM      3  C   UNL     1       7.006   4.533  17.721  0.00  0.00    +0.000 C 
ATOM      4  O   UNL     1       8.106   4.157  17.379  0.00  0.00    +0.000 OA
ATOM      5  N   UNL     1       6.305   4.252  18.877  0.00  0.00    +0.000 N 
ATOM      6  C   UNL     1       5.065   4.889  18.868  0.00  0.00    +0.000 A 
ATOM      7  C   UNL     1       4.086   4.837  19.837  0.00  0.00    +0.000 A 
ATOM      8  C   UNL     1       2.913   5.563  19.595  0.00  0.00    +0.000 A 
ATOM      9 CL   UNL     1       1.646   5.529  20.760  0.00  0.00    +0.000 Cl
ATOM     10  C   UNL     1       2.740   6.317  18.415  0.00  0.00    +0.000 A 
ATOM     11  C   UNL     1       3.744   6.358  17.445  0.00  0.00    +0.000 A 
ATOM     12  C   UNL     1       4.890   5.632  17.703  0.00  0.00    +0.000 A 
ATOM     13  H   UNL     1       6.666   3.658  19.610  0.00  0.00    +0.000 HD
ENDROOT
BRANCH   1  14
ATOM     14  N   UNL     1       7.471   5.671  15.117  0.00  0.00    +0.000 N 
ATOM     15  H   UNL     1       8.362   5.813  15.602  0.00  0.00    +0.000 HD
BRANCH  14  16
ATOM     16  C   UNL     1       7.486   5.150  13.851  0.00  0.00    +0.000 C 
ATOM     17  S   UNL     1       6.470   3.934  13.365  0.00  0.00    +0.000 S 
BRANCH  16  18
ATOM     18  N   UNL     1       8.394   5.702  13.010  0.00  0.00    +0.000 N 
ATOM     19  H   UNL     1       9.250   5.225  12.767  0.00  0.00    +0.000 HD
ATOM     20  H   UNL     1       8.215   6.646  12.696  0.00  0.00    +0.000 HD
ENDBRANCH  16  18
ENDBRANCH  14  16
ENDBRANCH   1  14
TORSDOF 3
ENDMDL
MODEL 2
REMARK VINA RESULT:      -7.1      1.394      1.452
REMARK  Name = 
REMARK  3 active torsions:
REMARK  status: ('A' for Active; 'I' for Inactive)
REMARK    1  A    between atoms: N_1  and  C_2
REMARK    2  A    between atoms: C_2  and  N_4
REMARK    3  A    between atoms: N_4  and  N_5
REMARK                            x       y       z     vdW  Elec       q    Type
REMARK                         _______ _______ _______ _____ _____    ______ ____
ROOT
ATOM      1  N   UNL     1       5.225   5.515  15.987  0.00  0.00    +0.000 NA
ATOM      2  C   UNL     1       5.225   4.917  17.135  0.00  0.00    +0.000 C 
ATOM      3  C   UNL     1       6.409   4.461  17.993  0.00  0.00    +0.000 C 
ATOM      4  O   UNL     1       7.577   4.615  17.710  0.00  0.00    +0.000 OA
ATOM      5  N   UNL     1       5.850   3.862  19.105  0.00  0.00    +0.000 N 
ATOM      6  C   UNL     1       4.458   3.895  19.034  0.00  0.00    +0.000 A 
ATOM      7  C   UNL     1       3.557   3.389  19.946  0.00  0.00    +0.000 A 
ATOM      8  C   UNL     1       2.197   3.539  19.646  0.00  0.00    +0.000 A 
ATOM      9 CL   UNL     1       1.020   2.915  20.738  0.00  0.00    +0.000 Cl
ATOM     10  C   UNL     1       1.766   4.184  18.468  0.00  0.00    +0.000 A 
ATOM     11  C   UNL     1       2.694   4.692  17.556  0.00  0.00    +0.000 A 
ATOM     12  C   UNL     1       4.028   4.529  17.870  0.00  0.00    +0.000 A 
ATOM     13  H   UNL     1       6.400   3.459  19.850  0.00  0.00    +0.000 HD
ENDROOT
BRANCH   1  14
ATOM     14  N   UNL     1       6.447   5.780  15.433  0.00  0.00    +0.000 N 
ATOM     15  H   UNL     1       7.066   6.481  15.852  0.00  0.00    +0.000 HD
BRANCH  14  16
ATOM     16  C   UNL     1       6.877   5.098  14.327  0.00  0.00    +0.000 C 
ATOM     17  S   UNL     1       6.041   3.825  13.673  0.00  0.00    +0.000 S 
BRANCH  16  18
ATOM     18  N   UNL     1       8.043   5.538  13.794  0.00  0.00    +0.000 N 
ATOM     19  H   UNL     1       8.227   6.521  13.661  0.00  0.00    +0.000 HD
ATOM     20  H   UNL     1       8.690   4.835  13.461  0.00  0.00    +0.000 HD
ENDBRANCH  16  18
ENDBRANCH  14  16
ENDBRANCH   1  14
TORSDOF 3
ENDMDL
MODEL 3
REMARK VINA RESULT:      -7.0      2.880      3.300
REMARK  Name = 
REMARK  3 active torsions:
REMARK  status: ('A' for Active; 'I' for Inactive)
REMARK    1  A    between atoms: N_1  and  C_2
REMARK    2  A    between atoms: C_2  and  N_4
REMARK    3  A    between atoms: N_4  and  N_5
REMARK                            x       y       z     vdW  Elec       q    Type
REMARK                         _______ _______ _______ _____ _____    ______ ____
ROOT
ATOM      1  N   UNL     1       5.613   6.972  17.384  0.00  0.00    +0.000 NA
ATOM      2  C   UNL     1       5.372   5.703  17.308  0.00  0.00    +0.000 C 
ATOM      3  C   UNL     1       6.274   4.569  16.813  0.00  0.00    +0.000 C 
ATOM      4  O   UNL     1       7.409   4.705  16.411  0.00  0.00    +0.000 OA
ATOM      5  N   UNL     1       5.518   3.419  16.926  0.00  0.00    +0.000 N 
ATOM      6  C   UNL     1       4.253   3.710  17.434  0.00  0.00    +0.000 A 
ATOM      7  C   UNL     1       3.220   2.829  17.675  0.00  0.00    +0.000 A 
ATOM      8  C   UNL     1       2.032   3.367  18.185  0.00  0.00    +0.000 A 
ATOM      9 CL   UNL     1       0.698   2.322  18.494  0.00  0.00    +0.000 Cl
ATOM     10  C   UNL     1       1.897   4.747  18.447  0.00  0.00    +0.000 A 
ATOM     11  C   UNL     1       2.955   5.624  18.198  0.00  0.00    +0.000 A 
ATOM     12  C   UNL     1       4.115   5.073  17.691  0.00  0.00    +0.000 A 
ATOM     13  H   UNL     1       5.860   2.506  16.664  0.00  0.00    +0.000 HD
ENDROOT
BRANCH   1  14
ATOM     14  N   UNL     1       6.844   7.388  16.955  0.00  0.00    +0.000 N 
ATOM     15  H   UNL     1       7.077   7.380  15.959  0.00  0.00    +0.000 HD
BRANCH  14  16
ATOM     16  C   UNL     1       7.777   7.847  17.847  0.00  0.00    +0.000 C 
ATOM     17  S   UNL     1       8.281   9.426  17.890  0.00  0.00    +0.000 S 
BRANCH  16  18
ATOM     18  N   UNL     1       8.264   6.917  18.703  0.00  0.00    +0.000 N 
ATOM     19  H   UNL     1       9.104   6.396  18.498  0.00  0.00    +0.000 HD
ATOM     20  H   UNL     1       7.707   6.710  19.522  0.00  0.00    +0.000 HD
ENDBRANCH  16  18
ENDBRANCH  14  16
ENDBRANCH   1  14
TORSDOF 3
ENDMDL
MODEL 4
REMARK VINA RESULT:      -6.8      1.972      2.320
REMARK  Name = 
REMARK  3 active torsions:
REMARK  status: ('A' for Active; 'I' for Inactive)
REMARK    1  A    between atoms: N_1  and  C_2
REMARK    2  A    between atoms: C_2  and  N_4
REMARK    3  A    between atoms: N_4  and  N_5
REMARK                            x       y       z     vdW  Elec       q    Type
REMARK                         _______ _______ _______ _____ _____    ______ ____
ROOT
ATOM      1  N   UNL     1       6.194   4.008  15.975  0.00  0.00    +0.000 NA
ATOM      2  C   UNL     1       5.315   4.722  16.601  0.00  0.00    +0.000 C 
ATOM      3  C   UNL     1       5.201   6.245  16.714  0.00  0.00    +0.000 C 
ATOM      4  O   UNL     1       5.951   7.042  16.194  0.00  0.00    +0.000 OA
ATOM      5  N   UNL     1       4.097   6.474  17.512  0.00  0.00    +0.000 N 
ATOM      6  C   UNL     1       3.515   5.270  17.906  0.00  0.00    +0.000 A 
ATOM      7  C   UNL     1       2.411   5.093  18.711  0.00  0.00    +0.000 A 
ATOM      8  C   UNL     1       2.020   3.774  18.972  0.00  0.00    +0.000 A 
ATOM      9 CL   UNL     1       0.656   3.484  19.983  0.00  0.00    +0.000 Cl
ATOM     10  C   UNL     1       2.719   2.674  18.432  0.00  0.00    +0.000 A 
ATOM     11  C   UNL     1       3.835   2.873  17.617  0.00  0.00    +0.000 A 
ATOM     12  C   UNL     1       4.206   4.181  17.376  0.00  0.00    +0.000 A 
ATOM     13  H   UNL     1       3.781   7.400  17.763  0.00  0.00    +0.000 HD
ENDROOT
BRANCH   1  14
ATOM     14  N   UNL     1       7.182   4.689  15.318  0.00  0.00    +0.000 N 
ATOM     15  H   UNL     1       7.927   5.156  15.842  0.00  0.00    +0.000 HD
BRANCH  14  16
ATOM     16  C   UNL     1       7.207   4.738  13.950  0.00  0.00    +0.000 C 
ATOM     17  S   UNL     1       6.257   3.771  12.997  0.00  0.00    +0.000 S 
BRANCH  16  18
ATOM     18  N   UNL     1       8.067   5.641  13.420  0.00  0.00    +0.000 N 
ATOM     19  H   UNL     1       7.911   6.051  12.511  0.00  0.00    +0.000 HD
ATOM     20  H   UNL     1       8.915   5.828  13.940  0.00  0.00    +0.000 HD
ENDBRANCH  16  18
ENDBRANCH  14  16
ENDBRANCH   1  14
TORSDOF 3
ENDMDL
MODEL 5
REMARK VINA RESULT:      -6.7      1.527      1.543
REMARK  Name = 
REMARK  3 active torsions:
REMARK  status: ('A' for Active; 'I' for Inactive)
REMARK    1  A    between atoms: N_1  and  C_2
REMARK    2  A    between atoms: C_2  and  N_4
REMARK    3  A    between atoms: N_4  and  N_5
REMARK                            x       y       z     vdW  Elec       q    Type
REMARK                         _______ _______ _______ _____ _____    ______ ____
ROOT
ATOM      1  N   UNL     1       5.525   3.809  15.507  0.00  0.00    +0.000 NA
ATOM      2  C   UNL     1       5.434   4.087  16.767  0.00  0.00    +0.000 C 
ATOM      3  C   UNL     1       6.534   4.472  17.760  0.00  0.00    +0.000 C 
ATOM      4  O   UNL     1       7.709   4.591  17.488  0.00  0.00    +0.000 OA
ATOM      5  N   UNL     1       5.895   4.639  18.973  0.00  0.00    +0.000 N 
ATOM      6  C   UNL     1       4.528   4.401  18.846  0.00  0.00    +0.000 A 
ATOM      7  C   UNL     1       3.568   4.457  19.834  0.00  0.00    +0.000 A 
ATOM      8  C   UNL     1       2.251   4.167  19.458  0.00  0.00    +0.000 A 
ATOM      9 CL   UNL     1       1.007   4.206  20.650  0.00  0.00    +0.000 Cl
ATOM     10  C   UNL     1       1.916   3.839  18.128  0.00  0.00    +0.000 A 
ATOM     11  C   UNL     1       2.901   3.789  17.139  0.00  0.00    +0.000 A 
ATOM     12  C   UNL     1       4.194   4.073  17.533  0.00  0.00    +0.000 A 
ATOM     13  H   UNL     1       6.380   4.894  19.821  0.00  0.00    +0.000 HD
ENDROOT
BRANCH   1  14
ATOM     14  N   UNL     1       6.778   3.849  14.959  0.00  0.00    +0.000 N 
ATOM     15  H   UNL     1       7.583   3.485  15.477  0.00  0.00    +0.000 HD
BRANCH  14  16
ATOM     16  C   UNL     1       6.975   4.350  13.701  0.00  0.00    +0.000 C 
ATOM     17  S   UNL     1       6.331   3.653  12.342  0.00  0.00    +0.000 S 
BRANCH  16  18
ATOM     18  N   UNL     1       7.738   5.468  13.637  0.00  0.00    +0.000 N 
ATOM     19  H   UNL     1       7.338   6.389  13.735  0.00  0.00    +0.000 HD
ATOM     20  H   UNL     1       8.716   5.344  13.410  0.00  0.00    +0.000 HD
ENDBRANCH  16  18
ENDBRANCH  14  16
ENDBRANCH   1  14
TORSDOF 3
ENDMDL
MODEL 6
REMARK VINA RESULT:      -6.5      2.908      3.932
REMARK  Name = 
REMARK  3 active torsions:
REMARK  status: ('A' for Active; 'I' for Inactive)
REMARK    1  A    between atoms: N_1  and  C_2
REMARK    2  A    between atoms: C_2  and  N_4
REMARK    3  A    between atoms: N_4  and  N_5
REMARK                            x       y       z     vdW  Elec       q    Type
REMARK                         _______ _______ _______ _____ _____    ______ ____
ROOT
ATOM      1  N   UNL     1       3.992   5.753  17.188  0.00  0.00    +0.000 NA
ATOM      2  C   UNL     1       3.414   6.055  18.306  0.00  0.00    +0.000 C 
ATOM      3  C   UNL     1       3.339   5.253  19.609  0.00  0.00    +0.000 C 
ATOM      4  O   UNL     1       3.849   4.170  19.793  0.00  0.00    +0.000 OA
ATOM      5  N   UNL     1       2.587   6.024  20.474  0.00  0.00    +0.000 N 
ATOM      6  C   UNL     1       2.188   7.209  19.857  0.00  0.00    +0.000 A 
ATOM      7  C   UNL     1       1.419   8.219  20.393  0.00  0.00    +0.000 A 
ATOM      8  C   UNL     1       1.143   9.316  19.567  0.00  0.00    +0.000 A 
ATOM      9 CL   UNL     1       0.176  10.605  20.173  0.00  0.00    +0.000 Cl
ATOM     10  C   UNL     1       1.633   9.388  18.246  0.00  0.00    +0.000 A 
ATOM     11  C   UNL     1       2.412   8.355  17.720  0.00  0.00    +0.000 A 
ATOM     12  C   UNL     1       2.668   7.282  18.551  0.00  0.00    +0.000 A 
ATOM     13  H   UNL     1       2.367   5.740  21.418  0.00  0.00    +0.000 HD
ENDROOT
BRANCH   1  14
ATOM     14  N   UNL     1       4.628   4.543  17.134  0.00  0.00    +0.000 N 
ATOM     15  H   UNL     1       4.088   3.673  17.116  0.00  0.00    +0.000 HD
BRANCH  14  16
ATOM     16  C   UNL     1       5.994   4.473  17.076  0.00  0.00    +0.000 C 
ATOM     17  S   UNL     1       6.850   4.718  15.677  0.00  0.00    +0.000 S 
BRANCH  16  18
ATOM     18  N   UNL     1       6.608   4.190  18.250  0.00  0.00    +0.000 N 
ATOM     19  H   UNL     1       6.578   4.828  19.031  0.00  0.00    +0.000 HD
ATOM     20  H   UNL     1       7.166   3.347  18.285  0.00  0.00    +0.000 HD
ENDBRANCH  16  18
ENDBRANCH  14  16
ENDBRANCH   1  14
TORSDOF 3
ENDMDL
MODEL 7
REMARK VINA RESULT:      -6.4      2.282      2.774
REMARK  Name = 
REMARK  3 active torsions:
REMARK  status: ('A' for Active; 'I' for Inactive)
REMARK    1  A    between atoms: N_1  and  C_2
REMARK    2  A    between atoms: C_2  and  N_4
REMARK    3  A    between atoms: N_4  and  N_5
REMARK                            x       y       z     vdW  Elec       q    Type
REMARK                         _______ _______ _______ _____ _____    ______ ____
ROOT
ATOM      1  N   UNL     1       4.737   4.329  16.124  0.00  0.00    +0.000 NA
ATOM      2  C   UNL     1       4.233   4.809  17.215  0.00  0.00    +0.000 C 
ATOM      3  C   UNL     1       4.252   6.246  17.745  0.00  0.00    +0.000 C 
ATOM      4  O   UNL     1       4.759   7.191  17.181  0.00  0.00    +0.000 OA
ATOM      5  N   UNL     1       3.590   6.201  18.956  0.00  0.00    +0.000 N 
ATOM      6  C   UNL     1       3.163   4.904  19.237  0.00  0.00    +0.000 A 
ATOM      7  C   UNL     1       2.484   4.465  20.353  0.00  0.00    +0.000 A 
ATOM      8  C   UNL     1       2.170   3.101  20.410  0.00  0.00    +0.000 A 
ATOM      9 CL   UNL     1       1.333   2.486  21.784  0.00  0.00    +0.000 Cl
ATOM     10  C   UNL     1       2.527   2.216  19.372  0.00  0.00    +0.000 A 
ATOM     11  C   UNL     1       3.214   2.679  18.248  0.00  0.00    +0.000 A 
ATOM     12  C   UNL     1       3.517   4.026  18.214  0.00  0.00    +0.000 A 
ATOM     13  H   UNL     1       3.453   7.014  19.540  0.00  0.00    +0.000 HD
ENDROOT
BRANCH   1  14
ATOM     14  N   UNL     1       5.397   5.211  15.314  0.00  0.00    +0.000 N 
ATOM     15  H   UNL     1       5.146   6.203  15.313  0.00  0.00    +0.000 HD
BRANCH  14  16
ATOM     16  C   UNL     1       6.421   4.789  14.509  0.00  0.00    +0.000 C 
ATOM     17  S   UNL     1       6.198   3.748  13.238  0.00  0.00    +0.000 S 
BRANCH  16  18
ATOM     18  N   UNL     1       7.643   5.287  14.820  0.00  0.00    +0.000 N 
ATOM     19  H   UNL     1       8.447   5.123  14.232  0.00  0.00    +0.000 HD
ATOM     20  H   UNL     1       7.732   5.764  15.707  0.00  0.00    +0.000 HD
ENDBRANCH  16  18
ENDBRANCH  14  16
ENDBRANCH   1  14
TORSDOF 3
ENDMDL
MODEL 8
REMARK VINA RESULT:      -6.4      4.099      5.785
REMARK  Name = 
REMARK  3 active torsions:
REMARK  status: ('A' for Active; 'I' for Inactive)
REMARK    1  A    between atoms: N_1  and  C_2
REMARK    2  A    between atoms: C_2  and  N_4
REMARK    3  A    between atoms: N_4  and  N_5
REMARK                            x       y       z     vdW  Elec       q    Type
REMARK                         _______ _______ _______ _____ _____    ______ ____
ROOT
ATOM      1  N   UNL     1       4.310   3.902  18.207  0.00  0.00    +0.000 NA
ATOM      2  C   UNL     1       5.422   4.363  17.732  0.00  0.00    +0.000 C 
ATOM      3  C   UNL     1       6.611   4.984  18.470  0.00  0.00    +0.000 C 
ATOM      4  O   UNL     1       6.689   5.129  19.671  0.00  0.00    +0.000 OA
ATOM      5  N   UNL     1       7.520   5.324  17.487  0.00  0.00    +0.000 N 
ATOM      6  C   UNL     1       7.030   4.985  16.226  0.00  0.00    +0.000 A 
ATOM      7  C   UNL     1       7.642   5.178  15.006  0.00  0.00    +0.000 A 
ATOM      8  C   UNL     1       6.941   4.757  13.870  0.00  0.00    +0.000 A 
ATOM      9 CL   UNL     1       7.645   4.983  12.314  0.00  0.00    +0.000 Cl
ATOM     10  C   UNL     1       5.669   4.155  13.966  0.00  0.00    +0.000 A 
ATOM     11  C   UNL     1       5.065   3.965  15.211  0.00  0.00    +0.000 A 
ATOM     12  C   UNL     1       5.772   4.393  16.318  0.00  0.00    +0.000 A 
ATOM     13  H   UNL     1       8.408   5.762  17.684  0.00  0.00    +0.000 HD
ENDROOT
BRANCH   1  14
ATOM     14  N   UNL     1       4.144   3.977  19.563  0.00  0.00    +0.000 N 
ATOM     15  H   UNL     1       4.172   4.883  20.039  0.00  0.00    +0.000 HD
BRANCH  14  16
ATOM     16  C   UNL     1       3.912   2.850  20.303  0.00  0.00    +0.000 C 
ATOM     17  S   UNL     1       2.551   2.643  21.227  0.00  0.00    +0.000 S 
BRANCH  16  18
ATOM     18  N   UNL     1       4.877   1.901  20.229  0.00  0.00    +0.000 N 
ATOM     19  H   UNL     1       5.063   1.400  19.373  0.00  0.00    +0.000 HD
ATOM     20  H   UNL     1       5.350   1.660  21.090  0.00  0.00    +0.000 HD
ENDBRANCH  16  18
ENDBRANCH  14  16
ENDBRANCH   1  14
TORSDOF 3
ENDMDL
MODEL 9
REMARK VINA RESULT:      -6.4      2.478      2.985
REMARK  Name = 
REMARK  3 active torsions:
REMARK  status: ('A' for Active; 'I' for Inactive)
REMARK    1  A    between atoms: N_1  and  C_2
REMARK    2  A    between atoms: C_2  and  N_4
REMARK    3  A    between atoms: N_4  and  N_5
REMARK                            x       y       z     vdW  Elec       q    Type
REMARK                         _______ _______ _______ _____ _____    ______ ____
ROOT
ATOM      1  N   UNL     1       4.714   6.248  17.562  0.00  0.00    +0.000 NA
ATOM      2  C   UNL     1       4.394   5.025  17.836  0.00  0.00    +0.000 C 
ATOM      3  C   UNL     1       4.752   3.736  17.091  0.00  0.00    +0.000 C 
ATOM      4  O   UNL     1       5.434   3.673  16.091  0.00  0.00    +0.000 OA
ATOM      5  N   UNL     1       4.139   2.719  17.798  0.00  0.00    +0.000 N 
ATOM      6  C   UNL     1       3.444   3.230  18.892  0.00  0.00    +0.000 A 
ATOM      7  C   UNL     1       2.702   2.529  19.819  0.00  0.00    +0.000 A 
ATOM      8  C   UNL     1       2.085   3.273  20.833  0.00  0.00    +0.000 A 
ATOM      9 CL   UNL     1       1.132   2.459  22.014  0.00  0.00    +0.000 Cl
ATOM     10  C   UNL     1       2.220   4.675  20.908  0.00  0.00    +0.000 A 
ATOM     11  C   UNL     1       2.978   5.368  19.961  0.00  0.00    +0.000 A 
ATOM     12  C   UNL     1       3.573   4.615  18.968  0.00  0.00    +0.000 A 
ATOM     13  H   UNL     1       4.200   1.747  17.530  0.00  0.00    +0.000 HD
ENDROOT
BRANCH   1  14
ATOM     14  N   UNL     1       5.475   6.446  16.442  0.00  0.00    +0.000 N 
ATOM     15  H   UNL     1       5.034   6.515  15.520  0.00  0.00    +0.000 HD
BRANCH  14  16
ATOM     16  C   UNL     1       6.834   6.583  16.534  0.00  0.00    +0.000 C 
ATOM     17  S   UNL     1       7.565   7.608  17.612  0.00  0.00    +0.000 S 
BRANCH  16  18
ATOM     18  N   UNL     1       7.551   5.814  15.679  0.00  0.00    +0.000 N 
ATOM     19  H   UNL     1       8.419   6.137  15.277  0.00  0.00    +0.000 HD
ATOM     20  H   UNL     1       7.141   4.933  15.399  0.00  0.00    +0.000 HD
ENDBRANCH  16  18
ENDBRANCH  14  16
ENDBRANCH   1  14
TORSDOF 3
ENDMDL
