MODEL 1
REMARK VINA RESULT:      -7.5      0.000      0.000
REMARK  Name = 
REMARK  9 active torsions:
REMARK  status: ('A' for Active; 'I' for Inactive)
REMARK    1  A    between atoms: C_1  and  C_2
REMARK    2  A    between atoms: C_2  and  C_3
REMARK    3  A    between atoms: C_3  and  N_4
REMARK    4  A    between atoms: N_4  and  C_5
REMARK    5  A    between atoms: N_4  and  C_8
REMARK    6  A    between atoms: C_5  and  C_6
REMARK    7  A    between atoms: C_6  and  C_7
REMARK    8  A    between atoms: C_15  and  C_16
REMARK    9  A    between atoms: C_16  and  C_18
REMARK                            x       y       z     vdW  Elec       q    Type
REMARK                         _______ _______ _______ _____ _____    ______ ____
ROOT
ATOM      1  C   UNL     1       2.759   6.322  18.241  0.00  0.00    +0.000 C 
ATOM      2  C   UNL     1       3.207   7.668  17.614  0.00  0.00    +0.000 C 
ATOM      3  C   UNL     1       2.130   8.748  17.804  0.00  0.00    +0.000 C 
ATOM      4  N   UNL     1       1.587   8.795  19.153  0.00  0.00    +0.000 N 
ATOM      5  C   UNL     1       1.792   7.796  20.075  0.00  0.00    +0.000 A 
ATOM      6  C   UNL     1       1.141   8.150  21.234  0.00  0.00    +0.000 A 
ATOM      7  C   UNL     1       0.476   9.367  20.980  0.00  0.00    +0.000 A 
ATOM      8  C   UNL     1       0.700   9.729  19.657  0.00  0.00    +0.000 A 
ATOM      9  C   UNL     1       2.612   6.583  19.770  0.00  0.00    +0.000 C 
ENDROOT
BRANCH   8  10
ATOM     10  C   UNL     1       0.152  10.866  18.923  0.00  0.00    +0.000 C 
ATOM     11  O   UNL     1       0.786  11.898  18.709  0.00  0.00    +0.000 OA
BRANCH  10  12
ATOM     12  C   UNL     1      -1.244  10.779  18.394  0.00  0.00    +0.000 A 
ATOM     13  C   UNL     1      -1.579   9.876  17.376  0.00  0.00    +0.000 A 
ATOM     14  C   UNL     1      -2.893   9.803  16.904  0.00  0.00    +0.000 A 
ATOM     15  C   UNL     1      -3.870  10.649  17.427  0.00  0.00    +0.000 A 
ATOM     16  C   UNL     1      -3.533  11.571  18.418  0.00  0.00    +0.000 A 
ATOM     17  C   UNL     1      -2.223  11.644  18.898  0.00  0.00    +0.000 A 
ENDBRANCH  10  12
ENDBRANCH   8  10
BRANCH   1  18
ATOM     18  N   UNL     1       3.667   5.164  17.951  0.00  0.00    +0.000 NA
BRANCH  18  19
ATOM     19  C   UNL     1       2.885   3.965  17.562  0.00  0.00    +0.000 C 
BRANCH  19  21
ATOM     20  C   UNL     1       1.020   2.770  18.838  0.00  0.00    +0.000 C 
ATOM     21  C   UNL     1       1.391   3.928  17.925  0.00  0.00    +0.000 C 
ENDBRANCH  19  21
ENDBRANCH  18  19
BRANCH  18  22
ATOM     22  C   UNL     1       4.733   5.477  16.974  0.00  0.00    +0.000 C 
BRANCH  22  23
ATOM     23  C   UNL     1       5.230   4.306  16.109  0.00  0.00    +0.000 C 
ATOM     24  C   UNL     1       5.686   4.781  14.735  0.00  0.00    +0.000 C 
ENDBRANCH  22  23
ENDBRANCH  18  22
ENDBRANCH   1  18
TORSDOF 7
ENDMDL
MODEL 2
REMARK VINA RESULT:      -7.5      0.998      2.600
REMARK  Name = 
REMARK  9 active torsions:
REMARK  status: ('A' for Active; 'I' for Inactive)
REMARK    1  A    between atoms: C_1  and  C_2
REMARK    2  A    between atoms: C_2  and  C_3
REMARK    3  A    between atoms: C_3  and  N_4
REMARK    4  A    between atoms: N_4  and  C_5
REMARK    5  A    between atoms: N_4  and  C_8
REMARK    6  A    between atoms: C_5  and  C_6
REMARK    7  A    between atoms: C_6  and  C_7
REMARK    8  A    between atoms: C_15  and  C_16
REMARK    9  A    between atoms: C_16  and  C_18
REMARK                            x       y       z     vdW  Elec       q    Type
REMARK                         _______ _______ _______ _____ _____    ______ ____
ROOT
ATOM      1  C   UNL     1       2.787   6.484  18.365  0.00  0.00    +0.000 C 
ATOM      2  C   UNL     1       3.231   7.840  17.756  0.00  0.00    +0.000 C 
ATOM      3  C   UNL     1       2.119   8.892  17.889  0.00  0.00    +0.000 C 
ATOM      4  N   UNL     1       1.509   8.928  19.209  0.00  0.00    +0.000 N 
ATOM      5  C   UNL     1       1.694   7.937  20.143  0.00  0.00    +0.000 A 
ATOM      6  C   UNL     1       0.978   8.276  21.268  0.00  0.00    +0.000 A 
ATOM      7  C   UNL     1       0.295   9.475  20.978  0.00  0.00    +0.000 A 
ATOM      8  C   UNL     1       0.574   9.839  19.665  0.00  0.00    +0.000 A 
ATOM      9  C   UNL     1       2.559   6.745  19.883  0.00  0.00    +0.000 C 
ENDROOT
BRANCH   8  10
ATOM     10  C   UNL     1       0.034  10.960  18.902  0.00  0.00    +0.000 C 
ATOM     11  O   UNL     1       0.669  11.989  18.675  0.00  0.00    +0.000 OA
BRANCH  10  12
ATOM     12  C   UNL     1      -1.355  10.861  18.358  0.00  0.00    +0.000 A 
ATOM     13  C   UNL     1      -2.389  11.668  18.853  0.00  0.00    +0.000 A 
ATOM     14  C   UNL     1      -3.677  11.567  18.322  0.00  0.00    +0.000 A 
ATOM     15  C   UNL     1      -3.946  10.643  17.313  0.00  0.00    +0.000 A 
ATOM     16  C   UNL     1      -2.928   9.816  16.839  0.00  0.00    +0.000 A 
ATOM     17  C   UNL     1      -1.636   9.917  17.362  0.00  0.00    +0.000 A 
ENDBRANCH  10  12
ENDBRANCH   8  10
BRANCH   1  18
ATOM     18  N   UNL     1       3.738   5.350  18.123  0.00  0.00    +0.000 NA
BRANCH  18  19
ATOM     19  C   UNL     1       4.661   5.181  19.272  0.00  0.00    +0.000 C 
BRANCH  19  21
ATOM     20  C   UNL     1       6.494   6.121  17.757  0.00  0.00    +0.000 C 
ATOM     21  C   UNL     1       6.170   5.324  19.012  0.00  0.00    +0.000 C 
ENDBRANCH  19  21
ENDBRANCH  18  19
BRANCH  18  22
ATOM     22  C   UNL     1       3.068   4.082  17.755  0.00  0.00    +0.000 C 
BRANCH  22  23
ATOM     23  C   UNL     1       1.531   4.089  17.793  0.00  0.00    +0.000 C 
ATOM     24  C   UNL     1       0.988   2.926  18.614  0.00  0.00    +0.000 C 
ENDBRANCH  22  23
ENDBRANCH  18  22
ENDBRANCH   1  18
TORSDOF 7
ENDMDL
MODEL 3
REMARK VINA RESULT:      -7.4      1.126      2.247
REMARK  Name = 
REMARK  9 active torsions:
REMARK  status: ('A' for Active; 'I' for Inactive)
REMARK    1  A    between atoms: C_1  and  C_2
REMARK    2  A    between atoms: C_2  and  C_3
REMARK    3  A    between atoms: C_3  and  N_4
REMARK    4  A    between atoms: N_4  and  C_5
REMARK    5  A    between atoms: N_4  and  C_8
REMARK    6  A    between atoms: C_5  and  C_6
REMARK    7  A    between atoms: C_6  and  C_7
REMARK    8  A    between atoms: C_15  and  C_16
REMARK    9  A    between atoms: C_16  and  C_18
REMARK                            x       y       z     vdW  Elec       q    Type
REMARK                         _______ _______ _______ _____ _____    ______ ____
ROOT
ATOM      1  C   UNL     1       2.598   6.410  18.362  0.00  0.00    +0.000 C 
ATOM      2  C   UNL     1       3.058   7.734  17.697  0.00  0.00    +0.000 C 
ATOM      3  C   UNL     1       1.998   8.833  17.873  0.00  0.00    +0.000 C 
ATOM      4  N   UNL     1       1.471   8.920  19.226  0.00  0.00    +0.000 N 
ATOM      5  C   UNL     1       1.673   7.941  20.169  0.00  0.00    +0.000 A 
ATOM      6  C   UNL     1       1.041   8.332  21.327  0.00  0.00    +0.000 A 
ATOM      7  C   UNL     1       0.390   9.552  21.051  0.00  0.00    +0.000 A 
ATOM      8  C   UNL     1       0.603   9.878  19.717  0.00  0.00    +0.000 A 
ATOM      9  C   UNL     1       2.473   6.710  19.885  0.00  0.00    +0.000 C 
ENDROOT
BRANCH   8  10
ATOM     10  C   UNL     1       0.063  11.005  18.962  0.00  0.00    +0.000 C 
ATOM     11  O   UNL     1       0.689  12.045  18.762  0.00  0.00    +0.000 OA
BRANCH  10  12
ATOM     12  C   UNL     1      -1.316  10.898  18.392  0.00  0.00    +0.000 A 
ATOM     13  C   UNL     1      -2.365  11.690  18.879  0.00  0.00    +0.000 A 
ATOM     14  C   UNL     1      -3.643  11.583  18.323  0.00  0.00    +0.000 A 
ATOM     15  C   UNL     1      -3.885  10.668  17.299  0.00  0.00    +0.000 A 
ATOM     16  C   UNL     1      -2.851   9.856  16.834  0.00  0.00    +0.000 A 
ATOM     17  C   UNL     1      -1.570   9.964  17.382  0.00  0.00    +0.000 A 
ENDBRANCH  10  12
ENDBRANCH   8  10
BRANCH   1  18
ATOM     18  N   UNL     1       3.487   5.233  18.090  0.00  0.00    +0.000 NA
BRANCH  18  19
ATOM     19  C   UNL     1       4.195   4.810  19.322  0.00  0.00    +0.000 C 
BRANCH  19  21
ATOM     20  C   UNL     1       4.208   2.476  20.366  0.00  0.00    +0.000 C 
ATOM     21  C   UNL     1       4.834   3.411  19.343  0.00  0.00    +0.000 C 
ENDBRANCH  19  21
ENDBRANCH  18  19
BRANCH  18  22
ATOM     22  C   UNL     1       2.791   4.105  17.430  0.00  0.00    +0.000 C 
BRANCH  22  23
ATOM     23  C   UNL     1       1.297   3.942  17.755  0.00  0.00    +0.000 C 
ATOM     24  C   UNL     1       1.044   2.715  18.620  0.00  0.00    +0.000 C 
ENDBRANCH  22  23
ENDBRANCH  18  22
ENDBRANCH   1  18
TORSDOF 7
ENDMDL
MODEL 4
REMARK VINA RESULT:      -7.4      1.072      2.575
REMARK  Name = 
REMARK  9 active torsions:
REMARK  status: ('A' for Active; 'I' for Inactive)
REMARK    1  A    between atoms: C_1  and  C_2
REMARK    2  A    between atoms: C_2  and  C_3
REMARK    3  A    between atoms: C_3  and  N_4
REMARK    4  A    between atoms: N_4  and  C_5
REMARK    5  A    between atoms: N_4  and  C_8
REMARK    6  A    between atoms: C_5  and  C_6
REMARK    7  A    between atoms: C_6  and  C_7
REMARK    8  A    between atoms: C_15  and  C_16
REMARK    9  A    between atoms: C_16  and  C_18
REMARK                            x       y       z     vdW  Elec       q    Type
REMARK                         _______ _______ _______ _____ _____    ______ ____
ROOT
ATOM      1  C   UNL     1       2.539   6.327  18.504  0.00  0.00    +0.000 C 
ATOM      2  C   UNL     1       3.006   7.614  17.776  0.00  0.00    +0.000 C 
ATOM      3  C   UNL     1       1.961   8.733  17.914  0.00  0.00    +0.000 C 
ATOM      4  N   UNL     1       1.452   8.887  19.268  0.00  0.00    +0.000 N 
ATOM      5  C   UNL     1       1.654   7.948  20.252  0.00  0.00    +0.000 A 
ATOM      6  C   UNL     1       1.040   8.398  21.398  0.00  0.00    +0.000 A 
ATOM      7  C   UNL     1       0.399   9.612  21.075  0.00  0.00    +0.000 A 
ATOM      8  C   UNL     1       0.600   9.876  19.725  0.00  0.00    +0.000 A 
ATOM      9  C   UNL     1       2.435   6.696  20.013  0.00  0.00    +0.000 C 
ENDROOT
BRANCH   8  10
ATOM     10  C   UNL     1       0.064  10.974  18.928  0.00  0.00    +0.000 C 
ATOM     11  O   UNL     1       0.702  11.995  18.670  0.00  0.00    +0.000 OA
BRANCH  10  12
ATOM     12  C   UNL     1      -1.324  10.862  18.384  0.00  0.00    +0.000 A 
ATOM     13  C   UNL     1      -1.628   9.965  17.349  0.00  0.00    +0.000 A 
ATOM     14  C   UNL     1      -2.935   9.868  16.864  0.00  0.00    +0.000 A 
ATOM     15  C   UNL     1      -3.938  10.681  17.391  0.00  0.00    +0.000 A 
ATOM     16  C   UNL     1      -3.633  11.596  18.398  0.00  0.00    +0.000 A 
ATOM     17  C   UNL     1      -2.330  11.693  18.891  0.00  0.00    +0.000 A 
ENDBRANCH  10  12
ENDBRANCH   8  10
BRANCH   1  18
ATOM     18  N   UNL     1       3.410   5.128  18.274  0.00  0.00    +0.000 NA
BRANCH  18  19
ATOM     19  C   UNL     1       4.829   5.529  18.115  0.00  0.00    +0.000 C 
BRANCH  19  21
ATOM     20  C   UNL     1       7.191   5.721  19.075  0.00  0.00    +0.000 C 
ATOM     21  C   UNL     1       5.844   5.018  19.151  0.00  0.00    +0.000 C 
ENDBRANCH  19  21
ENDBRANCH  18  19
BRANCH  18  22
ATOM     22  C   UNL     1       3.241   4.068  19.293  0.00  0.00    +0.000 C 
BRANCH  22  23
ATOM     23  C   UNL     1       2.106   3.061  19.047  0.00  0.00    +0.000 C 
ATOM     24  C   UNL     1       0.973   3.239  20.049  0.00  0.00    +0.000 C 
ENDBRANCH  22  23
ENDBRANCH  18  22
ENDBRANCH   1  18
TORSDOF 7
ENDMDL
MODEL 5
REMARK VINA RESULT:      -7.3      0.562      1.141
REMARK  Name = 
REMARK  9 active torsions:
REMARK  status: ('A' for Active; 'I' for Inactive)
REMARK    1  A    between atoms: C_1  and  C_2
REMARK    2  A    between atoms: C_2  and  C_3
REMARK    3  A    between atoms: C_3  and  N_4
REMARK    4  A    between atoms: N_4  and  C_5
REMARK    5  A    between atoms: N_4  and  C_8
REMARK    6  A    between atoms: C_5  and  C_6
REMARK    7  A    between atoms: C_6  and  C_7
REMARK    8  A    between atoms: C_15  and  C_16
REMARK    9  A    between atoms: C_16  and  C_18
REMARK                            x       y       z     vdW  Elec       q    Type
REMARK                         _______ _______ _______ _____ _____    ______ ____
ROOT
ATOM      1  C   UNL     1       2.522   6.106  18.494  0.00  0.00    +0.000 C 
ATOM      2  C   UNL     1       3.051   7.369  17.765  0.00  0.00    +0.000 C 
ATOM      3  C   UNL     1       2.060   8.536  17.900  0.00  0.00    +0.000 C 
ATOM      4  N   UNL     1       1.556   8.715  19.253  0.00  0.00    +0.000 N 
ATOM      5  C   UNL     1       1.712   7.770  20.239  0.00  0.00    +0.000 A 
ATOM      6  C   UNL     1       1.118   8.249  21.383  0.00  0.00    +0.000 A 
ATOM      7  C   UNL     1       0.536   9.492  21.058  0.00  0.00    +0.000 A 
ATOM      8  C   UNL     1       0.751   9.744  19.708  0.00  0.00    +0.000 A 
ATOM      9  C   UNL     1       2.434   6.481  20.003  0.00  0.00    +0.000 C 
ENDROOT
BRANCH   8  10
ATOM     10  C   UNL     1       0.269  10.866  18.908  0.00  0.00    +0.000 C 
ATOM     11  O   UNL     1       0.961  11.844  18.632  0.00  0.00    +0.000 OA
BRANCH  10  12
ATOM     12  C   UNL     1      -1.132  10.830  18.386  0.00  0.00    +0.000 A 
ATOM     13  C   UNL     1      -2.129  11.656  18.925  0.00  0.00    +0.000 A 
ATOM     14  C   UNL     1      -3.429  11.615  18.414  0.00  0.00    +0.000 A 
ATOM     15  C   UNL     1      -3.746  10.733  17.382  0.00  0.00    +0.000 A 
ATOM     16  C   UNL     1      -2.765   9.888  16.864  0.00  0.00    +0.000 A 
ATOM     17  C   UNL     1      -1.462   9.929  17.367  0.00  0.00    +0.000 A 
ENDBRANCH  10  12
ENDBRANCH   8  10
BRANCH   1  18
ATOM     18  N   UNL     1       3.337   4.867  18.268  0.00  0.00    +0.000 NA
BRANCH  18  19
ATOM     19  C   UNL     1       2.621   3.920  17.379  0.00  0.00    +0.000 C 
BRANCH  19  21
ATOM     20  C   UNL     1       2.244   2.495  19.468  0.00  0.00    +0.000 C 
ATOM     21  C   UNL     1       2.244   2.542  17.948  0.00  0.00    +0.000 C 
ENDBRANCH  19  21
ENDBRANCH  18  19
BRANCH  18  22
ATOM     22  C   UNL     1       4.714   5.140  17.798  0.00  0.00    +0.000 C 
BRANCH  22  23
ATOM     23  C   UNL     1       5.109   4.520  16.448  0.00  0.00    +0.000 C 
ATOM     24  C   UNL     1       5.469   5.590  15.426  0.00  0.00    +0.000 C 
ENDBRANCH  22  23
ENDBRANCH  18  22
ENDBRANCH   1  18
TORSDOF 7
ENDMDL
MODEL 6
REMARK VINA RESULT:      -7.3      0.722      2.612
REMARK  Name = 
REMARK  9 active torsions:
REMARK  status: ('A' for Active; 'I' for Inactive)
REMARK    1  A    between atoms: C_1  and  C_2
REMARK    2  A    between atoms: C_2  and  C_3
REMARK    3  A    between atoms: C_3  and  N_4
REMARK    4  A    between atoms: N_4  and  C_5
REMARK    5  A    between atoms: N_4  and  C_8
REMARK    6  A    between atoms: C_5  and  C_6
REMARK    7  A    between atoms: C_6  and  C_7
REMARK    8  A    between atoms: C_15  and  C_16
REMARK    9  A    between atoms: C_16  and  C_18
REMARK                            x       y       z     vdW  Elec       q    Type
REMARK                         _______ _______ _______ _____ _____    ______ ____
ROOT
ATOM      1  C   UNL     1       2.439   6.282  18.514  0.00  0.00    +0.000 C 
ATOM      2  C   UNL     1       2.925   7.543  17.752  0.00  0.00    +0.000 C 
ATOM      3  C   UNL     1       1.916   8.694  17.897  0.00  0.00    +0.000 C 
ATOM      4  N   UNL     1       1.446   8.885  19.260  0.00  0.00    +0.000 N 
ATOM      5  C   UNL     1       1.645   7.957  20.255  0.00  0.00    +0.000 A 
ATOM      6  C   UNL     1       1.073   8.443  21.408  0.00  0.00    +0.000 A 
ATOM      7  C   UNL     1       0.460   9.670  21.080  0.00  0.00    +0.000 A 
ATOM      8  C   UNL     1       0.634   9.906  19.721  0.00  0.00    +0.000 A 
ATOM      9  C   UNL     1       2.385   6.679  20.019  0.00  0.00    +0.000 C 
ENDROOT
BRANCH   8  10
ATOM     10  C   UNL     1       0.110  11.006  18.918  0.00  0.00    +0.000 C 
ATOM     11  O   UNL     1       0.760  12.015  18.650  0.00  0.00    +0.000 OA
BRANCH  10  12
ATOM     12  C   UNL     1      -1.282  10.908  18.381  0.00  0.00    +0.000 A 
ATOM     13  C   UNL     1      -2.320  11.689  18.910  0.00  0.00    +0.000 A 
ATOM     14  C   UNL     1      -3.612  11.590  18.386  0.00  0.00    +0.000 A 
ATOM     15  C   UNL     1      -3.879  10.696  17.350  0.00  0.00    +0.000 A 
ATOM     16  C   UNL     1      -2.856   9.895  16.842  0.00  0.00    +0.000 A 
ATOM     17  C   UNL     1      -1.561   9.994  17.358  0.00  0.00    +0.000 A 
ENDBRANCH  10  12
ENDBRANCH   8  10
BRANCH   1  18
ATOM     18  N   UNL     1       3.270   5.055  18.284  0.00  0.00    +0.000 NA
BRANCH  18  19
ATOM     19  C   UNL     1       4.548   5.400  17.614  0.00  0.00    +0.000 C 
BRANCH  19  21
ATOM     20  C   UNL     1       5.573   5.440  15.272  0.00  0.00    +0.000 C 
ATOM     21  C   UNL     1       4.952   4.590  16.370  0.00  0.00    +0.000 C 
ENDBRANCH  19  21
ENDBRANCH  18  19
BRANCH  18  22
ATOM     22  C   UNL     1       3.482   4.244  19.504  0.00  0.00    +0.000 C 
BRANCH  22  23
ATOM     23  C   UNL     1       2.748   2.894  19.561  0.00  0.00    +0.000 C 
ATOM     24  C   UNL     1       1.264   3.077  19.854  0.00  0.00    +0.000 C 
ENDBRANCH  22  23
ENDBRANCH  18  22
ENDBRANCH   1  18
TORSDOF 7
ENDMDL
MODEL 7
REMARK VINA RESULT:      -7.2      2.739      7.893
REMARK  Name = 
REMARK  9 active torsions:
REMARK  status: ('A' for Active; 'I' for Inactive)
REMARK    1  A    between atoms: C_1  and  C_2
REMARK    2  A    between atoms: C_2  and  C_3
REMARK    3  A    between atoms: C_3  and  N_4
REMARK    4  A    between atoms: N_4  and  C_5
REMARK    5  A    between atoms: N_4  and  C_8
REMARK    6  A    between atoms: C_5  and  C_6
REMARK    7  A    between atoms: C_6  and  C_7
REMARK    8  A    between atoms: C_15  and  C_16
REMARK    9  A    between atoms: C_16  and  C_18
REMARK                            x       y       z     vdW  Elec       q    Type
REMARK                         _______ _______ _______ _____ _____    ______ ____
ROOT
ATOM      1  C   UNL     1       1.758   8.172  20.430  0.00  0.00    +0.000 C 
ATOM      2  C   UNL     1       1.904   7.993  18.896  0.00  0.00    +0.000 C 
ATOM      3  C   UNL     1       2.886   6.856  18.567  0.00  0.00    +0.000 C 
ATOM      4  N   UNL     1       2.665   5.654  19.355  0.00  0.00    +0.000 N 
ATOM      5  C   UNL     1       1.868   5.631  20.475  0.00  0.00    +0.000 A 
ATOM      6  C   UNL     1       1.883   4.351  20.980  0.00  0.00    +0.000 A 
ATOM      7  C   UNL     1       2.763   3.599  20.175  0.00  0.00    +0.000 A 
ATOM      8  C   UNL     1       3.304   4.436  19.205  0.00  0.00    +0.000 A 
ATOM      9  C   UNL     1       1.143   6.844  20.964  0.00  0.00    +0.000 C 
ENDROOT
BRANCH   8  10
ATOM     10  C   UNL     1       4.316   4.123  18.201  0.00  0.00    +0.000 C 
ATOM     11  O   UNL     1       4.200   3.204  17.391  0.00  0.00    +0.000 OA
BRANCH  10  12
ATOM     12  C   UNL     1       5.554   4.958  18.139  0.00  0.00    +0.000 A 
ATOM     13  C   UNL     1       6.338   5.180  19.281  0.00  0.00    +0.000 A 
ATOM     14  C   UNL     1       7.498   5.955  19.198  0.00  0.00    +0.000 A 
ATOM     15  C   UNL     1       7.867   6.532  17.984  0.00  0.00    +0.000 A 
ATOM     16  C   UNL     1       7.074   6.340  16.853  0.00  0.00    +0.000 A 
ATOM     17  C   UNL     1       5.916   5.561  16.929  0.00  0.00    +0.000 A 
ENDBRANCH  10  12
ENDBRANCH   8  10
BRANCH   1  18
ATOM     18  N   UNL     1       0.958   9.371  20.845  0.00  0.00    +0.000 NA
BRANCH  18  19
ATOM     19  C   UNL     1       0.605  10.203  19.669  0.00  0.00    +0.000 C 
BRANCH  19  21
ATOM     20  C   UNL     1      -1.333  10.207  18.002  0.00  0.00    +0.000 C 
ATOM     21  C   UNL     1      -0.881  10.509  19.423  0.00  0.00    +0.000 C 
ENDBRANCH  19  21
ENDBRANCH  18  19
BRANCH  18  22
ATOM     22  C   UNL     1      -0.225   9.039  21.669  0.00  0.00    +0.000 C 
BRANCH  22  23
ATOM     23  C   UNL     1      -0.285   9.681  23.065  0.00  0.00    +0.000 C 
ATOM     24  C   UNL     1      -1.201  10.898  23.081  0.00  0.00    +0.000 C 
ENDBRANCH  22  23
ENDBRANCH  18  22
ENDBRANCH   1  18
TORSDOF 7
ENDMDL
MODEL 8
REMARK VINA RESULT:      -7.1      0.978      2.301
REMARK  Name = 
REMARK  9 active torsions:
REMARK  status: ('A' for Active; 'I' for Inactive)
REMARK    1  A    between atoms: C_1  and  C_2
REMARK    2  A    between atoms: C_2  and  C_3
REMARK    3  A    between atoms: C_3  and  N_4
REMARK    4  A    between atoms: N_4  and  C_5
REMARK    5  A    between atoms: N_4  and  C_8
REMARK    6  A    between atoms: C_5  and  C_6
REMARK    7  A    between atoms: C_6  and  C_7
REMARK    8  A    between atoms: C_15  and  C_16
REMARK    9  A    between atoms: C_16  and  C_18
REMARK                            x       y       z     vdW  Elec       q    Type
REMARK                         _______ _______ _______ _____ _____    ______ ____
ROOT
ATOM      1  C   UNL     1       2.532   6.461  18.422  0.00  0.00    +0.000 C 
ATOM      2  C   UNL     1       2.979   7.771  17.721  0.00  0.00    +0.000 C 
ATOM      3  C   UNL     1       1.917   8.870  17.883  0.00  0.00    +0.000 C 
ATOM      4  N   UNL     1       1.405   8.987  19.240  0.00  0.00    +0.000 N 
ATOM      5  C   UNL     1       1.622   8.031  20.204  0.00  0.00    +0.000 A 
ATOM      6  C   UNL     1       1.001   8.446  21.359  0.00  0.00    +0.000 A 
ATOM      7  C   UNL     1       0.341   9.656  21.063  0.00  0.00    +0.000 A 
ATOM      8  C   UNL     1       0.538   9.953  19.718  0.00  0.00    +0.000 A 
ATOM      9  C   UNL     1       2.423   6.796  19.939  0.00  0.00    +0.000 C 
ENDROOT
BRANCH   8  10
ATOM     10  C   UNL     1      -0.015  11.059  18.944  0.00  0.00    +0.000 C 
ATOM     11  O   UNL     1       0.593  12.108  18.738  0.00  0.00    +0.000 OA
BRANCH  10  12
ATOM     12  C   UNL     1      -1.385  10.919  18.361  0.00  0.00    +0.000 A 
ATOM     13  C   UNL     1      -1.641  10.019  17.317  0.00  0.00    +0.000 A 
ATOM     14  C   UNL     1      -2.931   9.895  16.795  0.00  0.00    +0.000 A 
ATOM     15  C   UNL     1      -3.966  10.686  17.294  0.00  0.00    +0.000 A 
ATOM     16  C   UNL     1      -3.709  11.605  18.312  0.00  0.00    +0.000 A 
ATOM     17  C   UNL     1      -2.421  11.728  18.842  0.00  0.00    +0.000 A 
ENDBRANCH  10  12
ENDBRANCH   8  10
BRANCH   1  18
ATOM     18  N   UNL     1       3.423   5.282  18.167  0.00  0.00    +0.000 NA
BRANCH  18  19
ATOM     19  C   UNL     1       4.694   5.707  17.533  0.00  0.00    +0.000 C 
BRANCH  19  21
ATOM     20  C   UNL     1       5.550   5.517  15.131  0.00  0.00    +0.000 C 
ATOM     21  C   UNL     1       5.298   4.799  16.448  0.00  0.00    +0.000 C 
ENDBRANCH  19  21
ENDBRANCH  18  19
BRANCH  18  22
ATOM     22  C   UNL     1       3.650   4.441  19.364  0.00  0.00    +0.000 C 
BRANCH  22  23
ATOM     23  C   UNL     1       3.498   2.923  19.169  0.00  0.00    +0.000 C 
ATOM     24  C   UNL     1       4.432   2.146  20.088  0.00  0.00    +0.000 C 
ENDBRANCH  22  23
ENDBRANCH  18  22
ENDBRANCH   1  18
TORSDOF 7
ENDMDL
MODEL 9
REMARK VINA RESULT:      -7.1      0.867      1.013
REMARK  Name = 
REMARK  9 active torsions:
REMARK  status: ('A' for Active; 'I' for Inactive)
REMARK    1  A    between atoms: C_1  and  C_2
REMARK    2  A    between atoms: C_2  and  C_3
REMARK    3  A    between atoms: C_3  and  N_4
REMARK    4  A    between atoms: N_4  and  C_5
REMARK    5  A    between atoms: N_4  and  C_8
REMARK    6  A    between atoms: C_5  and  C_6
REMARK    7  A    between atoms: C_6  and  C_7
REMARK    8  A    between atoms: C_15  and  C_16
REMARK    9  A    between atoms: C_16  and  C_18
REMARK                            x       y       z     vdW  Elec       q    Type
REMARK                         _______ _______ _______ _____ _____    ______ ____
ROOT
ATOM      1  C   UNL     1       2.471   6.677  18.840  0.00  0.00    +0.000 C 
ATOM      2  C   UNL     1       2.929   7.965  18.107  0.00  0.00    +0.000 C 
ATOM      3  C   UNL     1       1.809   9.018  18.096  0.00  0.00    +0.000 C 
ATOM      4  N   UNL     1       1.158   9.187  19.386  0.00  0.00    +0.000 N 
ATOM      5  C   UNL     1       1.318   8.300  20.424  0.00  0.00    +0.000 A 
ATOM      6  C   UNL     1       0.567   8.749  21.485  0.00  0.00    +0.000 A 
ATOM      7  C   UNL     1      -0.112   9.907  21.050  0.00  0.00    +0.000 A 
ATOM      8  C   UNL     1       0.206  10.135  19.716  0.00  0.00    +0.000 A 
ATOM      9  C   UNL     1       2.195   7.093  20.316  0.00  0.00    +0.000 C 
ENDROOT
BRANCH   8  10
ATOM     10  C   UNL     1      -0.314  11.166  18.825  0.00  0.00    +0.000 C 
ATOM     11  O   UNL     1       0.292  12.207  18.573  0.00  0.00    +0.000 OA
BRANCH  10  12
ATOM     12  C   UNL     1      -1.643  10.955  18.173  0.00  0.00    +0.000 A 
ATOM     13  C   UNL     1      -1.800  10.033  17.128  0.00  0.00    +0.000 A 
ATOM     14  C   UNL     1      -3.054   9.842  16.541  0.00  0.00    +0.000 A 
ATOM     15  C   UNL     1      -4.149  10.588  16.975  0.00  0.00    +0.000 A 
ATOM     16  C   UNL     1      -3.990  11.529  17.993  0.00  0.00    +0.000 A 
ATOM     17  C   UNL     1      -2.740  11.719  18.588  0.00  0.00    +0.000 A 
ENDBRANCH  10  12
ENDBRANCH   8  10
BRANCH   1  18
ATOM     18  N   UNL     1       3.433   5.530  18.747  0.00  0.00    +0.000 NA
BRANCH  18  19
ATOM     19  C   UNL     1       3.172   4.535  19.815  0.00  0.00    +0.000 C 
BRANCH  19  21
ATOM     20  C   UNL     1       0.907   3.364  20.003  0.00  0.00    +0.000 C 
ATOM     21  C   UNL     1       2.326   3.301  19.460  0.00  0.00    +0.000 C 
ENDBRANCH  19  21
ENDBRANCH  18  19
BRANCH  18  22
ATOM     22  C   UNL     1       3.486   4.908  17.405  0.00  0.00    +0.000 C 
BRANCH  22  23
ATOM     23  C   UNL     1       4.753   5.181  16.578  0.00  0.00    +0.000 C 
ATOM     24  C   UNL     1       5.377   3.888  16.069  0.00  0.00    +0.000 C 
ENDBRANCH  22  23
ENDBRANCH  18  22
ENDBRANCH   1  18
TORSDOF 7
ENDMDL
