MODEL 1
REMARK VINA RESULT:      -6.6      0.000      0.000
REMARK  Name = 
REMARK  20 active torsions:
REMARK  status: ('A' for Active; 'I' for Inactive)
REMARK    1  A    between atoms: S_2  and  O_4
REMARK    2  A    between atoms: S_2  and  O_5
REMARK    3  A    between atoms: O_5  and  C_6
REMARK    4  A    between atoms: C_6  and  C_7
REMARK    5  A    between atoms: C_6  and  C_21
REMARK    6  A    between atoms: C_7  and  O_8
REMARK    7  A    between atoms: C_7  and  C_9
REMARK    8  A    between atoms: C_9  and  N_10
REMARK    9  A    between atoms: C_12  and  O_13
REMARK   10  A    between atoms: C_14  and  O_15
REMARK   11  A    between atoms: C_16  and  O_17
REMARK   12  A    between atoms: C_18  and  C_19
REMARK   13  A    between atoms: C_19  and  O_20
REMARK   14  A    between atoms: C_21  and  O_22
REMARK   15  A    between atoms: C_21  and  C_23
REMARK   16  A    between atoms: C_23  and  O_24
REMARK   17  A    between atoms: C_23  and  C_25
REMARK   18  A    between atoms: C_25  and  O_26
REMARK   19  A    between atoms: C_25  and  C_27
REMARK   20  A    between atoms: C_27  and  O_28
REMARK                            x       y       z     vdW  Elec       q    Type
REMARK                         _______ _______ _______ _____ _____    ______ ____
ROOT
ATOM      1  C   UNL     1       4.879   4.739  18.515  0.00  0.00    +0.000 C 
ENDROOT
BRANCH   1   2
ATOM      2  C   UNL     1       4.012   3.456  18.656  0.00  0.00    +0.000 C 
BRANCH   2   3
ATOM      3  O   UNL     1       4.297   2.540  17.595  0.00  0.00    +0.000 OA
ATOM      4  H   UNL     1       3.583   1.868  17.573  0.00  0.00    +0.000 HD
ENDBRANCH   2   3
BRANCH   2   5
ATOM      5  C   UNL     1       4.203   2.726  20.017  0.00  0.00    +0.000 C 
BRANCH   5   6
ATOM      6  O   UNL     1       5.164   1.670  19.887  0.00  0.00    +0.000 OA
ATOM      7  H   UNL     1       5.995   2.118  19.631  0.00  0.00    +0.000 HD
ENDBRANCH   5   6
BRANCH   5   8
ATOM      8  C   UNL     1       2.901   2.110  20.589  0.00  0.00    +0.000 C 
BRANCH   8   9
ATOM      9  O   UNL     1       2.659   2.551  21.930  0.00  0.00    +0.000 OA
ATOM     10  H   UNL     1       1.779   2.228  22.191  0.00  0.00    +0.000 HD
ENDBRANCH   8   9
BRANCH   8  11
ATOM     11  C   UNL     1       1.685   2.486  19.716  0.00  0.00    +0.000 C 
BRANCH  11  12
ATOM     12  O   UNL     1       1.326   1.429  18.824  0.00  0.00    +0.000 OA
ATOM     13  H   UNL     1       2.139   1.095  18.409  0.00  0.00    +0.000 HD
ENDBRANCH  11  12
ENDBRANCH   8  11
ENDBRANCH   5   8
ENDBRANCH   2   5
ENDBRANCH   1   2
BRANCH   1  14
ATOM     14  C   UNL     1       4.167   5.905  17.776  0.00  0.00    +0.000 C 
BRANCH  14  15
ATOM     15  O   UNL     1       4.659   5.978  16.426  0.00  0.00    +0.000 OA
ATOM     16  H   UNL     1       4.542   5.082  16.051  0.00  0.00    +0.000 HD
ENDBRANCH  14  15
BRANCH  14  17
ATOM     17  C   UNL     1       2.612   5.828  17.734  0.00  0.00    +0.000 C 
BRANCH  17  18
ATOM     18  N   UNL     1       1.968   7.022  18.348  0.00  0.00    +0.000 NA
ATOM     19  C   UNL     1       2.497   8.279  17.772  0.00  0.00    +0.000 C 
ATOM     20  C   UNL     1       1.616   9.465  18.169  0.00  0.00    +0.000 C 
ATOM     21  C   UNL     1       1.670   9.633  19.689  0.00  0.00    +0.000 C 
ATOM     22  C   UNL     1       1.275   8.317  20.387  0.00  0.00    +0.000 C 
ATOM     23  C   UNL     1       2.083   7.089  19.841  0.00  0.00    +0.000 C 
BRANCH  22  24
ATOM     24  O   UNL     1       1.444   8.447  21.808  0.00  0.00    +0.000 OA
ATOM     25  H   UNL     1       1.982   9.242  21.982  0.00  0.00    +0.000 HD
ENDBRANCH  22  24
BRANCH  21  26
ATOM     26  O   UNL     1       0.829  10.711  20.116  0.00  0.00    +0.000 OA
ATOM     27  H   UNL     1       0.301  10.403  20.875  0.00  0.00    +0.000 HD
ENDBRANCH  21  26
BRANCH  20  28
ATOM     28  O   UNL     1       2.049  10.638  17.474  0.00  0.00    +0.000 OA
ATOM     29  H   UNL     1       2.491  10.372  16.650  0.00  0.00    +0.000 HD
ENDBRANCH  20  28
BRANCH  23  30
ATOM     30  C   UNL     1       1.611   5.813  20.596  0.00  0.00    +0.000 C 
BRANCH  30  31
ATOM     31  O   UNL     1       2.572   5.364  21.553  0.00  0.00    +0.000 OA
ATOM     32  H   UNL     1       2.349   5.797  22.405  0.00  0.00    +0.000 HD
ENDBRANCH  30  31
ENDBRANCH  23  30
ENDBRANCH  17  18
ENDBRANCH  14  17
ENDBRANCH   1  14
BRANCH   1  33
ATOM     33  O   UNL     1       6.053   4.395  17.762  0.00  0.00    +0.000 OA
BRANCH  33  35
ATOM     34  O   UNL     1       7.530   5.349  19.539  0.00  0.00    +0.000 OA
ATOM     35  S   UNL     1       7.471   5.111  18.115  0.00  0.00    +0.000 S 
ATOM     36  O   UNL     1       7.693   6.195  17.177  0.00  0.00    +0.000 OA
BRANCH  35  37
ATOM     37  O   UNL     1       8.560   3.979  17.785  0.00  0.00    +0.000 OA
ATOM     38  H   UNL     1       9.378   4.191  18.275  0.00  0.00    +0.000 HD
ENDBRANCH  35  37
ENDBRANCH  33  35
ENDBRANCH   1  33
TORSDOF 20
ENDMDL
MODEL 2
REMARK VINA RESULT:      -6.4      2.739      7.720
REMARK  Name = 
REMARK  20 active torsions:
REMARK  status: ('A' for Active; 'I' for Inactive)
REMARK    1  A    between atoms: S_2  and  O_4
REMARK    2  A    between atoms: S_2  and  O_5
REMARK    3  A    between atoms: O_5  and  C_6
REMARK    4  A    between atoms: C_6  and  C_7
REMARK    5  A    between atoms: C_6  and  C_21
REMARK    6  A    between atoms: C_7  and  O_8
REMARK    7  A    between atoms: C_7  and  C_9
REMARK    8  A    between atoms: C_9  and  N_10
REMARK    9  A    between atoms: C_12  and  O_13
REMARK   10  A    between atoms: C_14  and  O_15
REMARK   11  A    between atoms: C_16  and  O_17
REMARK   12  A    between atoms: C_18  and  C_19
REMARK   13  A    between atoms: C_19  and  O_20
REMARK   14  A    between atoms: C_21  and  O_22
REMARK   15  A    between atoms: C_21  and  C_23
REMARK   16  A    between atoms: C_23  and  O_24
REMARK   17  A    between atoms: C_23  and  C_25
REMARK   18  A    between atoms: C_25  and  O_26
REMARK   19  A    between atoms: C_25  and  C_27
REMARK   20  A    between atoms: C_27  and  O_28
REMARK                            x       y       z     vdW  Elec       q    Type
REMARK                         _______ _______ _______ _____ _____    ______ ____
ROOT
ATOM      1  C   UNL     1       1.544   9.272  19.649  0.00  0.00    +0.000 C 
ENDROOT
BRANCH   1   2
ATOM      2  C   UNL     1       1.022  10.309  18.616  0.00  0.00    +0.000 C 
BRANCH   2   3
ATOM      3  O   UNL     1       1.684  10.142  17.359  0.00  0.00    +0.000 OA
ATOM      4  H   UNL     1       1.241   9.413  16.875  0.00  0.00    +0.000 HD
ENDBRANCH   2   3
BRANCH   2   5
ATOM      5  C   UNL     1      -0.516  10.236  18.388  0.00  0.00    +0.000 C 
BRANCH   5   6
ATOM      6  O   UNL     1      -0.807   9.576  17.148  0.00  0.00    +0.000 OA
ATOM      7  H   UNL     1      -0.873   8.628  17.379  0.00  0.00    +0.000 HD
ENDBRANCH   5   6
BRANCH   5   8
ATOM      8  C   UNL     1      -1.215  11.619  18.361  0.00  0.00    +0.000 C 
BRANCH   8   9
ATOM      9  O   UNL     1      -0.369  12.620  17.783  0.00  0.00    +0.000 OA
ATOM     10  H   UNL     1      -0.851  13.016  17.036  0.00  0.00    +0.000 HD
ENDBRANCH   8   9
BRANCH   8  11
ATOM     11  C   UNL     1      -2.530  11.555  17.555  0.00  0.00    +0.000 C 
BRANCH  11  12
ATOM     12  O   UNL     1      -2.299  11.684  16.152  0.00  0.00    +0.000 OA
ATOM     13  H   UNL     1      -2.111  12.619  15.962  0.00  0.00    +0.000 HD
ENDBRANCH  11  12
ENDBRANCH   8  11
ENDBRANCH   5   8
ENDBRANCH   2   5
ENDBRANCH   1   2
BRANCH   1  14
ATOM     14  C   UNL     1       1.952   7.909  19.026  0.00  0.00    +0.000 C 
BRANCH  14  15
ATOM     15  O   UNL     1       3.019   8.121  18.085  0.00  0.00    +0.000 OA
ATOM     16  H   UNL     1       2.622   7.996  17.199  0.00  0.00    +0.000 HD
ENDBRANCH  14  15
BRANCH  14  17
ATOM     17  C   UNL     1       2.394   6.810  20.037  0.00  0.00    +0.000 C 
BRANCH  17  18
ATOM     18  N   UNL     1       2.479   5.462  19.410  0.00  0.00    +0.000 NA
ATOM     19  C   UNL     1       1.391   4.575  19.884  0.00  0.00    +0.000 C 
ATOM     20  C   UNL     1       1.298   3.324  19.008  0.00  0.00    +0.000 C 
ATOM     21  C   UNL     1       2.596   2.526  19.148  0.00  0.00    +0.000 C 
ATOM     22  C   UNL     1       3.810   3.415  18.817  0.00  0.00    +0.000 C 
ATOM     23  C   UNL     1       3.791   4.766  19.611  0.00  0.00    +0.000 C 
BRANCH  22  24
ATOM     24  O   UNL     1       5.028   2.693  19.066  0.00  0.00    +0.000 OA
ATOM     25  H   UNL     1       5.598   2.771  18.278  0.00  0.00    +0.000 HD
ENDBRANCH  22  24
BRANCH  21  26
ATOM     26  O   UNL     1       2.573   1.360  18.316  0.00  0.00    +0.000 OA
ATOM     27  H   UNL     1       2.028   1.555  17.533  0.00  0.00    +0.000 HD
ENDBRANCH  21  26
BRANCH  20  28
ATOM     28  O   UNL     1       0.145   2.564  19.380  0.00  0.00    +0.000 OA
ATOM     29  H   UNL     1      -0.419   2.441  18.598  0.00  0.00    +0.000 HD
ENDBRANCH  20  28
BRANCH  23  30
ATOM     30  C   UNL     1       5.045   5.595  19.207  0.00  0.00    +0.000 C 
BRANCH  30  31
ATOM     31  O   UNL     1       6.248   5.060  19.759  0.00  0.00    +0.000 OA
ATOM     32  H   UNL     1       6.994   5.524  19.321  0.00  0.00    +0.000 HD
ENDBRANCH  30  31
ENDBRANCH  23  30
ENDBRANCH  17  18
ENDBRANCH  14  17
ENDBRANCH   1  14
BRANCH   1  33
ATOM     33  O   UNL     1       0.489   9.024  20.593  0.00  0.00    +0.000 OA
BRANCH  33  35
ATOM     34  O   UNL     1      -0.467   9.124  22.901  0.00  0.00    +0.000 OA
ATOM     35  S   UNL     1       0.550   9.717  22.064  0.00  0.00    +0.000 S 
ATOM     36  O   UNL     1       0.620  11.157  21.899  0.00  0.00    +0.000 OA
BRANCH  35  37
ATOM     37  O   UNL     1       1.968   9.245  22.647  0.00  0.00    +0.000 OA
ATOM     38  H   UNL     1       1.864   9.079  23.605  0.00  0.00    +0.000 HD
ENDBRANCH  35  37
ENDBRANCH  33  35
ENDBRANCH   1  33
TORSDOF 20
ENDMDL
MODEL 3
REMARK VINA RESULT:      -6.2      2.894      7.953
REMARK  Name = 
REMARK  20 active torsions:
REMARK  status: ('A' for Active; 'I' for Inactive)
REMARK    1  A    between atoms: S_2  and  O_4
REMARK    2  A    between atoms: S_2  and  O_5
REMARK    3  A    between atoms: O_5  and  C_6
REMARK    4  A    between atoms: C_6  and  C_7
REMARK    5  A    between atoms: C_6  and  C_21
REMARK    6  A    between atoms: C_7  and  O_8
REMARK    7  A    between atoms: C_7  and  C_9
REMARK    8  A    between atoms: C_9  and  N_10
REMARK    9  A    between atoms: C_12  and  O_13
REMARK   10  A    between atoms: C_14  and  O_15
REMARK   11  A    between atoms: C_16  and  O_17
REMARK   12  A    between atoms: C_18  and  C_19
REMARK   13  A    between atoms: C_19  and  O_20
REMARK   14  A    between atoms: C_21  and  O_22
REMARK   15  A    between atoms: C_21  and  C_23
REMARK   16  A    between atoms: C_23  and  O_24
REMARK   17  A    between atoms: C_23  and  C_25
REMARK   18  A    between atoms: C_25  and  O_26
REMARK   19  A    between atoms: C_25  and  C_27
REMARK   20  A    between atoms: C_27  and  O_28
REMARK                            x       y       z     vdW  Elec       q    Type
REMARK                         _______ _______ _______ _____ _____    ______ ____
ROOT
ATOM      1  C   UNL     1       1.127   9.623  19.822  0.00  0.00    +0.000 C 
ENDROOT
BRANCH   1   2
ATOM      2  C   UNL     1       0.539  10.749  18.926  0.00  0.00    +0.000 C 
BRANCH   2   3
ATOM      3  O   UNL     1       1.429  11.048  17.847  0.00  0.00    +0.000 OA
ATOM      4  H   UNL     1       2.191  11.547  18.209  0.00  0.00    +0.000 HD
ENDBRANCH   2   3
BRANCH   2   5
ATOM      5  C   UNL     1      -0.863  10.408  18.343  0.00  0.00    +0.000 C 
BRANCH   5   6
ATOM      6  O   UNL     1      -0.730   9.730  17.086  0.00  0.00    +0.000 OA
ATOM      7  H   UNL     1      -0.057   9.038  17.245  0.00  0.00    +0.000 HD
ENDBRANCH   5   6
BRANCH   5   8
ATOM      8  C   UNL     1      -1.769  11.644  18.117  0.00  0.00    +0.000 C 
BRANCH   8   9
ATOM      9  O   UNL     1      -1.058  12.700  17.460  0.00  0.00    +0.000 OA
ATOM     10  H   UNL     1      -1.544  13.527  17.624  0.00  0.00    +0.000 HD
ENDBRANCH   8   9
BRANCH   8  11
ATOM     11  C   UNL     1      -3.004  11.274  17.269  0.00  0.00    +0.000 C 
BRANCH  11  12
ATOM     12  O   UNL     1      -2.780  11.506  15.877  0.00  0.00    +0.000 OA
ATOM     13  H   UNL     1      -3.473  11.041  15.379  0.00  0.00    +0.000 HD
ENDBRANCH  11  12
ENDBRANCH   8  11
ENDBRANCH   5   8
ENDBRANCH   2   5
ENDBRANCH   1   2
BRANCH   1  14
ATOM     14  C   UNL     1       1.480   8.321  19.051  0.00  0.00    +0.000 C 
BRANCH  14  15
ATOM     15  O   UNL     1       2.104   8.667  17.802  0.00  0.00    +0.000 OA
ATOM     16  H   UNL     1       2.838   9.273  18.029  0.00  0.00    +0.000 HD
ENDBRANCH  14  15
BRANCH  14  17
ATOM     17  C   UNL     1       2.401   7.319  19.806  0.00  0.00    +0.000 C 
BRANCH  17  18
ATOM     18  N   UNL     1       2.314   5.939  19.252  0.00  0.00    +0.000 NA
ATOM     19  C   UNL     1       1.566   5.038  20.159  0.00  0.00    +0.000 C 
ATOM     20  C   UNL     1       1.210   3.732  19.446  0.00  0.00    +0.000 C 
ATOM     21  C   UNL     1       2.503   2.999  19.082  0.00  0.00    +0.000 C 
ATOM     22  C   UNL     1       3.423   3.917  18.254  0.00  0.00    +0.000 C 
ATOM     23  C   UNL     1       3.638   5.313  18.934  0.00  0.00    +0.000 C 
BRANCH  22  24
ATOM     24  O   UNL     1       4.682   3.265  18.019  0.00  0.00    +0.000 OA
ATOM     25  H   UNL     1       4.781   2.544  18.670  0.00  0.00    +0.000 HD
ENDBRANCH  22  24
BRANCH  21  26
ATOM     26  O   UNL     1       2.224   1.784  18.378  0.00  0.00    +0.000 OA
ATOM     27  H   UNL     1       1.780   1.171  18.991  0.00  0.00    +0.000 HD
ENDBRANCH  21  26
BRANCH  20  28
ATOM     28  O   UNL     1       0.354   2.948  20.282  0.00  0.00    +0.000 OA
ATOM     29  H   UNL     1       0.001   3.512  20.991  0.00  0.00    +0.000 HD
ENDBRANCH  20  28
BRANCH  23  30
ATOM     30  C   UNL     1       4.569   6.167  18.025  0.00  0.00    +0.000 C 
BRANCH  30  31
ATOM     31  O   UNL     1       4.473   5.794  16.650  0.00  0.00    +0.000 OA
ATOM     32  H   UNL     1       5.390   5.655  16.328  0.00  0.00    +0.000 HD
ENDBRANCH  30  31
ENDBRANCH  23  30
ENDBRANCH  17  18
ENDBRANCH  14  17
ENDBRANCH   1  14
BRANCH   1  33
ATOM     33  O   UNL     1       0.141   9.291  20.814  0.00  0.00    +0.000 OA
BRANCH  33  35
ATOM     34  O   UNL     1      -0.059  11.245  22.360  0.00  0.00    +0.000 OA
ATOM     35  S   UNL     1       0.313   9.849  22.332  0.00  0.00    +0.000 S 
ATOM     36  O   UNL     1       1.599   9.419  22.846  0.00  0.00    +0.000 OA
BRANCH  35  37
ATOM     37  O   UNL     1      -0.809   9.051  23.158  0.00  0.00    +0.000 OA
ATOM     38  H   UNL     1      -1.637   9.568  23.125  0.00  0.00    +0.000 HD
ENDBRANCH  35  37
ENDBRANCH  33  35
ENDBRANCH   1  33
TORSDOF 20
ENDMDL
MODEL 4
REMARK VINA RESULT:      -6.2      2.022      4.820
REMARK  Name = 
REMARK  20 active torsions:
REMARK  status: ('A' for Active; 'I' for Inactive)
REMARK    1  A    between atoms: S_2  and  O_4
REMARK    2  A    between atoms: S_2  and  O_5
REMARK    3  A    between atoms: O_5  and  C_6
REMARK    4  A    between atoms: C_6  and  C_7
REMARK    5  A    between atoms: C_6  and  C_21
REMARK    6  A    between atoms: C_7  and  O_8
REMARK    7  A    between atoms: C_7  and  C_9
REMARK    8  A    between atoms: C_9  and  N_10
REMARK    9  A    between atoms: C_12  and  O_13
REMARK   10  A    between atoms: C_14  and  O_15
REMARK   11  A    between atoms: C_16  and  O_17
REMARK   12  A    between atoms: C_18  and  C_19
REMARK   13  A    between atoms: C_19  and  O_20
REMARK   14  A    between atoms: C_21  and  O_22
REMARK   15  A    between atoms: C_21  and  C_23
REMARK   16  A    between atoms: C_23  and  O_24
REMARK   17  A    between atoms: C_23  and  C_25
REMARK   18  A    between atoms: C_25  and  O_26
REMARK   19  A    between atoms: C_25  and  C_27
REMARK   20  A    between atoms: C_27  and  O_28
REMARK                            x       y       z     vdW  Elec       q    Type
REMARK                         _______ _______ _______ _____ _____    ______ ____
ROOT
ATOM      1  C   UNL     1       3.569   4.841  19.302  0.00  0.00    +0.000 C 
ENDROOT
BRANCH   1   2
ATOM      2  C   UNL     1       5.073   4.456  19.240  0.00  0.00    +0.000 C 
BRANCH   2   3
ATOM      3  O   UNL     1       5.266   3.111  19.687  0.00  0.00    +0.000 OA
ATOM      4  H   UNL     1       4.609   2.927  20.391  0.00  0.00    +0.000 HD
ENDBRANCH   2   3
BRANCH   2   5
ATOM      5  C   UNL     1       5.695   4.610  17.822  0.00  0.00    +0.000 C 
BRANCH   5   6
ATOM      6  O   UNL     1       5.319   3.504  16.989  0.00  0.00    +0.000 OA
ATOM      7  H   UNL     1       5.482   2.711  17.538  0.00  0.00    +0.000 HD
ENDBRANCH   5   6
BRANCH   5   8
ATOM      8  C   UNL     1       7.242   4.697  17.818  0.00  0.00    +0.000 C 
BRANCH   8   9
ATOM      9  O   UNL     1       7.754   4.853  16.489  0.00  0.00    +0.000 OA
ATOM     10  H   UNL     1       7.645   5.788  16.241  0.00  0.00    +0.000 HD
ENDBRANCH   8   9
BRANCH   8  11
ATOM     11  C   UNL     1       7.728   5.882  18.679  0.00  0.00    +0.000 C 
BRANCH  11  12
ATOM     12  O   UNL     1       8.310   5.442  19.906  0.00  0.00    +0.000 OA
ATOM     13  H   UNL     1       8.327   4.470  19.900  0.00  0.00    +0.000 HD
ENDBRANCH  11  12
ENDBRANCH   8  11
ENDBRANCH   5   8
ENDBRANCH   2   5
ENDBRANCH   1   2
BRANCH   1  14
ATOM     14  C   UNL     1       3.307   6.372  19.294  0.00  0.00    +0.000 C 
BRANCH  14  15
ATOM     15  O   UNL     1       3.748   6.919  18.039  0.00  0.00    +0.000 OA
ATOM     16  H   UNL     1       3.481   6.271  17.356  0.00  0.00    +0.000 HD
ENDBRANCH  14  15
BRANCH  14  17
ATOM     17  C   UNL     1       1.830   6.805  19.532  0.00  0.00    +0.000 C 
BRANCH  17  18
ATOM     18  N   UNL     1       1.723   8.197  20.050  0.00  0.00    +0.000 NA
ATOM     19  C   UNL     1       1.132   8.225  21.408  0.00  0.00    +0.000 C 
ATOM     20  C   UNL     1       1.321   9.602  22.048  0.00  0.00    +0.000 C 
ATOM     21  C   UNL     1       0.555  10.639  21.224  0.00  0.00    +0.000 C 
ATOM     22  C   UNL     1       0.999  10.584  19.750  0.00  0.00    +0.000 C 
ATOM     23  C   UNL     1       0.950   9.130  19.167  0.00  0.00    +0.000 C 
BRANCH  22  24
ATOM     24  O   UNL     1       0.192  11.477  18.963  0.00  0.00    +0.000 OA
ATOM     25  H   UNL     1      -0.374  11.993  19.567  0.00  0.00    +0.000 HD
ENDBRANCH  22  24
BRANCH  21  26
ATOM     26  O   UNL     1       0.731  11.954  21.764  0.00  0.00    +0.000 OA
ATOM     27  H   UNL     1       1.663  12.051  22.032  0.00  0.00    +0.000 HD
ENDBRANCH  21  26
BRANCH  20  28
ATOM     28  O   UNL     1       0.889   9.559  23.411  0.00  0.00    +0.000 OA
ATOM     29  H   UNL     1       0.441   8.712  23.575  0.00  0.00    +0.000 HD
ENDBRANCH  20  28
BRANCH  23  30
ATOM     30  C   UNL     1       1.420   9.175  17.685  0.00  0.00    +0.000 C 
BRANCH  30  31
ATOM     31  O   UNL     1       2.202  10.335  17.401  0.00  0.00    +0.000 OA
ATOM     32  H   UNL     1       3.142  10.052  17.398  0.00  0.00    +0.000 HD
ENDBRANCH  30  31
ENDBRANCH  23  30
ENDBRANCH  17  18
ENDBRANCH  14  17
ENDBRANCH   1  14
BRANCH   1  33
ATOM     33  O   UNL     1       3.030   4.312  20.525  0.00  0.00    +0.000 OA
BRANCH  33  35
ATOM     34  O   UNL     1       2.430   2.077  19.578  0.00  0.00    +0.000 OA
ATOM     35  S   UNL     1       1.939   3.107  20.465  0.00  0.00    +0.000 S 
ATOM     36  O   UNL     1       0.620   3.680  20.270  0.00  0.00    +0.000 OA
BRANCH  35  37
ATOM     37  O   UNL     1       1.967   2.496  21.949  0.00  0.00    +0.000 OA
ATOM     38  H   UNL     1       2.881   2.560  22.288  0.00  0.00    +0.000 HD
ENDBRANCH  35  37
ENDBRANCH  33  35
ENDBRANCH   1  33
TORSDOF 20
ENDMDL
MODEL 5
REMARK VINA RESULT:      -6.2      2.643      7.790
REMARK  Name = 
REMARK  20 active torsions:
REMARK  status: ('A' for Active; 'I' for Inactive)
REMARK    1  A    between atoms: S_2  and  O_4
REMARK    2  A    between atoms: S_2  and  O_5
REMARK    3  A    between atoms: O_5  and  C_6
REMARK    4  A    between atoms: C_6  and  C_7
REMARK    5  A    between atoms: C_6  and  C_21
REMARK    6  A    between atoms: C_7  and  O_8
REMARK    7  A    between atoms: C_7  and  C_9
REMARK    8  A    between atoms: C_9  and  N_10
REMARK    9  A    between atoms: C_12  and  O_13
REMARK   10  A    between atoms: C_14  and  O_15
REMARK   11  A    between atoms: C_16  and  O_17
REMARK   12  A    between atoms: C_18  and  C_19
REMARK   13  A    between atoms: C_19  and  O_20
REMARK   14  A    between atoms: C_21  and  O_22
REMARK   15  A    between atoms: C_21  and  C_23
REMARK   16  A    between atoms: C_23  and  O_24
REMARK   17  A    between atoms: C_23  and  C_25
REMARK   18  A    between atoms: C_25  and  O_26
REMARK   19  A    between atoms: C_25  and  C_27
REMARK   20  A    between atoms: C_27  and  O_28
REMARK                            x       y       z     vdW  Elec       q    Type
REMARK                         _______ _______ _______ _____ _____    ______ ____
ROOT
ATOM      1  C   UNL     1       1.540   9.244  19.643  0.00  0.00    +0.000 C 
ENDROOT
BRANCH   1   2
ATOM      2  C   UNL     1       1.007  10.266  18.600  0.00  0.00    +0.000 C 
BRANCH   2   3
ATOM      3  O   UNL     1       1.547   9.988  17.305  0.00  0.00    +0.000 OA
ATOM      4  H   UNL     1       1.987   9.113  17.339  0.00  0.00    +0.000 HD
ENDBRANCH   2   3
BRANCH   2   5
ATOM      5  C   UNL     1      -0.546  10.297  18.502  0.00  0.00    +0.000 C 
BRANCH   5   6
ATOM      6  O   UNL     1      -0.972   9.907  17.189  0.00  0.00    +0.000 OA
ATOM      7  H   UNL     1      -1.624  10.587  16.926  0.00  0.00    +0.000 HD
ENDBRANCH   5   6
BRANCH   5   8
ATOM      8  C   UNL     1      -1.168  11.684  18.805  0.00  0.00    +0.000 C 
BRANCH   8   9
ATOM      9  O   UNL     1      -1.704  11.737  20.133  0.00  0.00    +0.000 OA
ATOM     10  H   UNL     1      -1.034  12.150  20.704  0.00  0.00    +0.000 HD
ENDBRANCH   8   9
BRANCH   8  11
ATOM     11  C   UNL     1      -0.118  12.804  18.650  0.00  0.00    +0.000 C 
BRANCH  11  12
ATOM     12  O   UNL     1      -0.728  14.082  18.467  0.00  0.00    +0.000 OA
ATOM     13  H   UNL     1      -0.029  14.757  18.496  0.00  0.00    +0.000 HD
ENDBRANCH  11  12
ENDBRANCH   8  11
ENDBRANCH   5   8
ENDBRANCH   2   5
ENDBRANCH   1   2
BRANCH   1  14
ATOM     14  C   UNL     1       1.959   7.878  19.033  0.00  0.00    +0.000 C 
BRANCH  14  15
ATOM     15  O   UNL     1       3.029   8.089  18.095  0.00  0.00    +0.000 OA
ATOM     16  H   UNL     1       3.638   8.725  18.523  0.00  0.00    +0.000 HD
ENDBRANCH  14  15
BRANCH  14  17
ATOM     17  C   UNL     1       2.402   6.791  20.055  0.00  0.00    +0.000 C 
BRANCH  17  18
ATOM     18  N   UNL     1       2.478   5.434  19.444  0.00  0.00    +0.000 NA
ATOM     19  C   UNL     1       1.396   4.555  19.943  0.00  0.00    +0.000 C 
ATOM     20  C   UNL     1       1.290   3.293  19.085  0.00  0.00    +0.000 C 
ATOM     21  C   UNL     1       2.589   2.495  19.218  0.00  0.00    +0.000 C 
ATOM     22  C   UNL     1       3.799   3.378  18.860  0.00  0.00    +0.000 C 
ATOM     23  C   UNL     1       3.792   4.740  19.637  0.00  0.00    +0.000 C 
BRANCH  22  24
ATOM     24  O   UNL     1       5.019   2.658  19.103  0.00  0.00    +0.000 OA
ATOM     25  H   UNL     1       5.758   3.296  19.101  0.00  0.00    +0.000 HD
ENDBRANCH  22  24
BRANCH  21  26
ATOM     26  O   UNL     1       2.554   1.318  18.402  0.00  0.00    +0.000 OA
ATOM     27  H   UNL     1       2.460   0.544  18.987  0.00  0.00    +0.000 HD
ENDBRANCH  21  26
BRANCH  20  28
ATOM     28  O   UNL     1       0.141   2.539  19.482  0.00  0.00    +0.000 OA
ATOM     29  H   UNL     1      -0.615   2.800  18.931  0.00  0.00    +0.000 HD
ENDBRANCH  20  28
BRANCH  23  30
ATOM     30  C   UNL     1       5.041   5.561  19.205  0.00  0.00    +0.000 C 
BRANCH  30  31
ATOM     31  O   UNL     1       6.246   5.058  19.783  0.00  0.00    +0.000 OA
ATOM     32  H   UNL     1       6.706   5.822  20.193  0.00  0.00    +0.000 HD
ENDBRANCH  30  31
ENDBRANCH  23  30
ENDBRANCH  17  18
ENDBRANCH  14  17
ENDBRANCH   1  14
BRANCH   1  33
ATOM     33  O   UNL     1       0.489   8.996  20.591  0.00  0.00    +0.000 OA
BRANCH  33  35
ATOM     34  O   UNL     1      -0.465   9.105  22.900  0.00  0.00    +0.000 OA
ATOM     35  S   UNL     1       0.553   9.694  22.060  0.00  0.00    +0.000 S 
ATOM     36  O   UNL     1       0.626  11.133  21.890  0.00  0.00    +0.000 OA
BRANCH  35  37
ATOM     37  O   UNL     1       1.971   9.221  22.643  0.00  0.00    +0.000 OA
ATOM     38  H   UNL     1       2.388   9.984  23.088  0.00  0.00    +0.000 HD
ENDBRANCH  35  37
ENDBRANCH  33  35
ENDBRANCH   1  33
TORSDOF 20
ENDMDL
MODEL 6
REMARK VINA RESULT:      -6.2      2.060      4.738
REMARK  Name = 
REMARK  20 active torsions:
REMARK  status: ('A' for Active; 'I' for Inactive)
REMARK    1  A    between atoms: S_2  and  O_4
REMARK    2  A    between atoms: S_2  and  O_5
REMARK    3  A    between atoms: O_5  and  C_6
REMARK    4  A    between atoms: C_6  and  C_7
REMARK    5  A    between atoms: C_6  and  C_21
REMARK    6  A    between atoms: C_7  and  O_8
REMARK    7  A    between atoms: C_7  and  C_9
REMARK    8  A    between atoms: C_9  and  N_10
REMARK    9  A    between atoms: C_12  and  O_13
REMARK   10  A    between atoms: C_14  and  O_15
REMARK   11  A    between atoms: C_16  and  O_17
REMARK   12  A    between atoms: C_18  and  C_19
REMARK   13  A    between atoms: C_19  and  O_20
REMARK   14  A    between atoms: C_21  and  O_22
REMARK   15  A    between atoms: C_21  and  C_23
REMARK   16  A    between atoms: C_23  and  O_24
REMARK   17  A    between atoms: C_23  and  C_25
REMARK   18  A    between atoms: C_25  and  O_26
REMARK   19  A    between atoms: C_25  and  C_27
REMARK   20  A    between atoms: C_27  and  O_28
REMARK                            x       y       z     vdW  Elec       q    Type
REMARK                         _______ _______ _______ _____ _____    ______ ____
ROOT
ATOM      1  C   UNL     1       3.357   4.965  19.233  0.00  0.00    +0.000 C 
ENDROOT
BRANCH   1   2
ATOM      2  C   UNL     1       4.797   4.575  18.796  0.00  0.00    +0.000 C 
BRANCH   2   3
ATOM      3  O   UNL     1       5.194   3.349  19.417  0.00  0.00    +0.000 OA
ATOM      4  H   UNL     1       4.516   2.671  19.213  0.00  0.00    +0.000 HD
ENDBRANCH   2   3
BRANCH   2   5
ATOM      5  C   UNL     1       4.961   4.436  17.255  0.00  0.00    +0.000 C 
BRANCH   5   6
ATOM      6  O   UNL     1       5.221   3.071  16.902  0.00  0.00    +0.000 OA
ATOM      7  H   UNL     1       4.420   2.584  17.179  0.00  0.00    +0.000 HD
ENDBRANCH   5   6
BRANCH   5   8
ATOM      8  C   UNL     1       6.102   5.301  16.663  0.00  0.00    +0.000 C 
BRANCH   8   9
ATOM      9  O   UNL     1       6.351   6.460  17.468  0.00  0.00    +0.000 OA
ATOM     10  H   UNL     1       5.503   6.733  17.860  0.00  0.00    +0.000 HD
ENDBRANCH   8   9
BRANCH   8  11
ATOM     11  C   UNL     1       7.408   4.486  16.549  0.00  0.00    +0.000 C 
BRANCH  11  12
ATOM     12  O   UNL     1       7.879   4.058  17.828  0.00  0.00    +0.000 OA
ATOM     13  H   UNL     1       7.567   3.149  17.975  0.00  0.00    +0.000 HD
ENDBRANCH  11  12
ENDBRANCH   8  11
ENDBRANCH   5   8
ENDBRANCH   2   5
ENDBRANCH   1   2
BRANCH   1  14
ATOM     14  C   UNL     1       3.124   6.497  19.350  0.00  0.00    +0.000 C 
BRANCH  14  15
ATOM     15  O   UNL     1       3.607   7.140  18.158  0.00  0.00    +0.000 OA
ATOM     16  H   UNL     1       3.857   6.417  17.547  0.00  0.00    +0.000 HD
ENDBRANCH  14  15
BRANCH  14  17
ATOM     17  C   UNL     1       1.651   6.939  19.592  0.00  0.00    +0.000 C 
BRANCH  17  18
ATOM     18  N   UNL     1       1.555   8.328  20.120  0.00  0.00    +0.000 NA
ATOM     19  C   UNL     1       0.957   8.352  21.474  0.00  0.00    +0.000 C 
ATOM     20  C   UNL     1       1.156   9.722  22.126  0.00  0.00    +0.000 C 
ATOM     21  C   UNL     1       0.404  10.773  21.305  0.00  0.00    +0.000 C 
ATOM     22  C   UNL     1       0.855  10.725  19.833  0.00  0.00    +0.000 C 
ATOM     23  C   UNL     1       0.795   9.275  19.240  0.00  0.00    +0.000 C 
BRANCH  22  24
ATOM     24  O   UNL     1       0.060  11.630  19.048  0.00  0.00    +0.000 OA
ATOM     25  H   UNL     1       0.633  12.359  18.746  0.00  0.00    +0.000 HD
ENDBRANCH  22  24
BRANCH  21  26
ATOM     26  O   UNL     1       0.590  12.082  21.855  0.00  0.00    +0.000 OA
ATOM     27  H   UNL     1       1.538  12.300  21.810  0.00  0.00    +0.000 HD
ENDBRANCH  21  26
BRANCH  20  28
ATOM     28  O   UNL     1       0.716   9.674  23.486  0.00  0.00    +0.000 OA
ATOM     29  H   UNL     1      -0.102   9.152  23.536  0.00  0.00    +0.000 HD
ENDBRANCH  20  28
BRANCH  23  30
ATOM     30  C   UNL     1       1.273   9.326  17.760  0.00  0.00    +0.000 C 
BRANCH  30  31
ATOM     31  O   UNL     1       2.117  10.448  17.503  0.00  0.00    +0.000 OA
ATOM     32  H   UNL     1       2.073  10.624  16.538  0.00  0.00    +0.000 HD
ENDBRANCH  30  31
ENDBRANCH  23  30
ENDBRANCH  17  18
ENDBRANCH  14  17
ENDBRANCH   1  14
BRANCH   1  33
ATOM     33  O   UNL     1       3.118   4.386  20.526  0.00  0.00    +0.000 OA
BRANCH  33  35
ATOM     34  O   UNL     1       2.139   2.642  22.027  0.00  0.00    +0.000 OA
ATOM     35  S   UNL     1       2.110   3.116  20.662  0.00  0.00    +0.000 S 
ATOM     36  O   UNL     1       2.355   2.204  19.560  0.00  0.00    +0.000 OA
BRANCH  35  37
ATOM     37  O   UNL     1       0.658   3.758  20.421  0.00  0.00    +0.000 OA
ATOM     38  H   UNL     1       0.045   3.039  20.171  0.00  0.00    +0.000 HD
ENDBRANCH  35  37
ENDBRANCH  33  35
ENDBRANCH   1  33
TORSDOF 20
ENDMDL
MODEL 7
REMARK VINA RESULT:      -6.1      2.186      4.786
REMARK  Name = 
REMARK  20 active torsions:
REMARK  status: ('A' for Active; 'I' for Inactive)
REMARK    1  A    between atoms: S_2  and  O_4
REMARK    2  A    between atoms: S_2  and  O_5
REMARK    3  A    between atoms: O_5  and  C_6
REMARK    4  A    between atoms: C_6  and  C_7
REMARK    5  A    between atoms: C_6  and  C_21
REMARK    6  A    between atoms: C_7  and  O_8
REMARK    7  A    between atoms: C_7  and  C_9
REMARK    8  A    between atoms: C_9  and  N_10
REMARK    9  A    between atoms: C_12  and  O_13
REMARK   10  A    between atoms: C_14  and  O_15
REMARK   11  A    between atoms: C_16  and  O_17
REMARK   12  A    between atoms: C_18  and  C_19
REMARK   13  A    between atoms: C_19  and  O_20
REMARK   14  A    between atoms: C_21  and  O_22
REMARK   15  A    between atoms: C_21  and  C_23
REMARK   16  A    between atoms: C_23  and  O_24
REMARK   17  A    between atoms: C_23  and  C_25
REMARK   18  A    between atoms: C_25  and  O_26
REMARK   19  A    between atoms: C_25  and  C_27
REMARK   20  A    between atoms: C_27  and  O_28
REMARK                            x       y       z     vdW  Elec       q    Type
REMARK                         _______ _______ _______ _____ _____    ______ ____
ROOT
ATOM      1  C   UNL     1       3.517   5.163  18.444  0.00  0.00    +0.000 C 
ENDROOT
BRANCH   1   2
ATOM      2  C   UNL     1       5.013   4.744  18.421  0.00  0.00    +0.000 C 
BRANCH   2   3
ATOM      3  O   UNL     1       5.163   3.395  18.871  0.00  0.00    +0.000 OA
ATOM      4  H   UNL     1       4.387   3.170  19.426  0.00  0.00    +0.000 HD
ENDBRANCH   2   3
BRANCH   2   5
ATOM      5  C   UNL     1       5.675   4.884  17.019  0.00  0.00    +0.000 C 
BRANCH   5   6
ATOM      6  O   UNL     1       6.178   3.617  16.575  0.00  0.00    +0.000 OA
ATOM      7  H   UNL     1       6.830   3.355  17.256  0.00  0.00    +0.000 HD
ENDBRANCH   5   6
BRANCH   5   8
ATOM      8  C   UNL     1       6.846   5.898  16.974  0.00  0.00    +0.000 C 
BRANCH   8   9
ATOM      9  O   UNL     1       6.374   7.233  16.760  0.00  0.00    +0.000 OA
ATOM     10  H   UNL     1       6.977   7.660  16.127  0.00  0.00    +0.000 HD
ENDBRANCH   8   9
BRANCH   8  11
ATOM     11  C   UNL     1       7.654   5.863  18.289  0.00  0.00    +0.000 C 
BRANCH  11  12
ATOM     12  O   UNL     1       8.133   4.549  18.581  0.00  0.00    +0.000 OA
ATOM     13  H   UNL     1       8.358   4.514  19.527  0.00  0.00    +0.000 HD
ENDBRANCH  11  12
ENDBRANCH   8  11
ENDBRANCH   5   8
ENDBRANCH   2   5
ENDBRANCH   1   2
BRANCH   1  14
ATOM     14  C   UNL     1       3.269   6.596  18.990  0.00  0.00    +0.000 C 
BRANCH  14  15
ATOM     15  O   UNL     1       3.659   7.554  17.991  0.00  0.00    +0.000 OA
ATOM     16  H   UNL     1       4.638   7.544  17.978  0.00  0.00    +0.000 HD
ENDBRANCH  14  15
BRANCH  14  17
ATOM     17  C   UNL     1       1.809   6.907  19.432  0.00  0.00    +0.000 C 
BRANCH  17  18
ATOM     18  N   UNL     1       1.664   8.281  19.987  0.00  0.00    +0.000 NA
ATOM     19  C   UNL     1       1.153   8.253  21.377  0.00  0.00    +0.000 C 
ATOM     20  C   UNL     1       1.312   9.625  22.036  0.00  0.00    +0.000 C 
ATOM     21  C   UNL     1       0.448  10.638  21.281  0.00  0.00    +0.000 C 
ATOM     22  C   UNL     1       0.806  10.634  19.782  0.00  0.00    +0.000 C 
ATOM     23  C   UNL     1       0.795   9.190  19.171  0.00  0.00    +0.000 C 
BRANCH  22  24
ATOM     24  O   UNL     1      -0.089  11.499  19.063  0.00  0.00    +0.000 OA
ATOM     25  H   UNL     1      -0.988  11.377  19.422  0.00  0.00    +0.000 HD
ENDBRANCH  22  24
BRANCH  21  26
ATOM     26  O   UNL     1       0.591  11.949  21.838  0.00  0.00    +0.000 OA
ATOM     27  H   UNL     1       1.209  12.453  21.279  0.00  0.00    +0.000 HD
ENDBRANCH  21  26
BRANCH  20  28
ATOM     28  O   UNL     1       0.964   9.534  23.420  0.00  0.00    +0.000 OA
ATOM     29  H   UNL     1       0.006   9.662  23.515  0.00  0.00    +0.000 HD
ENDBRANCH  20  28
BRANCH  23  30
ATOM     30  C   UNL     1       1.173   9.288  17.665  0.00  0.00    +0.000 C 
BRANCH  30  31
ATOM     31  O   UNL     1       2.165  10.285  17.420  0.00  0.00    +0.000 OA
ATOM     32  H   UNL     1       1.759  11.151  17.640  0.00  0.00    +0.000 HD
ENDBRANCH  30  31
ENDBRANCH  23  30
ENDBRANCH  17  18
ENDBRANCH  14  17
ENDBRANCH   1  14
BRANCH   1  33
ATOM     33  O   UNL     1       2.817   4.243  19.298  0.00  0.00    +0.000 OA
BRANCH  33  35
ATOM     34  O   UNL     1       0.677   2.983  19.589  0.00  0.00    +0.000 OA
ATOM     35  S   UNL     1       1.753   3.197  18.649  0.00  0.00    +0.000 S 
ATOM     36  O   UNL     1       2.483   2.071  18.096  0.00  0.00    +0.000 OA
BRANCH  35  37
ATOM     37  O   UNL     1       1.135   4.006  17.408  0.00  0.00    +0.000 OA
ATOM     38  H   UNL     1       1.833   4.585  17.044  0.00  0.00    +0.000 HD
ENDBRANCH  35  37
ENDBRANCH  33  35
ENDBRANCH   1  33
TORSDOF 20
ENDMDL
MODEL 8
REMARK VINA RESULT:      -6.0      2.276      4.490
REMARK  Name = 
REMARK  20 active torsions:
REMARK  status: ('A' for Active; 'I' for Inactive)
REMARK    1  A    between atoms: S_2  and  O_4
REMARK    2  A    between atoms: S_2  and  O_5
REMARK    3  A    between atoms: O_5  and  C_6
REMARK    4  A    between atoms: C_6  and  C_7
REMARK    5  A    between atoms: C_6  and  C_21
REMARK    6  A    between atoms: C_7  and  O_8
REMARK    7  A    between atoms: C_7  and  C_9
REMARK    8  A    between atoms: C_9  and  N_10
REMARK    9  A    between atoms: C_12  and  O_13
REMARK   10  A    between atoms: C_14  and  O_15
REMARK   11  A    between atoms: C_16  and  O_17
REMARK   12  A    between atoms: C_18  and  C_19
REMARK   13  A    between atoms: C_19  and  O_20
REMARK   14  A    between atoms: C_21  and  O_22
REMARK   15  A    between atoms: C_21  and  C_23
REMARK   16  A    between atoms: C_23  and  O_24
REMARK   17  A    between atoms: C_23  and  C_25
REMARK   18  A    between atoms: C_25  and  O_26
REMARK   19  A    between atoms: C_25  and  C_27
REMARK   20  A    between atoms: C_27  and  O_28
REMARK                            x       y       z     vdW  Elec       q    Type
REMARK                         _______ _______ _______ _____ _____    ______ ____
ROOT
ATOM      1  C   UNL     1       2.713   5.360  18.690  0.00  0.00    +0.000 C 
ENDROOT
BRANCH   1   2
ATOM      2  C   UNL     1       4.229   5.682  18.574  0.00  0.00    +0.000 C 
BRANCH   2   3
ATOM      3  O   UNL     1       4.884   5.469  19.827  0.00  0.00    +0.000 OA
ATOM      4  H   UNL     1       4.442   4.720  20.279  0.00  0.00    +0.000 HD
ENDBRANCH   2   3
BRANCH   2   5
ATOM      5  C   UNL     1       4.957   4.851  17.478  0.00  0.00    +0.000 C 
BRANCH   5   6
ATOM      6  O   UNL     1       5.248   3.532  17.961  0.00  0.00    +0.000 OA
ATOM      7  H   UNL     1       5.404   3.000  17.155  0.00  0.00    +0.000 HD
ENDBRANCH   5   6
BRANCH   5   8
ATOM      8  C   UNL     1       6.288   5.478  16.992  0.00  0.00    +0.000 C 
BRANCH   8   9
ATOM      9  O   UNL     1       6.438   6.821  17.469  0.00  0.00    +0.000 OA
ATOM     10  H   UNL     1       6.364   6.798  18.438  0.00  0.00    +0.000 HD
ENDBRANCH   8   9
BRANCH   8  11
ATOM     11  C   UNL     1       7.496   4.645  17.471  0.00  0.00    +0.000 C 
BRANCH  11  12
ATOM     12  O   UNL     1       7.720   4.793  18.874  0.00  0.00    +0.000 OA
ATOM     13  H   UNL     1       8.659   5.005  19.008  0.00  0.00    +0.000 HD
ENDBRANCH  11  12
ENDBRANCH   8  11
ENDBRANCH   5   8
ENDBRANCH   2   5
ENDBRANCH   1   2
BRANCH   1  14
ATOM     14  C   UNL     1       1.938   6.304  19.650  0.00  0.00    +0.000 C 
BRANCH  14  15
ATOM     15  O   UNL     1       2.160   5.883  21.007  0.00  0.00    +0.000 OA
ATOM     16  H   UNL     1       2.830   5.171  20.959  0.00  0.00    +0.000 HD
ENDBRANCH  14  15
BRANCH  14  17
ATOM     17  C   UNL     1       2.287   7.817  19.535  0.00  0.00    +0.000 C 
BRANCH  17  18
ATOM     18  N   UNL     1       1.099   8.691  19.742  0.00  0.00    +0.000 NA
ATOM     19  C   UNL     1       0.856   9.561  18.568  0.00  0.00    +0.000 C 
ATOM     20  C   UNL     1      -0.527  10.209  18.656  0.00  0.00    +0.000 C 
ATOM     21  C   UNL     1      -0.566  11.123  19.883  0.00  0.00    +0.000 C 
ATOM     22  C   UNL     1      -0.179  10.335  21.149  0.00  0.00    +0.000 C 
ATOM     23  C   UNL     1       1.165   9.547  20.971  0.00  0.00    +0.000 C 
BRANCH  22  24
ATOM     24  O   UNL     1      -0.102  11.225  22.275  0.00  0.00    +0.000 OA
ATOM     25  H   UNL     1      -0.646  10.856  22.996  0.00  0.00    +0.000 HD
ENDBRANCH  22  24
BRANCH  21  26
ATOM     26  O   UNL     1      -1.856  11.727  20.031  0.00  0.00    +0.000 OA
ATOM     27  H   UNL     1      -2.497  11.208  19.512  0.00  0.00    +0.000 HD
ENDBRANCH  21  26
BRANCH  20  28
ATOM     28  O   UNL     1      -0.804  10.912  17.442  0.00  0.00    +0.000 OA
ATOM     29  H   UNL     1      -1.237  11.755  17.656  0.00  0.00    +0.000 HD
ENDBRANCH  20  28
BRANCH  23  30
ATOM     30  C   UNL     1       1.467   8.781  22.291  0.00  0.00    +0.000 C 
BRANCH  30  31
ATOM     31  O   UNL     1       2.484   9.418  23.066  0.00  0.00    +0.000 OA
ATOM     32  H   UNL     1       2.062   9.717  23.900  0.00  0.00    +0.000 HD
ENDBRANCH  30  31
ENDBRANCH  23  30
ENDBRANCH  17  18
ENDBRANCH  14  17
ENDBRANCH   1  14
BRANCH   1  33
ATOM     33  O   UNL     1       2.587   4.021  19.197  0.00  0.00    +0.000 OA
BRANCH  33  35
ATOM     34  O   UNL     1       1.839   3.326  16.915  0.00  0.00    +0.000 OA
ATOM     35  S   UNL     1       1.850   2.887  18.291  0.00  0.00    +0.000 S 
ATOM     36  O   UNL     1       0.618   2.493  18.948  0.00  0.00    +0.000 OA
BRANCH  35  37
ATOM     37  O   UNL     1       2.845   1.631  18.374  0.00  0.00    +0.000 OA
ATOM     38  H   UNL     1       3.709   1.947  18.703  0.00  0.00    +0.000 HD
ENDBRANCH  35  37
ENDBRANCH  33  35
ENDBRANCH   1  33
TORSDOF 20
ENDMDL
MODEL 9
REMARK VINA RESULT:      -6.0      2.208      4.240
REMARK  Name = 
REMARK  20 active torsions:
REMARK  status: ('A' for Active; 'I' for Inactive)
REMARK    1  A    between atoms: S_2  and  O_4
REMARK    2  A    between atoms: S_2  and  O_5
REMARK    3  A    between atoms: O_5  and  C_6
REMARK    4  A    between atoms: C_6  and  C_7
REMARK    5  A    between atoms: C_6  and  C_21
REMARK    6  A    between atoms: C_7  and  O_8
REMARK    7  A    between atoms: C_7  and  C_9
REMARK    8  A    between atoms: C_9  and  N_10
REMARK    9  A    between atoms: C_12  and  O_13
REMARK   10  A    between atoms: C_14  and  O_15
REMARK   11  A    between atoms: C_16  and  O_17
REMARK   12  A    between atoms: C_18  and  C_19
REMARK   13  A    between atoms: C_19  and  O_20
REMARK   14  A    between atoms: C_21  and  O_22
REMARK   15  A    between atoms: C_21  and  C_23
REMARK   16  A    between atoms: C_23  and  O_24
REMARK   17  A    between atoms: C_23  and  C_25
REMARK   18  A    between atoms: C_25  and  O_26
REMARK   19  A    between atoms: C_25  and  C_27
REMARK   20  A    between atoms: C_27  and  O_28
REMARK                            x       y       z     vdW  Elec       q    Type
REMARK                         _______ _______ _______ _____ _____    ______ ____
ROOT
ATOM      1  C   UNL     1       2.705   5.043  18.932  0.00  0.00    +0.000 C 
ENDROOT
BRANCH   1   2
ATOM      2  C   UNL     1       4.042   5.832  19.008  0.00  0.00    +0.000 C 
BRANCH   2   3
ATOM      3  O   UNL     1       4.798   5.428  20.153  0.00  0.00    +0.000 OA
ATOM      4  H   UNL     1       5.743   5.622  19.979  0.00  0.00    +0.000 HD
ENDBRANCH   2   3
BRANCH   2   5
ATOM      5  C   UNL     1       4.928   5.674  17.738  0.00  0.00    +0.000 C 
BRANCH   5   6
ATOM      6  O   UNL     1       4.162   5.116  16.661  0.00  0.00    +0.000 OA
ATOM      7  H   UNL     1       3.257   5.462  16.792  0.00  0.00    +0.000 HD
ENDBRANCH   5   6
BRANCH   5   8
ATOM      8  C   UNL     1       6.172   4.773  17.947  0.00  0.00    +0.000 C 
BRANCH   8   9
ATOM      9  O   UNL     1       5.815   3.518  18.537  0.00  0.00    +0.000 OA
ATOM     10  H   UNL     1       5.977   3.586  19.493  0.00  0.00    +0.000 HD
ENDBRANCH   8   9
BRANCH   8  11
ATOM     11  C   UNL     1       6.888   4.506  16.606  0.00  0.00    +0.000 C 
BRANCH  11  12
ATOM     12  O   UNL     1       6.257   3.460  15.867  0.00  0.00    +0.000 OA
ATOM     13  H   UNL     1       6.876   3.161  15.179  0.00  0.00    +0.000 HD
ENDBRANCH  11  12
ENDBRANCH   8  11
ENDBRANCH   5   8
ENDBRANCH   2   5
ENDBRANCH   1   2
BRANCH   1  14
ATOM     14  C   UNL     1       1.613   5.554  19.912  0.00  0.00    +0.000 C 
BRANCH  14  15
ATOM     15  O   UNL     1       1.394   4.564  20.932  0.00  0.00    +0.000 OA
ATOM     16  H   UNL     1       0.424   4.457  20.998  0.00  0.00    +0.000 HD
ENDBRANCH  14  15
BRANCH  14  17
ATOM     17  C   UNL     1       1.909   6.919  20.600  0.00  0.00    +0.000 C 
BRANCH  17  18
ATOM     18  N   UNL     1       1.185   8.049  19.954  0.00  0.00    +0.000 NA
ATOM     19  C   UNL     1       2.073   8.813  19.048  0.00  0.00    +0.000 C 
ATOM     20  C   UNL     1       1.255   9.754  18.161  0.00  0.00    +0.000 C 
ATOM     21  C   UNL     1       0.556  10.786  19.049  0.00  0.00    +0.000 C 
ATOM     22  C   UNL     1      -0.285  10.079  20.130  0.00  0.00    +0.000 C 
ATOM     23  C   UNL     1       0.540   9.002  20.915  0.00  0.00    +0.000 C 
BRANCH  22  24
ATOM     24  O   UNL     1      -0.841  11.052  21.031  0.00  0.00    +0.000 OA
ATOM     25  H   UNL     1      -0.273  11.097  21.823  0.00  0.00    +0.000 HD
ENDBRANCH  22  24
BRANCH  21  26
ATOM     26  O   UNL     1      -0.255  11.670  18.267  0.00  0.00    +0.000 OA
ATOM     27  H   UNL     1      -0.373  11.275  17.384  0.00  0.00    +0.000 HD
ENDBRANCH  21  26
BRANCH  20  28
ATOM     28  O   UNL     1       2.111  10.360  17.189  0.00  0.00    +0.000 OA
ATOM     29  H   UNL     1       2.938   9.853  17.135  0.00  0.00    +0.000 HD
ENDBRANCH  20  28
BRANCH  23  30
ATOM     30  C   UNL     1      -0.390   8.341  21.973  0.00  0.00    +0.000 C 
BRANCH  30  31
ATOM     31  O   UNL     1      -0.553   9.156  23.134  0.00  0.00    +0.000 OA
ATOM     32  H   UNL     1      -0.110  10.012  22.947  0.00  0.00    +0.000 HD
ENDBRANCH  30  31
ENDBRANCH  23  30
ENDBRANCH  17  18
ENDBRANCH  14  17
ENDBRANCH   1  14
BRANCH   1  33
ATOM     33  O   UNL     1       2.984   3.673  19.264  0.00  0.00    +0.000 OA
BRANCH  33  35
ATOM     34  O   UNL     1       1.106   2.079  18.837  0.00  0.00    +0.000 OA
ATOM     35  S   UNL     1       2.395   2.484  18.323  0.00  0.00    +0.000 S 
ATOM     36  O   UNL     1       3.440   1.503  18.100  0.00  0.00    +0.000 OA
BRANCH  35  37
ATOM     37  O   UNL     1       2.129   3.210  16.917  0.00  0.00    +0.000 OA
ATOM     38  H   UNL     1       2.717   2.806  16.249  0.00  0.00    +0.000 HD
ENDBRANCH  35  37
ENDBRANCH  33  35
ENDBRANCH   1  33
TORSDOF 20
ENDMDL
