MODEL 1
REMARK VINA RESULT:      -6.2      0.000      0.000
REMARK  Name = 
REMARK  16 active torsions:
REMARK  status: ('A' for Active; 'I' for Inactive)
REMARK    1  A    between atoms: C_1  and  C_2
REMARK    2  A    between atoms: C_4  and  C_5
REMARK    3  A    between atoms: N_7  and  C_8
REMARK    4  A    between atoms: C_8  and  C_9
REMARK    5  A    between atoms: C_9  and  C_10
REMARK    6  A    between atoms: C_10  and  N_11
REMARK    7  A    between atoms: N_11  and  C_12
REMARK    8  A    between atoms: C_12  and  C_13
REMARK    9  A    between atoms: C_13  and  C_14
REMARK   10  A    between atoms: C_14  and  C_15
REMARK   11  A    between atoms: C_15  and  N_16
REMARK   12  A    between atoms: N_16  and  C_17
REMARK   13  A    between atoms: C_17  and  C_18
REMARK   14  A    between atoms: C_18  and  C_19
REMARK   15  A    between atoms: C_19  and  N_20
REMARK   16  A    between atoms: N_29  and  C_30
REMARK                            x       y       z     vdW  Elec       q    Type
REMARK                         _______ _______ _______ _____ _____    ______ ____
ROOT
ATOM      1  C   UNL     1       3.900  16.102  18.924  0.00  0.00    +0.000 C 
ATOM      2  C   UNL     1       2.434  15.921  19.357  0.00  0.00    +0.000 C 
ATOM      3  C   UNL     1       2.192  14.436  19.896  0.00  0.00    +0.000 C 
ATOM      4  C   UNL     1       0.847  14.342  20.742  0.00  0.00    +0.000 C 
ATOM      5  C   UNL     1       1.248  15.198  21.965  0.00  0.00    +0.000 C 
ATOM      6  C   UNL     1      -0.321  13.592  21.594  0.00  0.00    +0.000 C 
ATOM      7  N   UNL     1      -1.734  13.558  21.346  0.00  0.00    +0.000 N 
ATOM      8  N   UNL     1       0.226  12.629  22.203  0.00  0.00    +0.000 NA
ATOM      9  C   UNL     1       0.315  11.705  21.179  0.00  0.00    +0.000 A 
ATOM     10  C   UNL     1       0.154  10.399  21.591  0.00  0.00    +0.000 A 
ATOM     11  C   UNL     1      -0.140   9.451  20.626  0.00  0.00    +0.000 A 
ATOM     12  C   UNL     1      -0.064   9.828  19.308  0.00  0.00    +0.000 A 
ATOM     13  C   UNL     1       0.177  11.174  18.839  0.00  0.00    +0.000 A 
ATOM     14  C   UNL     1       0.225  12.197  19.792  0.00  0.00    +0.000 A 
ATOM     15  C   UNL     1       0.172  14.034  19.444  0.00  0.00    +0.000 C 
ATOM     16  N   UNL     1      -0.676  15.390  19.363  0.00  0.00    +0.000 N 
ATOM     17  C   UNL     1      -1.021  16.262  20.561  0.00  0.00    +0.000 C 
ATOM     18  C   UNL     1      -0.008  16.393  18.516  0.00  0.00    +0.000 A 
ATOM     19  C   UNL     1      -0.847  17.410  17.963  0.00  0.00    +0.000 A 
ATOM     20  C   UNL     1      -0.354  18.459  17.176  0.00  0.00    +0.000 A 
ATOM     21  C   UNL     1       0.994  18.489  16.876  0.00  0.00    +0.000 A 
ATOM     22  C   UNL     1       1.849  17.559  17.482  0.00  0.00    +0.000 A 
ATOM     23  C   UNL     1       1.397  16.541  18.373  0.00  0.00    +0.000 A 
ATOM     24  H   UNL     1      -1.991  13.447  20.364  0.00  0.00    +0.000 HD
ENDROOT
BRANCH   7  25
ATOM     25  C   UNL     1      -2.556  12.631  22.183  0.00  0.00    +0.000 C 
BRANCH  25  26
ATOM     26  C   UNL     1      -3.601  13.297  23.051  0.00  0.00    +0.000 C 
BRANCH  26  27
ATOM     27  C   UNL     1      -4.846  13.582  22.231  0.00  0.00    +0.000 C 
BRANCH  27  28
ATOM     28  N   UNL     1      -5.591  12.386  21.864  0.00  0.00    +0.000 NA
ATOM     29  H   UNL     1      -5.808  11.840  22.698  0.00  0.00    +0.000 HD
BRANCH  28  30
ATOM     30  C   UNL     1      -6.808  12.723  21.148  0.00  0.00    +0.000 C 
BRANCH  30  31
ATOM     31  C   UNL     1      -6.739  12.026  19.811  0.00  0.00    +0.000 C 
BRANCH  31  32
ATOM     32  C   UNL     1      -5.914  12.845  18.837  0.00  0.00    +0.000 C 
BRANCH  32  33
ATOM     33  C   UNL     1      -5.956  12.148  17.493  0.00  0.00    +0.000 C 
BRANCH  33  34
ATOM     34  N   UNL     1      -4.596  11.858  17.068  0.00  0.00    +0.000 NA
ATOM     35  H   UNL     1      -3.952  12.509  17.516  0.00  0.00    +0.000 HD
BRANCH  34  36
ATOM     36  C   UNL     1      -4.257  10.491  17.441  0.00  0.00    +0.000 C 
BRANCH  36  37
ATOM     37  C   UNL     1      -2.901  10.132  16.851  0.00  0.00    +0.000 C 
BRANCH  37  38
ATOM     38  C   UNL     1      -2.750  10.798  15.490  0.00  0.00    +0.000 C 
BRANCH  38  39
ATOM     39  N   UNL     1      -3.716  10.250  14.546  0.00  0.00    +0.000 NA
ATOM     40  H   UNL     1      -4.126  11.008  14.001  0.00  0.00    +0.000 HD
ATOM     41  H   UNL     1      -4.484   9.818  15.059  0.00  0.00    +0.000 HD
ENDBRANCH  38  39
ENDBRANCH  37  38
ENDBRANCH  36  37
ENDBRANCH  34  36
ENDBRANCH  33  34
ENDBRANCH  32  33
ENDBRANCH  31  32
ENDBRANCH  30  31
ENDBRANCH  28  30
ENDBRANCH  27  28
ENDBRANCH  26  27
ENDBRANCH  25  26
ENDBRANCH   7  25
TORSDOF 13
ENDMDL
MODEL 2
REMARK VINA RESULT:      -6.1      2.806      5.539
REMARK  Name = 
REMARK  16 active torsions:
REMARK  status: ('A' for Active; 'I' for Inactive)
REMARK    1  A    between atoms: C_1  and  C_2
REMARK    2  A    between atoms: C_4  and  C_5
REMARK    3  A    between atoms: N_7  and  C_8
REMARK    4  A    between atoms: C_8  and  C_9
REMARK    5  A    between atoms: C_9  and  C_10
REMARK    6  A    between atoms: C_10  and  N_11
REMARK    7  A    between atoms: N_11  and  C_12
REMARK    8  A    between atoms: C_12  and  C_13
REMARK    9  A    between atoms: C_13  and  C_14
REMARK   10  A    between atoms: C_14  and  C_15
REMARK   11  A    between atoms: C_15  and  N_16
REMARK   12  A    between atoms: N_16  and  C_17
REMARK   13  A    between atoms: C_17  and  C_18
REMARK   14  A    between atoms: C_18  and  C_19
REMARK   15  A    between atoms: C_19  and  N_20
REMARK   16  A    between atoms: N_29  and  C_30
REMARK                            x       y       z     vdW  Elec       q    Type
REMARK                         _______ _______ _______ _____ _____    ______ ____
ROOT
ATOM      1  C   UNL     1      -0.502   9.928  23.326  0.00  0.00    +0.000 C 
ATOM      2  C   UNL     1      -0.837  11.166  22.474  0.00  0.00    +0.000 C 
ATOM      3  C   UNL     1      -2.170  11.866  23.009  0.00  0.00    +0.000 C 
ATOM      4  C   UNL     1      -2.301  13.352  22.455  0.00  0.00    +0.000 C 
ATOM      5  C   UNL     1      -1.122  14.015  23.204  0.00  0.00    +0.000 C 
ATOM      6  C   UNL     1      -3.025  14.794  22.231  0.00  0.00    +0.000 C 
ATOM      7  N   UNL     1      -3.372  15.444  21.000  0.00  0.00    +0.000 N 
ATOM      8  N   UNL     1      -3.701  15.034  23.272  0.00  0.00    +0.000 NA
ATOM      9  C   UNL     1      -4.811  14.244  23.037  0.00  0.00    +0.000 A 
ATOM     10  C   UNL     1      -5.989  14.779  23.513  0.00  0.00    +0.000 A 
ATOM     11  C   UNL     1      -7.175  14.267  23.018  0.00  0.00    +0.000 A 
ATOM     12  C   UNL     1      -7.115  13.139  22.237  0.00  0.00    +0.000 A 
ATOM     13  C   UNL     1      -5.898  12.507  21.781  0.00  0.00    +0.000 A 
ATOM     14  C   UNL     1      -4.687  13.151  22.056  0.00  0.00    +0.000 A 
ATOM     15  C   UNL     1      -3.025  12.748  21.295  0.00  0.00    +0.000 C 
ATOM     16  N   UNL     1      -1.903  13.076  20.200  0.00  0.00    +0.000 N 
ATOM     17  C   UNL     1      -0.849  14.163  20.347  0.00  0.00    +0.000 C 
ATOM     18  C   UNL     1      -1.027  11.916  19.965  0.00  0.00    +0.000 A 
ATOM     19  C   UNL     1      -0.339  11.891  18.712  0.00  0.00    +0.000 A 
ATOM     20  C   UNL     1       0.564  10.879  18.360  0.00  0.00    +0.000 A 
ATOM     21  C   UNL     1       0.765   9.832  19.237  0.00  0.00    +0.000 A 
ATOM     22  C   UNL     1       0.177   9.882  20.507  0.00  0.00    +0.000 A 
ATOM     23  C   UNL     1      -0.666  10.949  20.940  0.00  0.00    +0.000 A 
ATOM     24  H   UNL     1      -3.757  14.826  20.285  0.00  0.00    +0.000 HD
ENDROOT
BRANCH   7  25
ATOM     25  C   UNL     1      -4.206  16.682  21.088  0.00  0.00    +0.000 C 
BRANCH  25  26
ATOM     26  C   UNL     1      -4.531  17.341  19.765  0.00  0.00    +0.000 C 
BRANCH  26  27
ATOM     27  C   UNL     1      -5.953  17.004  19.358  0.00  0.00    +0.000 C 
BRANCH  27  28
ATOM     28  N   UNL     1      -6.466  15.789  19.975  0.00  0.00    +0.000 NA
ATOM     29  H   UNL     1      -6.847  16.000  20.897  0.00  0.00    +0.000 HD
BRANCH  28  30
ATOM     30  C   UNL     1      -7.476  15.162  19.142  0.00  0.00    +0.000 C 
BRANCH  30  31
ATOM     31  C   UNL     1      -6.935  15.144  17.733  0.00  0.00    +0.000 C 
BRANCH  31  32
ATOM     32  C   UNL     1      -7.020  13.742  17.159  0.00  0.00    +0.000 C 
BRANCH  32  33
ATOM     33  C   UNL     1      -6.147  12.841  18.007  0.00  0.00    +0.000 C 
BRANCH  33  34
ATOM     34  N   UNL     1      -5.639  11.759  17.179  0.00  0.00    +0.000 NA
ATOM     35  H   UNL     1      -4.684  11.970  16.889  0.00  0.00    +0.000 HD
BRANCH  34  36
ATOM     36  C   UNL     1      -5.661  10.518  17.942  0.00  0.00    +0.000 C 
BRANCH  36  37
ATOM     37  C   UNL     1      -6.751  10.600  19.001  0.00  0.00    +0.000 C 
BRANCH  37  38
ATOM     38  C   UNL     1      -7.012   9.209  19.564  0.00  0.00    +0.000 C 
BRANCH  38  39
ATOM     39  N   UNL     1      -7.623   9.302  20.885  0.00  0.00    +0.000 NA
ATOM     40  H   UNL     1      -8.187  10.150  20.940  0.00  0.00    +0.000 HD
ATOM     41  H   UNL     1      -6.893   9.398  21.590  0.00  0.00    +0.000 HD
ENDBRANCH  38  39
ENDBRANCH  37  38
ENDBRANCH  36  37
ENDBRANCH  34  36
ENDBRANCH  33  34
ENDBRANCH  32  33
ENDBRANCH  31  32
ENDBRANCH  30  31
ENDBRANCH  28  30
ENDBRANCH  27  28
ENDBRANCH  26  27
ENDBRANCH  25  26
ENDBRANCH   7  25
TORSDOF 13
ENDMDL
MODEL 3
REMARK VINA RESULT:      -6.0      4.091      7.385
REMARK  Name = 
REMARK  16 active torsions:
REMARK  status: ('A' for Active; 'I' for Inactive)
REMARK    1  A    between atoms: C_1  and  C_2
REMARK    2  A    between atoms: C_4  and  C_5
REMARK    3  A    between atoms: N_7  and  C_8
REMARK    4  A    between atoms: C_8  and  C_9
REMARK    5  A    between atoms: C_9  and  C_10
REMARK    6  A    between atoms: C_10  and  N_11
REMARK    7  A    between atoms: N_11  and  C_12
REMARK    8  A    between atoms: C_12  and  C_13
REMARK    9  A    between atoms: C_13  and  C_14
REMARK   10  A    between atoms: C_14  and  C_15
REMARK   11  A    between atoms: C_15  and  N_16
REMARK   12  A    between atoms: N_16  and  C_17
REMARK   13  A    between atoms: C_17  and  C_18
REMARK   14  A    between atoms: C_18  and  C_19
REMARK   15  A    between atoms: C_19  and  N_20
REMARK   16  A    between atoms: N_29  and  C_30
REMARK                            x       y       z     vdW  Elec       q    Type
REMARK                         _______ _______ _______ _____ _____    ______ ____
ROOT
ATOM      1  C   UNL     1      -1.874  15.230  25.511  0.00  0.00    +0.000 C 
ATOM      2  C   UNL     1      -2.348  14.695  24.148  0.00  0.00    +0.000 C 
ATOM      3  C   UNL     1      -1.099  14.434  23.186  0.00  0.00    +0.000 C 
ATOM      4  C   UNL     1      -1.497  13.492  21.967  0.00  0.00    +0.000 C 
ATOM      5  C   UNL     1      -1.752  12.172  22.729  0.00  0.00    +0.000 C 
ATOM      6  C   UNL     1      -1.254  12.689  20.571  0.00  0.00    +0.000 C 
ATOM      7  N   UNL     1      -1.976  12.796  19.335  0.00  0.00    +0.000 N 
ATOM      8  N   UNL     1      -0.041  12.338  20.552  0.00  0.00    +0.000 NA
ATOM      9  C   UNL     1       0.558  13.526  20.176  0.00  0.00    +0.000 A 
ATOM     10  C   UNL     1       1.669  13.363  19.376  0.00  0.00    +0.000 A 
ATOM     11  C   UNL     1       2.111  14.459  18.656  0.00  0.00    +0.000 A 
ATOM     12  C   UNL     1       1.542  15.679  18.926  0.00  0.00    +0.000 A 
ATOM     13  C   UNL     1       0.425  15.898  19.817  0.00  0.00    +0.000 A 
ATOM     14  C   UNL     1      -0.204  14.774  20.361  0.00  0.00    +0.000 A 
ATOM     15  C   UNL     1      -1.855  14.751  21.242  0.00  0.00    +0.000 C 
ATOM     16  N   UNL     1      -3.432  14.480  21.192  0.00  0.00    +0.000 N 
ATOM     17  C   UNL     1      -4.074  13.106  21.319  0.00  0.00    +0.000 C 
ATOM     18  C   UNL     1      -4.133  15.178  22.283  0.00  0.00    +0.000 A 
ATOM     19  C   UNL     1      -5.524  15.435  22.075  0.00  0.00    +0.000 A 
ATOM     20  C   UNL     1      -6.337  16.048  23.037  0.00  0.00    +0.000 A 
ATOM     21  C   UNL     1      -5.764  16.470  24.221  0.00  0.00    +0.000 A 
ATOM     22  C   UNL     1      -4.427  16.147  24.487  0.00  0.00    +0.000 A 
ATOM     23  C   UNL     1      -3.597  15.430  23.573  0.00  0.00    +0.000 A 
ATOM     24  H   UNL     1      -2.224  13.749  19.068  0.00  0.00    +0.000 HD
ENDROOT
BRANCH   7  25
ATOM     25  C   UNL     1      -1.417  12.077  18.149  0.00  0.00    +0.000 C 
BRANCH  25  26
ATOM     26  C   UNL     1      -1.784  10.613  18.046  0.00  0.00    +0.000 C 
BRANCH  26  27
ATOM     27  C   UNL     1      -0.554   9.797  17.693  0.00  0.00    +0.000 C 
BRANCH  27  28
ATOM     28  N   UNL     1       0.605  10.098  18.521  0.00  0.00    +0.000 NA
ATOM     29  H   UNL     1       0.514   9.642  19.429  0.00  0.00    +0.000 HD
BRANCH  28  30
ATOM     30  C   UNL     1       1.837   9.690  17.871  0.00  0.00    +0.000 C 
BRANCH  30  31
ATOM     31  C   UNL     1       1.825   8.182  17.815  0.00  0.00    +0.000 C 
BRANCH  31  32
ATOM     32  C   UNL     1       3.243   7.645  17.866  0.00  0.00    +0.000 C 
BRANCH  32  33
ATOM     33  C   UNL     1       3.167   6.161  18.157  0.00  0.00    +0.000 C 
BRANCH  33  34
ATOM     34  N   UNL     1       4.210   5.478  17.410  0.00  0.00    +0.000 NA
ATOM     35  H   UNL     1       3.944   5.421  16.427  0.00  0.00    +0.000 HD
BRANCH  34  36
ATOM     36  C   UNL     1       5.459   6.217  17.542  0.00  0.00    +0.000 C 
BRANCH  36  37
ATOM     37  C   UNL     1       6.433   5.753  16.469  0.00  0.00    +0.000 C 
BRANCH  37  38
ATOM     38  C   UNL     1       7.302   4.634  17.026  0.00  0.00    +0.000 C 
BRANCH  38  39
ATOM     39  N   UNL     1       6.828   4.229  18.343  0.00  0.00    +0.000 NA
ATOM     40  H   UNL     1       7.554   4.408  19.036  0.00  0.00    +0.000 HD
ATOM     41  H   UNL     1       6.667   3.222  18.352  0.00  0.00    +0.000 HD
ENDBRANCH  38  39
ENDBRANCH  37  38
ENDBRANCH  36  37
ENDBRANCH  34  36
ENDBRANCH  33  34
ENDBRANCH  32  33
ENDBRANCH  31  32
ENDBRANCH  30  31
ENDBRANCH  28  30
ENDBRANCH  27  28
ENDBRANCH  26  27
ENDBRANCH  25  26
ENDBRANCH   7  25
TORSDOF 13
ENDMDL
MODEL 4
REMARK VINA RESULT:      -6.0      4.468      7.021
REMARK  Name = 
REMARK  16 active torsions:
REMARK  status: ('A' for Active; 'I' for Inactive)
REMARK    1  A    between atoms: C_1  and  C_2
REMARK    2  A    between atoms: C_4  and  C_5
REMARK    3  A    between atoms: N_7  and  C_8
REMARK    4  A    between atoms: C_8  and  C_9
REMARK    5  A    between atoms: C_9  and  C_10
REMARK    6  A    between atoms: C_10  and  N_11
REMARK    7  A    between atoms: N_11  and  C_12
REMARK    8  A    between atoms: C_12  and  C_13
REMARK    9  A    between atoms: C_13  and  C_14
REMARK   10  A    between atoms: C_14  and  C_15
REMARK   11  A    between atoms: C_15  and  N_16
REMARK   12  A    between atoms: N_16  and  C_17
REMARK   13  A    between atoms: C_17  and  C_18
REMARK   14  A    between atoms: C_18  and  C_19
REMARK   15  A    between atoms: C_19  and  N_20
REMARK   16  A    between atoms: N_29  and  C_30
REMARK                            x       y       z     vdW  Elec       q    Type
REMARK                         _______ _______ _______ _____ _____    ______ ____
ROOT
ATOM      1  C   UNL     1      -0.287  16.347  21.296  0.00  0.00    +0.000 C 
ATOM      2  C   UNL     1       0.462  15.305  20.447  0.00  0.00    +0.000 C 
ATOM      3  C   UNL     1      -0.144  13.847  20.691  0.00  0.00    +0.000 C 
ATOM      4  C   UNL     1       0.292  12.842  19.537  0.00  0.00    +0.000 C 
ATOM      5  C   UNL     1      -0.488  13.452  18.350  0.00  0.00    +0.000 C 
ATOM      6  C   UNL     1       0.396  11.401  18.784  0.00  0.00    +0.000 C 
ATOM      7  N   UNL     1       1.568  10.671  18.395  0.00  0.00    +0.000 N 
ATOM      8  N   UNL     1      -0.670  10.772  19.042  0.00  0.00    +0.000 NA
ATOM      9  C   UNL     1      -0.390  10.321  20.319  0.00  0.00    +0.000 A 
ATOM     10  C   UNL     1      -0.923   9.081  20.602  0.00  0.00    +0.000 A 
ATOM     11  C   UNL     1      -0.407   8.391  21.685  0.00  0.00    +0.000 A 
ATOM     12  C   UNL     1       0.459   9.055  22.519  0.00  0.00    +0.000 A 
ATOM     13  C   UNL     1       0.979  10.384  22.292  0.00  0.00    +0.000 A 
ATOM     14  C   UNL     1       0.673  11.005  21.077  0.00  0.00    +0.000 A 
ATOM     15  C   UNL     1       1.486  12.542  20.387  0.00  0.00    +0.000 C 
ATOM     16  N   UNL     1       2.568  13.198  19.405  0.00  0.00    +0.000 N 
ATOM     17  C   UNL     1       2.352  13.427  17.916  0.00  0.00    +0.000 C 
ATOM     18  C   UNL     1       2.904  14.572  19.816  0.00  0.00    +0.000 A 
ATOM     19  C   UNL     1       4.164  15.074  19.366  0.00  0.00    +0.000 A 
ATOM     20  C   UNL     1       4.605  16.376  19.635  0.00  0.00    +0.000 A 
ATOM     21  C   UNL     1       3.814  17.200  20.411  0.00  0.00    +0.000 A 
ATOM     22  C   UNL     1       2.536  16.765  20.784  0.00  0.00    +0.000 A 
ATOM     23  C   UNL     1       2.011  15.484  20.439  0.00  0.00    +0.000 A 
ATOM     24  H   UNL     1       2.323  10.680  19.082  0.00  0.00    +0.000 HD
ENDROOT
BRANCH   7  25
ATOM     25  C   UNL     1       1.374   9.278  17.888  0.00  0.00    +0.000 C 
BRANCH  25  26
ATOM     26  C   UNL     1       2.506   8.318  18.180  0.00  0.00    +0.000 C 
BRANCH  26  27
ATOM     27  C   UNL     1       2.125   7.408  19.334  0.00  0.00    +0.000 C 
BRANCH  27  28
ATOM     28  N   UNL     1       2.890   6.170  19.378  0.00  0.00    +0.000 NA
ATOM     29  H   UNL     1       3.889   6.377  19.388  0.00  0.00    +0.000 HD
BRANCH  28  30
ATOM     30  C   UNL     1       2.529   5.370  20.534  0.00  0.00    +0.000 C 
BRANCH  30  31
ATOM     31  C   UNL     1       1.191   4.740  20.231  0.00  0.00    +0.000 C 
BRANCH  31  32
ATOM     32  C   UNL     1       1.324   3.229  20.183  0.00  0.00    +0.000 C 
BRANCH  32  33
ATOM     33  C   UNL     1       0.858   2.767  18.818  0.00  0.00    +0.000 C 
BRANCH  33  34
ATOM     34  N   UNL     1       1.753   3.303  17.806  0.00  0.00    +0.000 NA
ATOM     35  H   UNL     1       2.059   4.237  18.081  0.00  0.00    +0.000 HD
BRANCH  34  36
ATOM     36  C   UNL     1       2.907   2.424  17.669  0.00  0.00    +0.000 C 
BRANCH  36  37
ATOM     37  C   UNL     1       4.154   3.156  18.144  0.00  0.00    +0.000 C 
BRANCH  37  38
ATOM     38  C   UNL     1       4.688   4.029  17.016  0.00  0.00    +0.000 C 
BRANCH  38  39
ATOM     39  N   UNL     1       5.638   3.282  16.202  0.00  0.00    +0.000 NA
ATOM     40  H   UNL     1       5.614   3.630  15.244  0.00  0.00    +0.000 HD
ATOM     41  H   UNL     1       5.352   2.304  16.158  0.00  0.00    +0.000 HD
ENDBRANCH  38  39
ENDBRANCH  37  38
ENDBRANCH  36  37
ENDBRANCH  34  36
ENDBRANCH  33  34
ENDBRANCH  32  33
ENDBRANCH  31  32
ENDBRANCH  30  31
ENDBRANCH  28  30
ENDBRANCH  27  28
ENDBRANCH  26  27
ENDBRANCH  25  26
ENDBRANCH   7  25
TORSDOF 13
ENDMDL
MODEL 5
REMARK VINA RESULT:      -6.0      4.269      7.430
REMARK  Name = 
REMARK  16 active torsions:
REMARK  status: ('A' for Active; 'I' for Inactive)
REMARK    1  A    between atoms: C_1  and  C_2
REMARK    2  A    between atoms: C_4  and  C_5
REMARK    3  A    between atoms: N_7  and  C_8
REMARK    4  A    between atoms: C_8  and  C_9
REMARK    5  A    between atoms: C_9  and  C_10
REMARK    6  A    between atoms: C_10  and  N_11
REMARK    7  A    between atoms: N_11  and  C_12
REMARK    8  A    between atoms: C_12  and  C_13
REMARK    9  A    between atoms: C_13  and  C_14
REMARK   10  A    between atoms: C_14  and  C_15
REMARK   11  A    between atoms: C_15  and  N_16
REMARK   12  A    between atoms: N_16  and  C_17
REMARK   13  A    between atoms: C_17  and  C_18
REMARK   14  A    between atoms: C_18  and  C_19
REMARK   15  A    between atoms: C_19  and  N_20
REMARK   16  A    between atoms: N_29  and  C_30
REMARK                            x       y       z     vdW  Elec       q    Type
REMARK                         _______ _______ _______ _____ _____    ______ ____
ROOT
ATOM      1  C   UNL     1      -2.541  16.685  20.189  0.00  0.00    +0.000 C 
ATOM      2  C   UNL     1      -2.265  15.406  20.998  0.00  0.00    +0.000 C 
ATOM      3  C   UNL     1      -1.317  14.418  20.174  0.00  0.00    +0.000 C 
ATOM      4  C   UNL     1      -0.667  13.318  21.123  0.00  0.00    +0.000 C 
ATOM      5  C   UNL     1       0.262  14.219  21.969  0.00  0.00    +0.000 C 
ATOM      6  C   UNL     1       0.221  11.999  21.474  0.00  0.00    +0.000 C 
ATOM      7  N   UNL     1      -0.183  10.794  22.140  0.00  0.00    +0.000 N 
ATOM      8  N   UNL     1       1.170  11.959  20.640  0.00  0.00    +0.000 NA
ATOM      9  C   UNL     1       0.515  11.439  19.540  0.00  0.00    +0.000 A 
ATOM     10  C   UNL     1       1.296  10.609  18.766  0.00  0.00    +0.000 A 
ATOM     11  C   UNL     1       0.654   9.764  17.878  0.00  0.00    +0.000 A 
ATOM     12  C   UNL     1      -0.694   9.937  17.683  0.00  0.00    +0.000 A 
ATOM     13  C   UNL     1      -1.531  10.852  18.425  0.00  0.00    +0.000 A 
ATOM     14  C   UNL     1      -0.956  11.535  19.502  0.00  0.00    +0.000 A 
ATOM     15  C   UNL     1      -1.875  12.490  20.822  0.00  0.00    +0.000 C 
ATOM     16  N   UNL     1      -2.492  12.540  22.299  0.00  0.00    +0.000 N 
ATOM     17  C   UNL     1      -1.689  12.832  23.558  0.00  0.00    +0.000 C 
ATOM     18  C   UNL     1      -3.520  13.587  22.417  0.00  0.00    +0.000 A 
ATOM     19  C   UNL     1      -4.472  13.420  23.471  0.00  0.00    +0.000 A 
ATOM     20  C   UNL     1      -5.481  14.353  23.741  0.00  0.00    +0.000 A 
ATOM     21  C   UNL     1      -5.598  15.461  22.924  0.00  0.00    +0.000 A 
ATOM     22  C   UNL     1      -4.623  15.695  21.946  0.00  0.00    +0.000 A 
ATOM     23  C   UNL     1      -3.521  14.820  21.712  0.00  0.00    +0.000 A 
ATOM     24  H   UNL     1      -1.103  10.445  21.867  0.00  0.00    +0.000 HD
ENDROOT
BRANCH   7  25
ATOM     25  C   UNL     1       0.792   9.660  22.161  0.00  0.00    +0.000 C 
BRANCH  25  26
ATOM     26  C   UNL     1       0.350   8.411  21.431  0.00  0.00    +0.000 C 
BRANCH  26  27
ATOM     27  C   UNL     1       1.508   7.846  20.629  0.00  0.00    +0.000 C 
BRANCH  27  28
ATOM     28  N   UNL     1       1.817   6.459  20.947  0.00  0.00    +0.000 NA
ATOM     29  H   UNL     1       0.999   6.003  21.353  0.00  0.00    +0.000 HD
BRANCH  28  30
ATOM     30  C   UNL     1       2.266   5.737  19.771  0.00  0.00    +0.000 C 
BRANCH  30  31
ATOM     31  C   UNL     1       2.181   4.266  20.099  0.00  0.00    +0.000 C 
BRANCH  31  32
ATOM     32  C   UNL     1       2.342   3.439  18.837  0.00  0.00    +0.000 C 
BRANCH  32  33
ATOM     33  C   UNL     1       2.815   4.363  17.735  0.00  0.00    +0.000 C 
BRANCH  33  34
ATOM     34  N   UNL     1       4.254   4.218  17.581  0.00  0.00    +0.000 NA
ATOM     35  H   UNL     1       4.463   3.307  17.173  0.00  0.00    +0.000 HD
BRANCH  34  36
ATOM     36  C   UNL     1       4.753   5.275  16.711  0.00  0.00    +0.000 C 
BRANCH  36  37
ATOM     37  C   UNL     1       5.846   6.047  17.437  0.00  0.00    +0.000 C 
BRANCH  37  38
ATOM     38  C   UNL     1       6.356   5.219  18.609  0.00  0.00    +0.000 C 
BRANCH  38  39
ATOM     39  N   UNL     1       7.425   4.327  18.175  0.00  0.00    +0.000 NA
ATOM     40  H   UNL     1       8.023   4.103  18.970  0.00  0.00    +0.000 HD
ATOM     41  H   UNL     1       8.016   4.811  17.499  0.00  0.00    +0.000 HD
ENDBRANCH  38  39
ENDBRANCH  37  38
ENDBRANCH  36  37
ENDBRANCH  34  36
ENDBRANCH  33  34
ENDBRANCH  32  33
ENDBRANCH  31  32
ENDBRANCH  30  31
ENDBRANCH  28  30
ENDBRANCH  27  28
ENDBRANCH  26  27
ENDBRANCH  25  26
ENDBRANCH   7  25
TORSDOF 13
ENDMDL
MODEL 6
REMARK VINA RESULT:      -5.9      4.184      7.078
REMARK  Name = 
REMARK  16 active torsions:
REMARK  status: ('A' for Active; 'I' for Inactive)
REMARK    1  A    between atoms: C_1  and  C_2
REMARK    2  A    between atoms: C_4  and  C_5
REMARK    3  A    between atoms: N_7  and  C_8
REMARK    4  A    between atoms: C_8  and  C_9
REMARK    5  A    between atoms: C_9  and  C_10
REMARK    6  A    between atoms: C_10  and  N_11
REMARK    7  A    between atoms: N_11  and  C_12
REMARK    8  A    between atoms: C_12  and  C_13
REMARK    9  A    between atoms: C_13  and  C_14
REMARK   10  A    between atoms: C_14  and  C_15
REMARK   11  A    between atoms: C_15  and  N_16
REMARK   12  A    between atoms: N_16  and  C_17
REMARK   13  A    between atoms: C_17  and  C_18
REMARK   14  A    between atoms: C_18  and  C_19
REMARK   15  A    between atoms: C_19  and  N_20
REMARK   16  A    between atoms: N_29  and  C_30
REMARK                            x       y       z     vdW  Elec       q    Type
REMARK                         _______ _______ _______ _____ _____    ______ ____
ROOT
ATOM      1  C   UNL     1      -1.811  17.264  19.929  0.00  0.00    +0.000 C 
ATOM      2  C   UNL     1      -1.688  15.997  20.794  0.00  0.00    +0.000 C 
ATOM      3  C   UNL     1      -1.003  14.818  19.961  0.00  0.00    +0.000 C 
ATOM      4  C   UNL     1      -0.470  13.668  20.923  0.00  0.00    +0.000 C 
ATOM      5  C   UNL     1       0.673  14.430  21.632  0.00  0.00    +0.000 C 
ATOM      6  C   UNL     1       0.206  12.230  21.286  0.00  0.00    +0.000 C 
ATOM      7  N   UNL     1      -0.339  11.150  22.057  0.00  0.00    +0.000 N 
ATOM      8  N   UNL     1       1.055  11.983  20.383  0.00  0.00    +0.000 NA
ATOM      9  C   UNL     1       0.223  11.534  19.374  0.00  0.00    +0.000 A 
ATOM     10  C   UNL     1       0.776  10.541  18.594  0.00  0.00    +0.000 A 
ATOM     11  C   UNL     1      -0.080   9.781  17.816  0.00  0.00    +0.000 A 
ATOM     12  C   UNL     1      -1.390  10.180  17.720  0.00  0.00    +0.000 A 
ATOM     13  C   UNL     1      -1.986  11.265  18.466  0.00  0.00    +0.000 A 
ATOM     14  C   UNL     1      -1.207  11.887  19.448  0.00  0.00    +0.000 A 
ATOM     15  C   UNL     1      -1.825  13.053  20.774  0.00  0.00    +0.000 C 
ATOM     16  N   UNL     1      -2.288  13.284  22.289  0.00  0.00    +0.000 N 
ATOM     17  C   UNL     1      -1.336  13.490  23.458  0.00  0.00    +0.000 C 
ATOM     18  C   UNL     1      -3.105  14.501  22.422  0.00  0.00    +0.000 A 
ATOM     19  C   UNL     1      -3.972  14.557  23.557  0.00  0.00    +0.000 A 
ATOM     20  C   UNL     1      -4.777  15.667  23.847  0.00  0.00    +0.000 A 
ATOM     21  C   UNL     1      -4.774  16.737  22.973  0.00  0.00    +0.000 A 
ATOM     22  C   UNL     1      -3.866  16.746  21.907  0.00  0.00    +0.000 A 
ATOM     23  C   UNL     1      -2.957  15.679  21.642  0.00  0.00    +0.000 A 
ATOM     24  H   UNL     1      -1.326  10.957  21.882  0.00  0.00    +0.000 HD
ENDROOT
BRANCH   7  25
ATOM     25  C   UNL     1       0.424   9.864  22.072  0.00  0.00    +0.000 C 
BRANCH  25  26
ATOM     26  C   UNL     1      -0.330   8.657  21.561  0.00  0.00    +0.000 C 
BRANCH  26  27
ATOM     27  C   UNL     1       0.620   7.483  21.405  0.00  0.00    +0.000 C 
BRANCH  27  28
ATOM     28  N   UNL     1       1.961   7.869  20.989  0.00  0.00    +0.000 NA
ATOM     29  H   UNL     1       2.654   7.438  21.601  0.00  0.00    +0.000 HD
BRANCH  28  30
ATOM     30  C   UNL     1       2.209   7.502  19.607  0.00  0.00    +0.000 C 
BRANCH  30  31
ATOM     31  C   UNL     1       2.482   6.018  19.589  0.00  0.00    +0.000 C 
BRANCH  31  32
ATOM     32  C   UNL     1       3.823   5.741  18.934  0.00  0.00    +0.000 C 
BRANCH  32  33
ATOM     33  C   UNL     1       4.331   4.415  19.459  0.00  0.00    +0.000 C 
BRANCH  33  34
ATOM     34  N   UNL     1       4.826   3.623  18.345  0.00  0.00    +0.000 NA
ATOM     35  H   UNL     1       5.489   2.928  18.689  0.00  0.00    +0.000 HD
BRANCH  34  36
ATOM     36  C   UNL     1       3.707   2.959  17.692  0.00  0.00    +0.000 C 
BRANCH  36  37
ATOM     37  C   UNL     1       3.081   1.962  18.657  0.00  0.00    +0.000 C 
BRANCH  37  38
ATOM     38  C   UNL     1       1.582   2.217  18.745  0.00  0.00    +0.000 C 
BRANCH  38  39
ATOM     39  N   UNL     1       1.218   2.655  20.087  0.00  0.00    +0.000 NA
ATOM     40  H   UNL     1       2.054   2.694  20.670  0.00  0.00    +0.000 HD
ATOM     41  H   UNL     1       0.604   1.963  20.514  0.00  0.00    +0.000 HD
ENDBRANCH  38  39
ENDBRANCH  37  38
ENDBRANCH  36  37
ENDBRANCH  34  36
ENDBRANCH  33  34
ENDBRANCH  32  33
ENDBRANCH  31  32
ENDBRANCH  30  31
ENDBRANCH  28  30
ENDBRANCH  27  28
ENDBRANCH  26  27
ENDBRANCH  25  26
ENDBRANCH   7  25
TORSDOF 13
ENDMDL
MODEL 7
REMARK VINA RESULT:      -5.8      4.025      6.759
REMARK  Name = 
REMARK  16 active torsions:
REMARK  status: ('A' for Active; 'I' for Inactive)
REMARK    1  A    between atoms: C_1  and  C_2
REMARK    2  A    between atoms: C_4  and  C_5
REMARK    3  A    between atoms: N_7  and  C_8
REMARK    4  A    between atoms: C_8  and  C_9
REMARK    5  A    between atoms: C_9  and  C_10
REMARK    6  A    between atoms: C_10  and  N_11
REMARK    7  A    between atoms: N_11  and  C_12
REMARK    8  A    between atoms: C_12  and  C_13
REMARK    9  A    between atoms: C_13  and  C_14
REMARK   10  A    between atoms: C_14  and  C_15
REMARK   11  A    between atoms: C_15  and  N_16
REMARK   12  A    between atoms: N_16  and  C_17
REMARK   13  A    between atoms: C_17  and  C_18
REMARK   14  A    between atoms: C_18  and  C_19
REMARK   15  A    between atoms: C_19  and  N_20
REMARK   16  A    between atoms: N_29  and  C_30
REMARK                            x       y       z     vdW  Elec       q    Type
REMARK                         _______ _______ _______ _____ _____    ______ ____
ROOT
ATOM      1  C   UNL     1      -0.193  17.007  17.843  0.00  0.00    +0.000 C 
ATOM      2  C   UNL     1       0.280  15.740  18.576  0.00  0.00    +0.000 C 
ATOM      3  C   UNL     1      -0.849  15.222  19.581  0.00  0.00    +0.000 C 
ATOM      4  C   UNL     1      -0.586  13.713  20.015  0.00  0.00    +0.000 C 
ATOM      5  C   UNL     1      -0.836  13.005  18.664  0.00  0.00    +0.000 C 
ATOM      6  C   UNL     1      -0.864  12.335  20.838  0.00  0.00    +0.000 C 
ATOM      7  N   UNL     1       0.017  11.618  21.715  0.00  0.00    +0.000 N 
ATOM      8  N   UNL     1      -2.113  12.253  21.009  0.00  0.00    +0.000 NA
ATOM      9  C   UNL     1      -2.278  13.125  22.069  0.00  0.00    +0.000 A 
ATOM     10  C   UNL     1      -3.269  12.751  22.951  0.00  0.00    +0.000 A 
ATOM     11  C   UNL     1      -3.267  13.332  24.207  0.00  0.00    +0.000 A 
ATOM     12  C   UNL     1      -2.405  14.377  24.432  0.00  0.00    +0.000 A 
ATOM     13  C   UNL     1      -1.404  14.845  23.501  0.00  0.00    +0.000 A 
ATOM     14  C   UNL     1      -1.214  14.112  22.325  0.00  0.00    +0.000 A 
ATOM     15  C   UNL     1       0.222  14.283  21.137  0.00  0.00    +0.000 C 
ATOM     16  N   UNL     1       1.641  13.754  20.617  0.00  0.00    +0.000 N 
ATOM     17  C   UNL     1       1.826  12.586  19.659  0.00  0.00    +0.000 C 
ATOM     18  C   UNL     1       2.363  14.798  19.870  0.00  0.00    +0.000 A 
ATOM     19  C   UNL     1       3.782  14.648  19.790  0.00  0.00    +0.000 A 
ATOM     20  C   UNL     1       4.603  15.532  19.078  0.00  0.00    +0.000 A 
ATOM     21  C   UNL     1       4.025  16.627  18.464  0.00  0.00    +0.000 A 
ATOM     22  C   UNL     1       2.630  16.744  18.448  0.00  0.00    +0.000 A 
ATOM     23  C   UNL     1       1.756  15.806  19.074  0.00  0.00    +0.000 A 
ATOM     24  H   UNL     1       0.569  12.208  22.339  0.00  0.00    +0.000 HD
ENDROOT
BRANCH   7  25
ATOM     25  C   UNL     1      -0.565  10.481  22.492  0.00  0.00    +0.000 C 
BRANCH  25  26
ATOM     26  C   UNL     1       0.281   9.227  22.536  0.00  0.00    +0.000 C 
BRANCH  26  27
ATOM     27  C   UNL     1       0.176   8.487  21.215  0.00  0.00    +0.000 C 
BRANCH  27  28
ATOM     28  N   UNL     1       1.179   8.890  20.239  0.00  0.00    +0.000 NA
ATOM     29  H   UNL     1       1.734   9.662  20.607  0.00  0.00    +0.000 HD
BRANCH  28  30
ATOM     30  C   UNL     1       2.037   7.777  19.877  0.00  0.00    +0.000 C 
BRANCH  30  31
ATOM     31  C   UNL     1       1.982   7.649  18.374  0.00  0.00    +0.000 C 
BRANCH  31  32
ATOM     32  C   UNL     1       3.382   7.713  17.792  0.00  0.00    +0.000 C 
BRANCH  32  33
ATOM     33  C   UNL     1       3.997   6.335  17.914  0.00  0.00    +0.000 C 
BRANCH  33  34
ATOM     34  N   UNL     1       5.110   6.230  16.983  0.00  0.00    +0.000 NA
ATOM     35  H   UNL     1       4.787   6.446  16.040  0.00  0.00    +0.000 HD
BRANCH  34  36
ATOM     36  C   UNL     1       6.154   7.167  17.375  0.00  0.00    +0.000 C 
BRANCH  36  37
ATOM     37  C   UNL     1       7.432   6.396  17.676  0.00  0.00    +0.000 C 
BRANCH  37  38
ATOM     38  C   UNL     1       7.197   4.912  17.427  0.00  0.00    +0.000 C 
BRANCH  38  39
ATOM     39  N   UNL     1       7.641   4.546  16.087  0.00  0.00    +0.000 NA
ATOM     40  H   UNL     1       7.089   3.756  15.751  0.00  0.00    +0.000 HD
ATOM     41  H   UNL     1       8.607   4.223  16.127  0.00  0.00    +0.000 HD
ENDBRANCH  38  39
ENDBRANCH  37  38
ENDBRANCH  36  37
ENDBRANCH  34  36
ENDBRANCH  33  34
ENDBRANCH  32  33
ENDBRANCH  31  32
ENDBRANCH  30  31
ENDBRANCH  28  30
ENDBRANCH  27  28
ENDBRANCH  26  27
ENDBRANCH  25  26
ENDBRANCH   7  25
TORSDOF 13
ENDMDL
MODEL 8
REMARK VINA RESULT:      -5.8      3.992      6.654
REMARK  Name = 
REMARK  16 active torsions:
REMARK  status: ('A' for Active; 'I' for Inactive)
REMARK    1  A    between atoms: C_1  and  C_2
REMARK    2  A    between atoms: C_4  and  C_5
REMARK    3  A    between atoms: N_7  and  C_8
REMARK    4  A    between atoms: C_8  and  C_9
REMARK    5  A    between atoms: C_9  and  C_10
REMARK    6  A    between atoms: C_10  and  N_11
REMARK    7  A    between atoms: N_11  and  C_12
REMARK    8  A    between atoms: C_12  and  C_13
REMARK    9  A    between atoms: C_13  and  C_14
REMARK   10  A    between atoms: C_14  and  C_15
REMARK   11  A    between atoms: C_15  and  N_16
REMARK   12  A    between atoms: N_16  and  C_17
REMARK   13  A    between atoms: C_17  and  C_18
REMARK   14  A    between atoms: C_18  and  C_19
REMARK   15  A    between atoms: C_19  and  N_20
REMARK   16  A    between atoms: N_29  and  C_30
REMARK                            x       y       z     vdW  Elec       q    Type
REMARK                         _______ _______ _______ _____ _____    ______ ____
ROOT
ATOM      1  C   UNL     1      -0.207  17.117  18.242  0.00  0.00    +0.000 C 
ATOM      2  C   UNL     1      -0.146  15.923  19.209  0.00  0.00    +0.000 C 
ATOM      3  C   UNL     1      -0.573  14.577  18.461  0.00  0.00    +0.000 C 
ATOM      4  C   UNL     1      -0.110  13.292  19.279  0.00  0.00    +0.000 C 
ATOM      5  C   UNL     1       1.422  13.419  19.121  0.00  0.00    +0.000 C 
ATOM      6  C   UNL     1       0.012  11.699  19.596  0.00  0.00    +0.000 C 
ATOM      7  N   UNL     1      -0.394  10.982  20.771  0.00  0.00    +0.000 N 
ATOM      8  N   UNL     1       0.039  11.102  18.482  0.00  0.00    +0.000 NA
ATOM      9  C   UNL     1      -1.306  11.112  18.161  0.00  0.00    +0.000 A 
ATOM     10  C   UNL     1      -1.725   9.991  17.476  0.00  0.00    +0.000 A 
ATOM     11  C   UNL     1      -3.084   9.734  17.435  0.00  0.00    +0.000 A 
ATOM     12  C   UNL     1      -3.939  10.700  17.905  0.00  0.00    +0.000 A 
ATOM     13  C   UNL     1      -3.533  11.923  18.561  0.00  0.00    +0.000 A 
ATOM     14  C   UNL     1      -2.173  12.089  18.844  0.00  0.00    +0.000 A 
ATOM     15  C   UNL     1      -1.431  13.383  19.974  0.00  0.00    +0.000 C 
ATOM     16  N   UNL     1      -0.845  13.773  21.412  0.00  0.00    +0.000 N 
ATOM     17  C   UNL     1       0.579  13.489  21.867  0.00  0.00    +0.000 C 
ATOM     18  C   UNL     1      -0.885  15.229  21.632  0.00  0.00    +0.000 A 
ATOM     19  C   UNL     1      -0.874  15.660  22.995  0.00  0.00    +0.000 A 
ATOM     20  C   UNL     1      -0.862  17.011  23.366  0.00  0.00    +0.000 A 
ATOM     21  C   UNL     1      -0.915  17.973  22.376  0.00  0.00    +0.000 A 
ATOM     22  C   UNL     1      -0.831  17.579  21.035  0.00  0.00    +0.000 A 
ATOM     23  C   UNL     1      -0.736  16.216  20.622  0.00  0.00    +0.000 A 
ATOM     24  H   UNL     1      -1.291  11.275  21.159  0.00  0.00    +0.000 HD
ENDROOT
BRANCH   7  25
ATOM     25  C   UNL     1      -0.339   9.489  20.717  0.00  0.00    +0.000 C 
BRANCH  25  26
ATOM     26  C   UNL     1       0.910   8.865  21.301  0.00  0.00    +0.000 C 
BRANCH  26  27
ATOM     27  C   UNL     1       1.708   8.186  20.203  0.00  0.00    +0.000 C 
BRANCH  27  28
ATOM     28  N   UNL     1       2.080   9.078  19.114  0.00  0.00    +0.000 NA
ATOM     29  H   UNL     1       2.850   9.681  19.404  0.00  0.00    +0.000 HD
BRANCH  28  30
ATOM     30  C   UNL     1       2.444   8.331  17.923  0.00  0.00    +0.000 C 
BRANCH  30  31
ATOM     31  C   UNL     1       2.278   6.868  18.254  0.00  0.00    +0.000 C 
BRANCH  31  32
ATOM     32  C   UNL     1       3.457   6.075  17.724  0.00  0.00    +0.000 C 
BRANCH  32  33
ATOM     33  C   UNL     1       3.532   4.779  18.503  0.00  0.00    +0.000 C 
BRANCH  33  34
ATOM     34  N   UNL     1       2.669   3.795  17.870  0.00  0.00    +0.000 NA
ATOM     35  H   UNL     1       2.664   3.945  16.861  0.00  0.00    +0.000 HD
BRANCH  34  36
ATOM     36  C   UNL     1       3.163   2.458  18.169  0.00  0.00    +0.000 C 
BRANCH  36  37
ATOM     37  C   UNL     1       2.052   1.646  18.819  0.00  0.00    +0.000 C 
BRANCH  37  38
ATOM     38  C   UNL     1       0.799   2.505  18.931  0.00  0.00    +0.000 C 
BRANCH  38  39
ATOM     39  N   UNL     1       0.743   3.154  20.235  0.00  0.00    +0.000 NA
ATOM     40  H   UNL     1       0.551   4.148  20.112  0.00  0.00    +0.000 HD
ATOM     41  H   UNL     1       1.656   3.093  20.684  0.00  0.00    +0.000 HD
ENDBRANCH  38  39
ENDBRANCH  37  38
ENDBRANCH  36  37
ENDBRANCH  34  36
ENDBRANCH  33  34
ENDBRANCH  32  33
ENDBRANCH  31  32
ENDBRANCH  30  31
ENDBRANCH  28  30
ENDBRANCH  27  28
ENDBRANCH  26  27
ENDBRANCH  25  26
ENDBRANCH   7  25
TORSDOF 13
ENDMDL
MODEL 9
REMARK VINA RESULT:      -5.8      3.622      7.340
REMARK  Name = 
REMARK  16 active torsions:
REMARK  status: ('A' for Active; 'I' for Inactive)
REMARK    1  A    between atoms: C_1  and  C_2
REMARK    2  A    between atoms: C_4  and  C_5
REMARK    3  A    between atoms: N_7  and  C_8
REMARK    4  A    between atoms: C_8  and  C_9
REMARK    5  A    between atoms: C_9  and  C_10
REMARK    6  A    between atoms: C_10  and  N_11
REMARK    7  A    between atoms: N_11  and  C_12
REMARK    8  A    between atoms: C_12  and  C_13
REMARK    9  A    between atoms: C_13  and  C_14
REMARK   10  A    between atoms: C_14  and  C_15
REMARK   11  A    between atoms: C_15  and  N_16
REMARK   12  A    between atoms: N_16  and  C_17
REMARK   13  A    between atoms: C_17  and  C_18
REMARK   14  A    between atoms: C_18  and  C_19
REMARK   15  A    between atoms: C_19  and  N_20
REMARK   16  A    between atoms: N_29  and  C_30
REMARK                            x       y       z     vdW  Elec       q    Type
REMARK                         _______ _______ _______ _____ _____    ______ ____
ROOT
ATOM      1  C   UNL     1      -2.966  15.151  25.288  0.00  0.00    +0.000 C 
ATOM      2  C   UNL     1      -3.246  14.519  23.914  0.00  0.00    +0.000 C 
ATOM      3  C   UNL     1      -1.894  14.395  23.071  0.00  0.00    +0.000 C 
ATOM      4  C   UNL     1      -2.060  13.373  21.863  0.00  0.00    +0.000 C 
ATOM      5  C   UNL     1      -2.212  12.054  22.654  0.00  0.00    +0.000 C 
ATOM      6  C   UNL     1      -1.596  12.567  20.525  0.00  0.00    +0.000 C 
ATOM      7  N   UNL     1      -2.213  12.542  19.230  0.00  0.00    +0.000 N 
ATOM      8  N   UNL     1      -0.350  12.376  20.623  0.00  0.00    +0.000 NA
ATOM      9  C   UNL     1       0.123  13.621  20.250  0.00  0.00    +0.000 A 
ATOM     10  C   UNL     1       1.312  13.579  19.552  0.00  0.00    +0.000 A 
ATOM     11  C   UNL     1       1.672  14.702  18.828  0.00  0.00    +0.000 A 
ATOM     12  C   UNL     1       0.932  15.845  18.999  0.00  0.00    +0.000 A 
ATOM     13  C   UNL     1      -0.278  15.943  19.784  0.00  0.00    +0.000 A 
ATOM     14  C   UNL     1      -0.805  14.764  20.319  0.00  0.00    +0.000 A 
ATOM     15  C   UNL     1      -2.510  14.552  21.060  0.00  0.00    +0.000 C 
ATOM     16  N   UNL     1      -4.030  14.077  20.889  0.00  0.00    +0.000 N 
ATOM     17  C   UNL     1      -4.500  12.635  21.018  0.00  0.00    +0.000 C 
ATOM     18  C   UNL     1      -4.907  14.710  21.888  0.00  0.00    +0.000 A 
ATOM     19  C   UNL     1      -6.295  14.777  21.555  0.00  0.00    +0.000 A 
ATOM     20  C   UNL     1      -7.261  15.307  22.420  0.00  0.00    +0.000 A 
ATOM     21  C   UNL     1      -6.853  15.836  23.629  0.00  0.00    +0.000 A 
ATOM     22  C   UNL     1      -5.515  15.697  24.019  0.00  0.00    +0.000 A 
ATOM     23  C   UNL     1      -4.523  15.068  23.208  0.00  0.00    +0.000 A 
ATOM     24  H   UNL     1      -2.556  13.446  18.905  0.00  0.00    +0.000 HD
ENDROOT
BRANCH   7  25
ATOM     25  C   UNL     1      -1.465  11.867  18.126  0.00  0.00    +0.000 C 
BRANCH  25  26
ATOM     26  C   UNL     1      -1.367  10.361  18.235  0.00  0.00    +0.000 C 
BRANCH  26  27
ATOM     27  C   UNL     1       0.051   9.914  17.930  0.00  0.00    +0.000 C 
BRANCH  27  28
ATOM     28  N   UNL     1       0.934   9.940  19.087  0.00  0.00    +0.000 NA
ATOM     29  H   UNL     1       0.404  10.180  19.925  0.00  0.00    +0.000 HD
BRANCH  28  30
ATOM     30  C   UNL     1       1.608   8.666  19.263  0.00  0.00    +0.000 C 
BRANCH  30  31
ATOM     31  C   UNL     1       2.047   8.209  17.893  0.00  0.00    +0.000 C 
BRANCH  31  32
ATOM     32  C   UNL     1       3.184   7.212  18.015  0.00  0.00    +0.000 C 
BRANCH  32  33
ATOM     33  C   UNL     1       2.801   6.198  19.073  0.00  0.00    +0.000 C 
BRANCH  33  34
ATOM     34  N   UNL     1       2.177   5.054  18.428  0.00  0.00    +0.000 NA
ATOM     35  H   UNL     1       2.898   4.455  18.025  0.00  0.00    +0.000 HD
BRANCH  34  36
ATOM     36  C   UNL     1       1.408   4.307  19.414  0.00  0.00    +0.000 C 
BRANCH  36  37
ATOM     37  C   UNL     1       2.167   3.042  19.789  0.00  0.00    +0.000 C 
BRANCH  37  38
ATOM     38  C   UNL     1       2.573   3.112  21.255  0.00  0.00    +0.000 C 
BRANCH  38  39
ATOM     39  N   UNL     1       1.551   2.501  22.096  0.00  0.00    +0.000 NA
ATOM     40  H   UNL     1       1.169   1.681  21.625  0.00  0.00    +0.000 HD
ATOM     41  H   UNL     1       0.774   3.151  22.212  0.00  0.00    +0.000 HD
ENDBRANCH  38  39
ENDBRANCH  37  38
ENDBRANCH  36  37
ENDBRANCH  34  36
ENDBRANCH  33  34
ENDBRANCH  32  33
ENDBRANCH  31  32
ENDBRANCH  30  31
ENDBRANCH  28  30
ENDBRANCH  27  28
ENDBRANCH  26  27
ENDBRANCH  25  26
ENDBRANCH   7  25
TORSDOF 13
ENDMDL
