MODEL 1
REMARK VINA RESULT:      -7.6      0.000      0.000
REMARK  Name = 
REMARK  8 active torsions:
REMARK  status: ('A' for Active; 'I' for Inactive)
REMARK    1  A    between atoms: C_1  and  N_2
REMARK    2  A    between atoms: N_2  and  C_3
REMARK    3  A    between atoms: C_4  and  C_6
REMARK    4  A    between atoms: C_6  and  C_7
REMARK    5  A    between atoms: C_12  and  S_13
REMARK    6  A    between atoms: S_13  and  C_14
REMARK    7  A    between atoms: C_15  and  O_16
REMARK    8  A    between atoms: C_18  and  C_19
REMARK                            x       y       z     vdW  Elec       q    Type
REMARK                         _______ _______ _______ _____ _____    ______ ____
ROOT
ATOM      1  C   UNL     1      -0.257  11.209  18.886  0.00  0.00    +0.000 C 
ATOM      2  C   UNL     1      -0.550  12.228  19.713  0.00  0.00    +0.000 C 
ATOM      3  C   UNL     1      -1.947  12.669  20.058  0.00  0.00    +0.000 C 
ATOM      4  C   UNL     1      -3.020  12.151  19.082  0.00  0.00    +0.000 C 
ATOM      5  C   UNL     1      -2.785  10.707  18.642  0.00  0.00    +0.000 C 
ATOM      6  C   UNL     1      -1.365  10.479  18.180  0.00  0.00    +0.000 C 
ATOM      7  O   UNL     1      -1.136   9.656  17.290  0.00  0.00    +0.000 OA
ENDROOT
BRANCH   4   8
ATOM      8  C   UNL     1      -4.458  12.379  19.560  0.00  0.00    +0.000 A 
ATOM      9  C   UNL     1      -5.528  12.411  18.636  0.00  0.00    +0.000 A 
ATOM     10 CL   UNL     1      -5.314  12.160  16.934  0.00  0.00    +0.000 Cl
ATOM     11  C   UNL     1      -6.853  12.629  19.051  0.00  0.00    +0.000 A 
ATOM     12  C   UNL     1      -7.148  12.823  20.394  0.00  0.00    +0.000 A 
ATOM     13  C   UNL     1      -6.121  12.775  21.326  0.00  0.00    +0.000 A 
ATOM     14  C   UNL     1      -4.799  12.545  20.925  0.00  0.00    +0.000 A 
ATOM     15 CL   UNL     1      -3.656  12.443  22.223  0.00  0.00    +0.000 Cl
ENDBRANCH   4   8
BRANCH   2  16
ATOM     16  O   UNL     1       0.424  13.002  20.329  0.00  0.00    +0.000 OA
ATOM     17  H   UNL     1       0.695  13.706  19.710  0.00  0.00    +0.000 HD
ENDBRANCH   2  16
BRANCH   1  18
ATOM     18  S   UNL     1       1.357  10.740  18.473  0.00  0.00    +0.000 S 
BRANCH  18  24
ATOM     19  C   UNL     1       2.462   6.866  18.771  0.00  0.00    +0.000 A 
ATOM     20  C   UNL     1       2.115   6.466  20.060  0.00  0.00    +0.000 A 
ATOM     21  C   UNL     1       1.464   7.358  20.908  0.00  0.00    +0.000 A 
ATOM     22  C   UNL     1       1.173   8.667  20.493  0.00  0.00    +0.000 A 
ATOM     23 CL   UNL     1       0.205   9.569  21.600  0.00  0.00    +0.000 Cl
ATOM     24  C   UNL     1       1.605   9.131  19.239  0.00  0.00    +0.000 A 
ATOM     25  C   UNL     1       2.241   8.200  18.389  0.00  0.00    +0.000 A 
BRANCH  19  26
ATOM     26  C   UNL     1       3.033   5.865  17.791  0.00  0.00    +0.000 C 
BRANCH  26  30
ATOM     27  C   UNL     1       2.566   2.139  18.444  0.00  0.00    +0.000 C 
ATOM     28  N   UNL     1       3.157   3.464  18.384  0.00  0.00    +0.000 N 
ATOM     29  C   UNL     1       4.486   3.658  18.946  0.00  0.00    +0.000 C 
ATOM     30  C   UNL     1       2.385   4.488  17.832  0.00  0.00    +0.000 C 
ATOM     31  O   UNL     1       1.251   4.280  17.405  0.00  0.00    +0.000 OA
ENDBRANCH  26  30
ENDBRANCH  19  26
ENDBRANCH  18  24
ENDBRANCH   1  18
TORSDOF 6
ENDMDL
MODEL 2
REMARK VINA RESULT:      -7.6      0.571      2.337
REMARK  Name = 
REMARK  8 active torsions:
REMARK  status: ('A' for Active; 'I' for Inactive)
REMARK    1  A    between atoms: C_1  and  N_2
REMARK    2  A    between atoms: N_2  and  C_3
REMARK    3  A    between atoms: C_4  and  C_6
REMARK    4  A    between atoms: C_6  and  C_7
REMARK    5  A    between atoms: C_12  and  S_13
REMARK    6  A    between atoms: S_13  and  C_14
REMARK    7  A    between atoms: C_15  and  O_16
REMARK    8  A    between atoms: C_18  and  C_19
REMARK                            x       y       z     vdW  Elec       q    Type
REMARK                         _______ _______ _______ _____ _____    ______ ____
ROOT
ATOM      1  C   UNL     1      -0.280  11.140  18.596  0.00  0.00    +0.000 C 
ATOM      2  C   UNL     1      -1.173  10.427  17.889  0.00  0.00    +0.000 C 
ATOM      3  C   UNL     1      -2.658  10.669  17.902  0.00  0.00    +0.000 C 
ATOM      4  C   UNL     1      -3.138  11.515  19.095  0.00  0.00    +0.000 C 
ATOM      5  C   UNL     1      -2.196  12.669  19.432  0.00  0.00    +0.000 C 
ATOM      6  C   UNL     1      -0.757  12.216  19.531  0.00  0.00    +0.000 C 
ATOM      7  O   UNL     1       0.007  12.777  20.320  0.00  0.00    +0.000 OA
ENDROOT
BRANCH   4   8
ATOM      8  C   UNL     1      -4.595  11.977  18.984  0.00  0.00    +0.000 A 
ATOM      9  C   UNL     1      -5.299  12.423  20.127  0.00  0.00    +0.000 A 
ATOM     10 CL   UNL     1      -4.579  12.520  21.701  0.00  0.00    +0.000 Cl
ATOM     11  C   UNL     1      -6.638  12.841  20.049  0.00  0.00    +0.000 A 
ATOM     12  C   UNL     1      -7.314  12.825  18.836  0.00  0.00    +0.000 A 
ATOM     13  C   UNL     1      -6.641  12.414  17.693  0.00  0.00    +0.000 A 
ATOM     14  C   UNL     1      -5.301  12.008  17.757  0.00  0.00    +0.000 A 
ATOM     15 CL   UNL     1      -4.597  11.598  16.228  0.00  0.00    +0.000 Cl
ENDBRANCH   4   8
BRANCH   2  16
ATOM     16  O   UNL     1      -0.809   9.362  17.075  0.00  0.00    +0.000 OA
ATOM     17  H   UNL     1       0.147   9.202  17.184  0.00  0.00    +0.000 HD
ENDBRANCH   2  16
BRANCH   1  18
ATOM     18  S   UNL     1       1.422  10.824  18.597  0.00  0.00    +0.000 S 
BRANCH  18  24
ATOM     19  C   UNL     1       2.436   6.920  18.824  0.00  0.00    +0.000 A 
ATOM     20  C   UNL     1       2.037   6.493  20.090  0.00  0.00    +0.000 A 
ATOM     21  C   UNL     1       1.377   7.375  20.940  0.00  0.00    +0.000 A 
ATOM     22  C   UNL     1       1.126   8.701  20.552  0.00  0.00    +0.000 A 
ATOM     23 CL   UNL     1       0.141   9.594  21.650  0.00  0.00    +0.000 Cl
ATOM     24  C   UNL     1       1.610   9.190  19.327  0.00  0.00    +0.000 A 
ATOM     25  C   UNL     1       2.256   8.269  18.473  0.00  0.00    +0.000 A 
BRANCH  19  26
ATOM     26  C   UNL     1       3.020   5.935  17.837  0.00  0.00    +0.000 C 
BRANCH  26  30
ATOM     27  C   UNL     1       2.529   2.194  18.375  0.00  0.00    +0.000 C 
ATOM     28  N   UNL     1       3.129   3.516  18.353  0.00  0.00    +0.000 N 
ATOM     29  C   UNL     1       4.463   3.682  18.912  0.00  0.00    +0.000 C 
ATOM     30  C   UNL     1       2.361   4.561  17.838  0.00  0.00    +0.000 C 
ATOM     31  O   UNL     1       1.224   4.376  17.412  0.00  0.00    +0.000 OA
ENDBRANCH  26  30
ENDBRANCH  19  26
ENDBRANCH  18  24
ENDBRANCH   1  18
TORSDOF 6
ENDMDL
MODEL 3
REMARK VINA RESULT:      -7.5      0.216      1.693
REMARK  Name = 
REMARK  8 active torsions:
REMARK  status: ('A' for Active; 'I' for Inactive)
REMARK    1  A    between atoms: C_1  and  N_2
REMARK    2  A    between atoms: N_2  and  C_3
REMARK    3  A    between atoms: C_4  and  C_6
REMARK    4  A    between atoms: C_6  and  C_7
REMARK    5  A    between atoms: C_12  and  S_13
REMARK    6  A    between atoms: S_13  and  C_14
REMARK    7  A    between atoms: C_15  and  O_16
REMARK    8  A    between atoms: C_18  and  C_19
REMARK                            x       y       z     vdW  Elec       q    Type
REMARK                         _______ _______ _______ _____ _____    ______ ____
ROOT
ATOM      1  C   UNL     1      -0.393  11.320  18.932  0.00  0.00    +0.000 C 
ATOM      2  C   UNL     1      -0.754  12.325  19.748  0.00  0.00    +0.000 C 
ATOM      3  C   UNL     1      -2.177  12.715  20.042  0.00  0.00    +0.000 C 
ATOM      4  C   UNL     1      -3.194  12.160  19.027  0.00  0.00    +0.000 C 
ATOM      5  C   UNL     1      -2.892  10.727  18.595  0.00  0.00    +0.000 C 
ATOM      6  C   UNL     1      -1.448  10.551  18.185  0.00  0.00    +0.000 C 
ATOM      7  O   UNL     1      -1.157   9.739  17.303  0.00  0.00    +0.000 OA
ENDROOT
BRANCH   4   8
ATOM      8  C   UNL     1      -4.656  12.335  19.453  0.00  0.00    +0.000 A 
ATOM      9  C   UNL     1      -4.998  12.474  20.818  0.00  0.00    +0.000 A 
ATOM     10 CL   UNL     1      -3.818  12.499  22.088  0.00  0.00    +0.000 Cl
ATOM     11  C   UNL     1      -6.332  12.625  21.231  0.00  0.00    +0.000 A 
ATOM     12  C   UNL     1      -7.362  12.639  20.300  0.00  0.00    +0.000 A 
ATOM     13  C   UNL     1      -7.055  12.527  18.951  0.00  0.00    +0.000 A 
ATOM     14  C   UNL     1      -5.727  12.390  18.527  0.00  0.00    +0.000 A 
ATOM     15 CL   UNL     1      -5.518  12.337  16.808  0.00  0.00    +0.000 Cl
ENDBRANCH   4   8
BRANCH   2  16
ATOM     16  O   UNL     1       0.169  13.133  20.399  0.00  0.00    +0.000 OA
ATOM     17  H   UNL     1       0.905  13.318  19.785  0.00  0.00    +0.000 HD
ENDBRANCH   2  16
BRANCH   1  18
ATOM     18  S   UNL     1       1.250  10.910  18.577  0.00  0.00    +0.000 S 
BRANCH  18  24
ATOM     19  C   UNL     1       2.386   7.039  18.795  0.00  0.00    +0.000 A 
ATOM     20  C   UNL     1       2.049   6.613  20.079  0.00  0.00    +0.000 A 
ATOM     21  C   UNL     1       1.396   7.483  20.947  0.00  0.00    +0.000 A 
ATOM     22  C   UNL     1       1.092   8.798  20.559  0.00  0.00    +0.000 A 
ATOM     23 CL   UNL     1       0.124   9.671  21.687  0.00  0.00    +0.000 Cl
ATOM     24  C   UNL     1       1.514   9.289  19.311  0.00  0.00    +0.000 A 
ATOM     25  C   UNL     1       2.153   8.379  18.440  0.00  0.00    +0.000 A 
BRANCH  19  26
ATOM     26  C   UNL     1       2.960   6.063  17.794  0.00  0.00    +0.000 C 
BRANCH  26  30
ATOM     27  C   UNL     1       2.664   2.340  18.554  0.00  0.00    +0.000 C 
ATOM     28  N   UNL     1       3.190   3.690  18.463  0.00  0.00    +0.000 N 
ATOM     29  C   UNL     1       4.497   3.966  19.041  0.00  0.00    +0.000 C 
ATOM     30  C   UNL     1       2.379   4.657  17.867  0.00  0.00    +0.000 C 
ATOM     31  O   UNL     1       1.265   4.381  17.427  0.00  0.00    +0.000 OA
ENDBRANCH  26  30
ENDBRANCH  19  26
ENDBRANCH  18  24
ENDBRANCH   1  18
TORSDOF 6
ENDMDL
MODEL 4
REMARK VINA RESULT:      -7.4      0.522      1.648
REMARK  Name = 
REMARK  8 active torsions:
REMARK  status: ('A' for Active; 'I' for Inactive)
REMARK    1  A    between atoms: C_1  and  N_2
REMARK    2  A    between atoms: N_2  and  C_3
REMARK    3  A    between atoms: C_4  and  C_6
REMARK    4  A    between atoms: C_6  and  C_7
REMARK    5  A    between atoms: C_12  and  S_13
REMARK    6  A    between atoms: S_13  and  C_14
REMARK    7  A    between atoms: C_15  and  O_16
REMARK    8  A    between atoms: C_18  and  C_19
REMARK                            x       y       z     vdW  Elec       q    Type
REMARK                         _______ _______ _______ _____ _____    ______ ____
ROOT
ATOM      1  C   UNL     1      -0.307  11.221  18.586  0.00  0.00    +0.000 C 
ATOM      2  C   UNL     1      -1.234  10.519  17.911  0.00  0.00    +0.000 C 
ATOM      3  C   UNL     1      -2.715  10.780  17.978  0.00  0.00    +0.000 C 
ATOM      4  C   UNL     1      -3.140  11.631  19.189  0.00  0.00    +0.000 C 
ATOM      5  C   UNL     1      -2.172  12.772  19.492  0.00  0.00    +0.000 C 
ATOM      6  C   UNL     1      -0.737  12.301  19.539  0.00  0.00    +0.000 C 
ATOM      7  O   UNL     1       0.063  12.851  20.301  0.00  0.00    +0.000 OA
ENDROOT
BRANCH   4   8
ATOM      8  C   UNL     1      -4.595  12.111  19.131  0.00  0.00    +0.000 A 
ATOM      9  C   UNL     1      -5.313  12.089  17.913  0.00  0.00    +0.000 A 
ATOM     10 CL   UNL     1      -4.640  11.492  16.431  0.00  0.00    +0.000 Cl
ATOM     11  C   UNL     1      -6.643  12.534  17.834  0.00  0.00    +0.000 A 
ATOM     12  C   UNL     1      -7.294  13.016  18.963  0.00  0.00    +0.000 A 
ATOM     13  C   UNL     1      -6.621  13.029  20.177  0.00  0.00    +0.000 A 
ATOM     14  C   UNL     1      -5.299  12.574  20.269  0.00  0.00    +0.000 A 
ATOM     15 CL   UNL     1      -4.638  12.593  21.870  0.00  0.00    +0.000 Cl
ENDBRANCH   4   8
BRANCH   2  16
ATOM     16  O   UNL     1      -0.914   9.452  17.083  0.00  0.00    +0.000 OA
ATOM     17  H   UNL     1      -1.123   9.702  16.162  0.00  0.00    +0.000 HD
ENDBRANCH   2  16
BRANCH   1  18
ATOM     18  S   UNL     1       1.390  10.883  18.525  0.00  0.00    +0.000 S 
BRANCH  18  24
ATOM     19  C   UNL     1       2.424   6.988  18.801  0.00  0.00    +0.000 A 
ATOM     20  C   UNL     1       2.029   6.575  20.073  0.00  0.00    +0.000 A 
ATOM     21  C   UNL     1       1.366   7.465  20.913  0.00  0.00    +0.000 A 
ATOM     22  C   UNL     1       1.108   8.785  20.508  0.00  0.00    +0.000 A 
ATOM     23 CL   UNL     1       0.119   9.687  21.596  0.00  0.00    +0.000 Cl
ATOM     24  C   UNL     1       1.587   9.260  19.276  0.00  0.00    +0.000 A 
ATOM     25  C   UNL     1       2.236   8.330  18.433  0.00  0.00    +0.000 A 
BRANCH  19  26
ATOM     26  C   UNL     1       3.011   5.993  17.826  0.00  0.00    +0.000 C 
BRANCH  26  30
ATOM     27  C   UNL     1       2.531   2.260  18.427  0.00  0.00    +0.000 C 
ATOM     28  N   UNL     1       3.126   3.584  18.387  0.00  0.00    +0.000 N 
ATOM     29  C   UNL     1       4.453   3.766  18.957  0.00  0.00    +0.000 C 
ATOM     30  C   UNL     1       2.359   4.616  17.846  0.00  0.00    +0.000 C 
ATOM     31  O   UNL     1       1.227   4.418  17.411  0.00  0.00    +0.000 OA
ENDBRANCH  26  30
ENDBRANCH  19  26
ENDBRANCH  18  24
ENDBRANCH   1  18
TORSDOF 6
ENDMDL
MODEL 5
REMARK VINA RESULT:      -7.4      3.547      9.126
REMARK  Name = 
REMARK  8 active torsions:
REMARK  status: ('A' for Active; 'I' for Inactive)
REMARK    1  A    between atoms: C_1  and  N_2
REMARK    2  A    between atoms: N_2  and  C_3
REMARK    3  A    between atoms: C_4  and  C_6
REMARK    4  A    between atoms: C_6  and  C_7
REMARK    5  A    between atoms: C_12  and  S_13
REMARK    6  A    between atoms: S_13  and  C_14
REMARK    7  A    between atoms: C_15  and  O_16
REMARK    8  A    between atoms: C_18  and  C_19
REMARK                            x       y       z     vdW  Elec       q    Type
REMARK                         _______ _______ _______ _____ _____    ______ ____
ROOT
ATOM      1  C   UNL     1       1.291   9.885  19.516  0.00  0.00    +0.000 C 
ATOM      2  C   UNL     1       1.848   9.622  18.321  0.00  0.00    +0.000 C 
ATOM      3  C   UNL     1       2.324   8.263  17.884  0.00  0.00    +0.000 C 
ATOM      4  C   UNL     1       2.517   7.270  19.047  0.00  0.00    +0.000 C 
ATOM      5  C   UNL     1       1.423   7.367  20.108  0.00  0.00    +0.000 C 
ATOM      6  C   UNL     1       1.181   8.793  20.544  0.00  0.00    +0.000 C 
ATOM      7  O   UNL     1       0.835   9.027  21.705  0.00  0.00    +0.000 OA
ENDROOT
BRANCH   4   8
ATOM      8  C   UNL     1       2.755   5.825  18.597  0.00  0.00    +0.000 A 
ATOM      9  C   UNL     1       3.690   5.531  17.577  0.00  0.00    +0.000 A 
ATOM     10 CL   UNL     1       4.652   6.747  16.801  0.00  0.00    +0.000 Cl
ATOM     11  C   UNL     1       3.916   4.215  17.142  0.00  0.00    +0.000 A 
ATOM     12  C   UNL     1       3.217   3.155  17.706  0.00  0.00    +0.000 A 
ATOM     13  C   UNL     1       2.309   3.411  18.724  0.00  0.00    +0.000 A 
ATOM     14  C   UNL     1       2.086   4.718  19.175  0.00  0.00    +0.000 A 
ATOM     15 CL   UNL     1       0.976   4.847  20.499  0.00  0.00    +0.000 Cl
ENDBRANCH   4   8
BRANCH   2  16
ATOM     16  O   UNL     1       2.061  10.600  17.359  0.00  0.00    +0.000 OA
ATOM     17  H   UNL     1       2.083  10.170  16.482  0.00  0.00    +0.000 HD
ENDBRANCH   2  16
BRANCH   1  18
ATOM     18  S   UNL     1       0.782  11.462  20.015  0.00  0.00    +0.000 S 
BRANCH  18  24
ATOM     19  C   UNL     1      -3.061  12.703  20.109  0.00  0.00    +0.000 A 
ATOM     20  C   UNL     1      -3.702  12.045  19.060  0.00  0.00    +0.000 A 
ATOM     21  C   UNL     1      -2.996  11.129  18.285  0.00  0.00    +0.000 A 
ATOM     22  C   UNL     1      -1.637  10.874  18.526  0.00  0.00    +0.000 A 
ATOM     23 CL   UNL     1      -0.974   9.583  17.594  0.00  0.00    +0.000 Cl
ATOM     24  C   UNL     1      -0.938  11.599  19.506  0.00  0.00    +0.000 A 
ATOM     25  C   UNL     1      -1.683  12.505  20.295  0.00  0.00    +0.000 A 
BRANCH  19  26
ATOM     26  C   UNL     1      -3.850  13.585  21.049  0.00  0.00    +0.000 C 
BRANCH  26  30
ATOM     27  C   UNL     1      -4.335  12.394  24.637  0.00  0.00    +0.000 C 
ATOM     28  N   UNL     1      -3.789  13.060  23.468  0.00  0.00    +0.000 N 
ATOM     29  C   UNL     1      -2.630  13.925  23.640  0.00  0.00    +0.000 C 
ATOM     30  C   UNL     1      -4.446  12.867  22.252  0.00  0.00    +0.000 C 
ATOM     31  O   UNL     1      -5.445  12.156  22.166  0.00  0.00    +0.000 OA
ENDBRANCH  26  30
ENDBRANCH  19  26
ENDBRANCH  18  24
ENDBRANCH   1  18
TORSDOF 6
ENDMDL
MODEL 6
REMARK VINA RESULT:      -7.3      0.871      1.012
REMARK  Name = 
REMARK  8 active torsions:
REMARK  status: ('A' for Active; 'I' for Inactive)
REMARK    1  A    between atoms: C_1  and  N_2
REMARK    2  A    between atoms: N_2  and  C_3
REMARK    3  A    between atoms: C_4  and  C_6
REMARK    4  A    between atoms: C_6  and  C_7
REMARK    5  A    between atoms: C_12  and  S_13
REMARK    6  A    between atoms: S_13  and  C_14
REMARK    7  A    between atoms: C_15  and  O_16
REMARK    8  A    between atoms: C_18  and  C_19
REMARK                            x       y       z     vdW  Elec       q    Type
REMARK                         _______ _______ _______ _____ _____    ______ ____
ROOT
ATOM      1  C   UNL     1      -0.322  11.268  18.896  0.00  0.00    +0.000 C 
ATOM      2  C   UNL     1      -0.619  12.289  19.718  0.00  0.00    +0.000 C 
ATOM      3  C   UNL     1      -2.017  12.724  20.065  0.00  0.00    +0.000 C 
ATOM      4  C   UNL     1      -3.090  12.194  19.095  0.00  0.00    +0.000 C 
ATOM      5  C   UNL     1      -2.848  10.750  18.662  0.00  0.00    +0.000 C 
ATOM      6  C   UNL     1      -1.428  10.527  18.197  0.00  0.00    +0.000 C 
ATOM      7  O   UNL     1      -1.196   9.700  17.311  0.00  0.00    +0.000 OA
ENDROOT
BRANCH   4   8
ATOM      8  C   UNL     1      -4.528  12.417  19.576  0.00  0.00    +0.000 A 
ATOM      9  C   UNL     1      -5.600  12.444  18.654  0.00  0.00    +0.000 A 
ATOM     10 CL   UNL     1      -5.388  12.193  16.952  0.00  0.00    +0.000 Cl
ATOM     11  C   UNL     1      -6.925  12.657  19.071  0.00  0.00    +0.000 A 
ATOM     12  C   UNL     1      -7.218  12.851  20.415  0.00  0.00    +0.000 A 
ATOM     13  C   UNL     1      -6.189  12.807  21.345  0.00  0.00    +0.000 A 
ATOM     14  C   UNL     1      -4.867  12.582  20.941  0.00  0.00    +0.000 A 
ATOM     15 CL   UNL     1      -3.721  12.485  22.237  0.00  0.00    +0.000 Cl
ENDBRANCH   4   8
BRANCH   2  16
ATOM     16  O   UNL     1       0.353  13.073  20.327  0.00  0.00    +0.000 OA
ATOM     17  H   UNL     1      -0.051  13.526  21.091  0.00  0.00    +0.000 HD
ENDBRANCH   2  16
BRANCH   1  18
ATOM     18  S   UNL     1       1.293  10.805  18.480  0.00  0.00    +0.000 S 
BRANCH  18  24
ATOM     19  C   UNL     1       2.464   6.956  18.845  0.00  0.00    +0.000 A 
ATOM     20  C   UNL     1       2.106   6.567  20.135  0.00  0.00    +0.000 A 
ATOM     21  C   UNL     1       1.428   7.458  20.962  0.00  0.00    +0.000 A 
ATOM     22  C   UNL     1       1.119   8.756  20.526  0.00  0.00    +0.000 A 
ATOM     23 CL   UNL     1       0.120   9.655  21.607  0.00  0.00    +0.000 Cl
ATOM     24  C   UNL     1       1.559   9.212  19.272  0.00  0.00    +0.000 A 
ATOM     25  C   UNL     1       2.224   8.281  18.443  0.00  0.00    +0.000 A 
BRANCH  19  26
ATOM     26  C   UNL     1       3.066   5.954  17.887  0.00  0.00    +0.000 C 
BRANCH  26  30
ATOM     27  C   UNL     1       4.064   2.525  19.219  0.00  0.00    +0.000 C 
ATOM     28  N   UNL     1       3.300   3.595  18.604  0.00  0.00    +0.000 N 
ATOM     29  C   UNL     1       1.994   3.282  18.043  0.00  0.00    +0.000 C 
ATOM     30  C   UNL     1       3.894   4.857  18.545  0.00  0.00    +0.000 C 
ATOM     31  O   UNL     1       5.016   5.063  19.000  0.00  0.00    +0.000 OA
ENDBRANCH  26  30
ENDBRANCH  19  26
ENDBRANCH  18  24
ENDBRANCH   1  18
TORSDOF 6
ENDMDL
MODEL 7
REMARK VINA RESULT:      -7.2      3.834      5.747
REMARK  Name = 
REMARK  8 active torsions:
REMARK  status: ('A' for Active; 'I' for Inactive)
REMARK    1  A    between atoms: C_1  and  N_2
REMARK    2  A    between atoms: N_2  and  C_3
REMARK    3  A    between atoms: C_4  and  C_6
REMARK    4  A    between atoms: C_6  and  C_7
REMARK    5  A    between atoms: C_12  and  S_13
REMARK    6  A    between atoms: S_13  and  C_14
REMARK    7  A    between atoms: C_15  and  O_16
REMARK    8  A    between atoms: C_18  and  C_19
REMARK                            x       y       z     vdW  Elec       q    Type
REMARK                         _______ _______ _______ _____ _____    ______ ____
ROOT
ATOM      1  C   UNL     1       0.895  12.260  19.137  0.00  0.00    +0.000 C 
ATOM      2  C   UNL     1       2.018  12.700  18.543  0.00  0.00    +0.000 C 
ATOM      3  C   UNL     1       2.786  13.922  18.972  0.00  0.00    +0.000 C 
ATOM      4  C   UNL     1       1.979  14.877  19.871  0.00  0.00    +0.000 C 
ATOM      5  C   UNL     1       1.111  14.148  20.896  0.00  0.00    +0.000 C 
ATOM      6  C   UNL     1       0.289  13.049  20.264  0.00  0.00    +0.000 C 
ATOM      7  O   UNL     1      -0.823  12.777  20.722  0.00  0.00    +0.000 OA
ENDROOT
BRANCH   4   8
ATOM      8  C   UNL     1       2.820  15.984  20.515  0.00  0.00    +0.000 A 
ATOM      9  C   UNL     1       2.524  17.346  20.276  0.00  0.00    +0.000 A 
ATOM     10 CL   UNL     1       1.193  17.864  19.292  0.00  0.00    +0.000 Cl
ATOM     11  C   UNL     1       3.288  18.377  20.847  0.00  0.00    +0.000 A 
ATOM     12  C   UNL     1       4.368  18.083  21.669  0.00  0.00    +0.000 A 
ATOM     13  C   UNL     1       4.669  16.755  21.940  0.00  0.00    +0.000 A 
ATOM     14  C   UNL     1       3.905  15.719  21.387  0.00  0.00    +0.000 A 
ATOM     15 CL   UNL     1       4.373  14.129  21.888  0.00  0.00    +0.000 Cl
ENDBRANCH   4   8
BRANCH   2  16
ATOM     16  O   UNL     1       2.584  12.071  17.442  0.00  0.00    +0.000 OA
ATOM     17  H   UNL     1       3.188  11.374  17.761  0.00  0.00    +0.000 HD
ENDBRANCH   2  16
BRANCH   1  18
ATOM     18  S   UNL     1       0.006  10.873  18.606  0.00  0.00    +0.000 S 
BRANCH  18  24
ATOM     19  C   UNL     1       2.283   7.545  18.844  0.00  0.00    +0.000 A 
ATOM     20  C   UNL     1       2.208   7.123  20.170  0.00  0.00    +0.000 A 
ATOM     21  C   UNL     1       1.402   7.813  21.070  0.00  0.00    +0.000 A 
ATOM     22  C   UNL     1       0.678   8.947  20.669  0.00  0.00    +0.000 A 
ATOM     23 CL   UNL     1      -0.406   9.563  21.861  0.00  0.00    +0.000 Cl
ATOM     24  C   UNL     1       0.816   9.459  19.367  0.00  0.00    +0.000 A 
ATOM     25  C   UNL     1       1.622   8.726  18.467  0.00  0.00    +0.000 A 
BRANCH  19  26
ATOM     26  C   UNL     1       3.036   6.721  17.824  0.00  0.00    +0.000 C 
BRANCH  26  30
ATOM     27  C   UNL     1       3.855   3.074  18.569  0.00  0.00    +0.000 C 
ATOM     28  N   UNL     1       3.985   4.512  18.416  0.00  0.00    +0.000 N 
ATOM     29  C   UNL     1       5.247   5.139  18.785  0.00  0.00    +0.000 C 
ATOM     30  C   UNL     1       2.866   5.214  17.967  0.00  0.00    +0.000 C 
ATOM     31  O   UNL     1       1.810   4.643  17.704  0.00  0.00    +0.000 OA
ENDBRANCH  26  30
ENDBRANCH  19  26
ENDBRANCH  18  24
ENDBRANCH   1  18
TORSDOF 6
ENDMDL
MODEL 8
REMARK VINA RESULT:      -7.2      1.320      2.758
REMARK  Name = 
REMARK  8 active torsions:
REMARK  status: ('A' for Active; 'I' for Inactive)
REMARK    1  A    between atoms: C_1  and  N_2
REMARK    2  A    between atoms: N_2  and  C_3
REMARK    3  A    between atoms: C_4  and  C_6
REMARK    4  A    between atoms: C_6  and  C_7
REMARK    5  A    between atoms: C_12  and  S_13
REMARK    6  A    between atoms: S_13  and  C_14
REMARK    7  A    between atoms: C_15  and  O_16
REMARK    8  A    between atoms: C_18  and  C_19
REMARK                            x       y       z     vdW  Elec       q    Type
REMARK                         _______ _______ _______ _____ _____    ______ ____
ROOT
ATOM      1  C   UNL     1      -0.435  11.316  18.660  0.00  0.00    +0.000 C 
ATOM      2  C   UNL     1      -1.321  10.583  17.963  0.00  0.00    +0.000 C 
ATOM      3  C   UNL     1      -2.810  10.799  17.985  0.00  0.00    +0.000 C 
ATOM      4  C   UNL     1      -3.296  11.644  19.177  0.00  0.00    +0.000 C 
ATOM      5  C   UNL     1      -2.372  12.815  19.501  0.00  0.00    +0.000 C 
ATOM      6  C   UNL     1      -0.925  12.388  19.593  0.00  0.00    +0.000 C 
ATOM      7  O   UNL     1      -0.165  12.967  20.373  0.00  0.00    +0.000 OA
ENDROOT
BRANCH   4   8
ATOM      8  C   UNL     1      -4.762  12.080  19.073  0.00  0.00    +0.000 A 
ATOM      9  C   UNL     1      -5.477  12.484  20.225  0.00  0.00    +0.000 A 
ATOM     10 CL   UNL     1      -4.762  12.557  21.802  0.00  0.00    +0.000 Cl
ATOM     11  C   UNL     1      -6.824  12.877  20.154  0.00  0.00    +0.000 A 
ATOM     12  C   UNL     1      -7.496  12.878  18.939  0.00  0.00    +0.000 A 
ATOM     13  C   UNL     1      -6.813  12.507  17.789  0.00  0.00    +0.000 A 
ATOM     14  C   UNL     1      -5.466  12.126  17.846  0.00  0.00    +0.000 A 
ATOM     15 CL   UNL     1      -4.752  11.767  16.309  0.00  0.00    +0.000 Cl
ENDBRANCH   4   8
BRANCH   2  16
ATOM     16  O   UNL     1      -0.945   9.520  17.152  0.00  0.00    +0.000 OA
ATOM     17  H   UNL     1      -1.474   9.556  16.332  0.00  0.00    +0.000 HD
ENDBRANCH   2  16
BRANCH   1  18
ATOM     18  S   UNL     1       1.272  11.029  18.651  0.00  0.00    +0.000 S 
BRANCH  18  24
ATOM     19  C   UNL     1       2.373   7.149  18.882  0.00  0.00    +0.000 A 
ATOM     20  C   UNL     1       1.976   6.713  20.146  0.00  0.00    +0.000 A 
ATOM     21  C   UNL     1       1.291   7.579  20.992  0.00  0.00    +0.000 A 
ATOM     22  C   UNL     1       1.013   8.899  20.603  0.00  0.00    +0.000 A 
ATOM     23 CL   UNL     1       0.001   9.769  21.696  0.00  0.00    +0.000 Cl
ATOM     24  C   UNL     1       1.493   9.400  19.381  0.00  0.00    +0.000 A 
ATOM     25  C   UNL     1       2.164   8.493  18.530  0.00  0.00    +0.000 A 
BRANCH  19  26
ATOM     26  C   UNL     1       2.984   6.178  17.898  0.00  0.00    +0.000 C 
BRANCH  26  30
ATOM     27  C   UNL     1       6.658   5.290  18.390  0.00  0.00    +0.000 C 
ATOM     28  N   UNL     1       5.209   5.257  18.476  0.00  0.00    +0.000 N 
ATOM     29  C   UNL     1       4.582   4.176  19.222  0.00  0.00    +0.000 C 
ATOM     30  C   UNL     1       4.502   6.246  17.790  0.00  0.00    +0.000 C 
ATOM     31  O   UNL     1       5.078   7.117  17.143  0.00  0.00    +0.000 OA
ENDBRANCH  26  30
ENDBRANCH  19  26
ENDBRANCH  18  24
ENDBRANCH   1  18
TORSDOF 6
ENDMDL
MODEL 9
REMARK VINA RESULT:      -7.2      2.239      2.553
REMARK  Name = 
REMARK  8 active torsions:
REMARK  status: ('A' for Active; 'I' for Inactive)
REMARK    1  A    between atoms: C_1  and  N_2
REMARK    2  A    between atoms: N_2  and  C_3
REMARK    3  A    between atoms: C_4  and  C_6
REMARK    4  A    between atoms: C_6  and  C_7
REMARK    5  A    between atoms: C_12  and  S_13
REMARK    6  A    between atoms: S_13  and  C_14
REMARK    7  A    between atoms: C_15  and  O_16
REMARK    8  A    between atoms: C_18  and  C_19
REMARK                            x       y       z     vdW  Elec       q    Type
REMARK                         _______ _______ _______ _____ _____    ______ ____
ROOT
ATOM      1  C   UNL     1       0.300  11.668  19.600  0.00  0.00    +0.000 C 
ATOM      2  C   UNL     1       0.758  12.415  20.619  0.00  0.00    +0.000 C 
ATOM      3  C   UNL     1      -0.115  13.218  21.545  0.00  0.00    +0.000 C 
ATOM      4  C   UNL     1      -1.534  13.466  21.000  0.00  0.00    +0.000 C 
ATOM      5  C   UNL     1      -2.126  12.251  20.291  0.00  0.00    +0.000 C 
ATOM      6  C   UNL     1      -1.169  11.660  19.282  0.00  0.00    +0.000 C 
ATOM      7  O   UNL     1      -1.609  11.128  18.259  0.00  0.00    +0.000 OA
ENDROOT
BRANCH   4   8
ATOM      8  C   UNL     1      -2.501  14.058  22.031  0.00  0.00    +0.000 A 
ATOM      9  C   UNL     1      -3.004  15.371  21.878  0.00  0.00    +0.000 A 
ATOM     10 CL   UNL     1      -2.610  16.380  20.524  0.00  0.00    +0.000 Cl
ATOM     11  C   UNL     1      -3.883  15.937  22.816  0.00  0.00    +0.000 A 
ATOM     12  C   UNL     1      -4.285  15.214  23.932  0.00  0.00    +0.000 A 
ATOM     13  C   UNL     1      -3.826  13.915  24.097  0.00  0.00    +0.000 A 
ATOM     14  C   UNL     1      -2.959  13.336  23.161  0.00  0.00    +0.000 A 
ATOM     15 CL   UNL     1      -2.544  11.685  23.483  0.00  0.00    +0.000 Cl
ENDBRANCH   4   8
BRANCH   2  16
ATOM     16  O   UNL     1       2.109  12.538  20.915  0.00  0.00    +0.000 OA
ATOM     17  H   UNL     1       2.379  11.769  21.453  0.00  0.00    +0.000 HD
ENDBRANCH   2  16
BRANCH   1  18
ATOM     18  S   UNL     1       1.323  10.779  18.522  0.00  0.00    +0.000 S 
BRANCH  18  24
ATOM     19  C   UNL     1       2.453   6.915  18.848  0.00  0.00    +0.000 A 
ATOM     20  C   UNL     1       2.053   6.504  20.119  0.00  0.00    +0.000 A 
ATOM     21  C   UNL     1       1.357   7.385  20.942  0.00  0.00    +0.000 A 
ATOM     22  C   UNL     1       1.071   8.693  20.522  0.00  0.00    +0.000 A 
ATOM     23 CL   UNL     1       0.046   9.580  21.589  0.00  0.00    +0.000 Cl
ATOM     24  C   UNL     1       1.553   9.169  19.291  0.00  0.00    +0.000 A 
ATOM     25  C   UNL     1       2.235   8.249  18.464  0.00  0.00    +0.000 A 
BRANCH  19  26
ATOM     26  C   UNL     1       3.077   5.926  17.890  0.00  0.00    +0.000 C 
BRANCH  26  30
ATOM     27  C   UNL     1       2.536   2.179  18.330  0.00  0.00    +0.000 C 
ATOM     28  N   UNL     1       3.151   3.494  18.348  0.00  0.00    +0.000 N 
ATOM     29  C   UNL     1       4.480   3.630  18.927  0.00  0.00    +0.000 C 
ATOM     30  C   UNL     1       2.402   4.561  17.850  0.00  0.00    +0.000 C 
ATOM     31  O   UNL     1       1.268   4.399  17.405  0.00  0.00    +0.000 OA
ENDBRANCH  26  30
ENDBRANCH  19  26
ENDBRANCH  18  24
ENDBRANCH   1  18
TORSDOF 6
ENDMDL
