MODEL 1
REMARK VINA RESULT:      -8.2      0.000      0.000
REMARK  Name = 
REMARK  10 active torsions:
REMARK  status: ('A' for Active; 'I' for Inactive)
REMARK    1  A    between atoms: C_1  and  O_2
REMARK    2  A    between atoms: O_2  and  C_3
REMARK    3  A    between atoms: C_6  and  O_7
REMARK    4  A    between atoms: O_7  and  C_8
REMARK    5  A    between atoms: C_9  and  N_10
REMARK    6  A    between atoms: C_11  and  C_13
REMARK    7  A    between atoms: C_13  and  C_14
REMARK    8  A    between atoms: C_14  and  C_15
REMARK    9  A    between atoms: C_17  and  C_18
REMARK   10  A    between atoms: C_21  and  C_22
REMARK                            x       y       z     vdW  Elec       q    Type
REMARK                         _______ _______ _______ _____ _____    ______ ____
ROOT
ATOM      1  N   UNL     1       5.121   4.950  18.777  0.00  0.00    +0.000 N 
ATOM      2  C   UNL     1       5.469   4.778  17.450  0.00  0.00    +0.000 C 
ATOM      3  O   UNL     1       4.709   4.572  16.508  0.00  0.00    +0.000 OA
ATOM      4  H   UNL     1       5.787   5.461  19.342  0.00  0.00    +0.000 HD
ENDROOT
BRANCH   1   9
ATOM      5  C   UNL     1       1.935   5.809  20.442  0.00  0.00    +0.000 A 
ATOM      6  C   UNL     1       1.323   4.570  20.587  0.00  0.00    +0.000 A 
ATOM      7  C   UNL     1       1.961   3.414  20.141  0.00  0.00    +0.000 A 
ATOM      8  C   UNL     1       3.236   3.476  19.560  0.00  0.00    +0.000 A 
ATOM      9  C   UNL     1       3.844   4.734  19.364  0.00  0.00    +0.000 A 
ATOM     10  C   UNL     1       3.195   5.890  19.844  0.00  0.00    +0.000 A 
BRANCH   5  12
ATOM     11  C   UNL     1       1.540   8.134  20.397  0.00  0.00    +0.000 C 
ATOM     12  O   UNL     1       1.250   6.867  20.975  0.00  0.00    +0.000 OA
ENDBRANCH   5  12
BRANCH   8  13
ATOM     13  O   UNL     1       3.951   2.357  19.239  0.00  0.00    +0.000 OA
ATOM     14  C   UNL     1       3.501   1.556  18.156  0.00  0.00    +0.000 C 
ENDBRANCH   8  13
ENDBRANCH   1   9
BRANCH   2  15
ATOM     15  C   UNL     1       6.951   4.997  17.207  0.00  0.00    +0.000 C 
BRANCH  15  16
ATOM     16  C   UNL     1       7.602   5.604  18.446  0.00  0.00    +0.000 C 
BRANCH  16  17
ATOM     17  C   UNL     1       7.885   7.042  18.263  0.00  0.00    +0.000 A 
ATOM     18  N   UNL     1       8.608   7.850  19.000  0.00  0.00    +0.000 NA
ATOM     19  C   UNL     1       8.509   9.045  18.317  0.00  0.00    +0.000 A 
ATOM     20  N   UNL     1       7.743   8.977  17.213  0.00  0.00    +0.000 NA
ATOM     21  O   UNL     1       7.334   7.647  17.174  0.00  0.00    +0.000 OA
BRANCH  19  22
ATOM     22  C   UNL     1       9.166  10.259  18.785  0.00  0.00    +0.000 A 
ATOM     23  C   UNL     1       9.571  11.237  17.867  0.00  0.00    +0.000 A 
ATOM     24  C   UNL     1      10.215  12.400  18.298  0.00  0.00    +0.000 A 
ATOM     25  C   UNL     1      10.464  12.606  19.658  0.00  0.00    +0.000 A 
ATOM     26  C   UNL     1      11.151  13.850  20.137  0.00  0.00    +0.000 C 
ATOM     27  C   UNL     1      10.057  11.634  20.580  0.00  0.00    +0.000 A 
ATOM     28  C   UNL     1       9.412  10.471  20.148  0.00  0.00    +0.000 A 
ENDBRANCH  19  22
ENDBRANCH  16  17
ENDBRANCH  15  16
ENDBRANCH   2  15
TORSDOF 7
ENDMDL
MODEL 2
REMARK VINA RESULT:      -7.9      4.749      6.407
REMARK  Name = 
REMARK  10 active torsions:
REMARK  status: ('A' for Active; 'I' for Inactive)
REMARK    1  A    between atoms: C_1  and  O_2
REMARK    2  A    between atoms: O_2  and  C_3
REMARK    3  A    between atoms: C_6  and  O_7
REMARK    4  A    between atoms: O_7  and  C_8
REMARK    5  A    between atoms: C_9  and  N_10
REMARK    6  A    between atoms: C_11  and  C_13
REMARK    7  A    between atoms: C_13  and  C_14
REMARK    8  A    between atoms: C_14  and  C_15
REMARK    9  A    between atoms: C_17  and  C_18
REMARK   10  A    between atoms: C_21  and  C_22
REMARK                            x       y       z     vdW  Elec       q    Type
REMARK                         _______ _______ _______ _____ _____    ______ ____
ROOT
ATOM      1  N   UNL     1       2.426   5.762  20.755  0.00  0.00    +0.000 N 
ATOM      2  C   UNL     1       1.746   4.563  20.651  0.00  0.00    +0.000 C 
ATOM      3  O   UNL     1       0.765   4.329  19.949  0.00  0.00    +0.000 OA
ATOM      4  H   UNL     1       3.386   5.696  21.066  0.00  0.00    +0.000 HD
ENDROOT
BRANCH   1   9
ATOM      5  C   UNL     1       0.763   9.063  20.687  0.00  0.00    +0.000 A 
ATOM      6  C   UNL     1       1.090   9.543  19.425  0.00  0.00    +0.000 A 
ATOM      7  C   UNL     1       1.867   8.775  18.560  0.00  0.00    +0.000 A 
ATOM      8  C   UNL     1       2.313   7.500  18.936  0.00  0.00    +0.000 A 
ATOM      9  C   UNL     1       2.027   7.024  20.233  0.00  0.00    +0.000 A 
ATOM     10  C   UNL     1       1.219   7.804  21.085  0.00  0.00    +0.000 A 
BRANCH   5  12
ATOM     11  C   UNL     1      -0.220   9.491  22.788  0.00  0.00    +0.000 C 
ATOM     12  O   UNL     1      -0.058   9.870  21.426  0.00  0.00    +0.000 OA
ENDBRANCH   5  12
BRANCH   8  13
ATOM     13  O   UNL     1       2.955   6.661  18.069  0.00  0.00    +0.000 OA
ATOM     14  C   UNL     1       3.884   7.221  17.152  0.00  0.00    +0.000 C 
ENDBRANCH   8  13
ENDBRANCH   1   9
BRANCH   2  15
ATOM     15  C   UNL     1       2.418   3.447  21.428  0.00  0.00    +0.000 C 
BRANCH  15  16
ATOM     16  C   UNL     1       3.055   2.448  20.467  0.00  0.00    +0.000 C 
BRANCH  16  17
ATOM     17  C   UNL     1       4.076   3.088  19.614  0.00  0.00    +0.000 A 
ATOM     18  N   UNL     1       4.171   3.120  18.307  0.00  0.00    +0.000 NA
ATOM     19  C   UNL     1       5.311   3.872  18.108  0.00  0.00    +0.000 A 
ATOM     20  N   UNL     1       5.901   4.273  19.248  0.00  0.00    +0.000 NA
ATOM     21  O   UNL     1       5.080   3.757  20.247  0.00  0.00    +0.000 OA
BRANCH  19  22
ATOM     22  C   UNL     1       5.817   4.169  16.774  0.00  0.00    +0.000 A 
ATOM     23  C   UNL     1       7.121   4.657  16.611  0.00  0.00    +0.000 A 
ATOM     24  C   UNL     1       7.617   4.960  15.340  0.00  0.00    +0.000 A 
ATOM     25  C   UNL     1       6.816   4.779  14.209  0.00  0.00    +0.000 A 
ATOM     26  C   UNL     1       7.335   5.097  12.838  0.00  0.00    +0.000 C 
ATOM     27  C   UNL     1       5.514   4.288  14.366  0.00  0.00    +0.000 A 
ATOM     28  C   UNL     1       5.019   3.984  15.637  0.00  0.00    +0.000 A 
ENDBRANCH  19  22
ENDBRANCH  16  17
ENDBRANCH  15  16
ENDBRANCH   2  15
TORSDOF 7
ENDMDL
MODEL 3
REMARK VINA RESULT:      -7.8      2.643      9.306
REMARK  Name = 
REMARK  10 active torsions:
REMARK  status: ('A' for Active; 'I' for Inactive)
REMARK    1  A    between atoms: C_1  and  O_2
REMARK    2  A    between atoms: O_2  and  C_3
REMARK    3  A    between atoms: C_6  and  O_7
REMARK    4  A    between atoms: O_7  and  C_8
REMARK    5  A    between atoms: C_9  and  N_10
REMARK    6  A    between atoms: C_11  and  C_13
REMARK    7  A    between atoms: C_13  and  C_14
REMARK    8  A    between atoms: C_14  and  C_15
REMARK    9  A    between atoms: C_17  and  C_18
REMARK   10  A    between atoms: C_21  and  C_22
REMARK                            x       y       z     vdW  Elec       q    Type
REMARK                         _______ _______ _______ _____ _____    ______ ____
ROOT
ATOM      1  N   UNL     1       9.406   9.927  19.816  0.00  0.00    +0.000 N 
ATOM      2  C   UNL     1       8.680   9.623  18.679  0.00  0.00    +0.000 C 
ATOM      3  O   UNL     1       8.343  10.398  17.789  0.00  0.00    +0.000 OA
ATOM      4  H   UNL     1       9.903   9.154  20.239  0.00  0.00    +0.000 HD
ENDROOT
BRANCH   1   9
ATOM      5  C   UNL     1       9.174  12.971  21.899  0.00  0.00    +0.000 A 
ATOM      6  C   UNL     1      10.202  13.761  21.400  0.00  0.00    +0.000 A 
ATOM      7  C   UNL     1      10.995  13.303  20.349  0.00  0.00    +0.000 A 
ATOM      8  C   UNL     1      10.758  12.051  19.764  0.00  0.00    +0.000 A 
ATOM      9  C   UNL     1       9.748  11.221  20.295  0.00  0.00    +0.000 A 
ATOM     10  C   UNL     1       8.940  11.712  21.341  0.00  0.00    +0.000 A 
BRANCH   5  12
ATOM     11  C   UNL     1       7.011  13.434  22.715  0.00  0.00    +0.000 C 
ATOM     12  O   UNL     1       8.419  13.546  22.884  0.00  0.00    +0.000 OA
ENDBRANCH   5  12
BRANCH   8  13
ATOM     13  O   UNL     1      11.419  11.626  18.646  0.00  0.00    +0.000 OA
ATOM     14  C   UNL     1      11.410  12.464  17.499  0.00  0.00    +0.000 C 
ENDBRANCH   8  13
ENDBRANCH   1   9
BRANCH   2  15
ATOM     15  C   UNL     1       8.416   8.135  18.543  0.00  0.00    +0.000 C 
BRANCH  15  16
ATOM     16  C   UNL     1       7.795   7.835  17.182  0.00  0.00    +0.000 C 
BRANCH  16  17
ATOM     17  C   UNL     1       6.976   6.607  17.216  0.00  0.00    +0.000 A 
ATOM     18  N   UNL     1       5.769   6.421  17.693  0.00  0.00    +0.000 NA
ATOM     19  C   UNL     1       5.542   5.088  17.422  0.00  0.00    +0.000 A 
ATOM     20  N   UNL     1       6.574   4.474  16.816  0.00  0.00    +0.000 NA
ATOM     21  O   UNL     1       7.524   5.483  16.675  0.00  0.00    +0.000 OA
BRANCH  19  22
ATOM     22  C   UNL     1       4.297   4.426  17.791  0.00  0.00    +0.000 A 
ATOM     23  C   UNL     1       4.312   3.094  18.228  0.00  0.00    +0.000 A 
ATOM     24  C   UNL     1       3.126   2.441  18.572  0.00  0.00    +0.000 A 
ATOM     25  C   UNL     1       1.902   3.109  18.485  0.00  0.00    +0.000 A 
ATOM     26  C   UNL     1       0.620   2.423  18.854  0.00  0.00    +0.000 C 
ATOM     27  C   UNL     1       1.881   4.441  18.054  0.00  0.00    +0.000 A 
ATOM     28  C   UNL     1       3.068   5.094  17.711  0.00  0.00    +0.000 A 
ENDBRANCH  19  22
ENDBRANCH  16  17
ENDBRANCH  15  16
ENDBRANCH   2  15
TORSDOF 7
ENDMDL
MODEL 4
REMARK VINA RESULT:      -7.6      4.146      7.671
REMARK  Name = 
REMARK  10 active torsions:
REMARK  status: ('A' for Active; 'I' for Inactive)
REMARK    1  A    between atoms: C_1  and  O_2
REMARK    2  A    between atoms: O_2  and  C_3
REMARK    3  A    between atoms: C_6  and  O_7
REMARK    4  A    between atoms: O_7  and  C_8
REMARK    5  A    between atoms: C_9  and  N_10
REMARK    6  A    between atoms: C_11  and  C_13
REMARK    7  A    between atoms: C_13  and  C_14
REMARK    8  A    between atoms: C_14  and  C_15
REMARK    9  A    between atoms: C_17  and  C_18
REMARK   10  A    between atoms: C_21  and  C_22
REMARK                            x       y       z     vdW  Elec       q    Type
REMARK                         _______ _______ _______ _____ _____    ______ ____
ROOT
ATOM      1  N   UNL     1       4.050   4.249  18.396  0.00  0.00    +0.000 N 
ATOM      2  C   UNL     1       2.714   3.983  18.162  0.00  0.00    +0.000 C 
ATOM      3  O   UNL     1       2.202   3.656  17.094  0.00  0.00    +0.000 OA
ATOM      4  H   UNL     1       4.358   4.140  19.353  0.00  0.00    +0.000 HD
ENDROOT
BRANCH   1   9
ATOM      5  C   UNL     1       5.588   4.369  15.037  0.00  0.00    +0.000 A 
ATOM      6  C   UNL     1       6.927   4.611  15.323  0.00  0.00    +0.000 A 
ATOM      7  C   UNL     1       7.352   4.732  16.645  0.00  0.00    +0.000 A 
ATOM      8  C   UNL     1       6.448   4.591  17.706  0.00  0.00    +0.000 A 
ATOM      9  C   UNL     1       5.079   4.393  17.425  0.00  0.00    +0.000 A 
ATOM     10  C   UNL     1       4.671   4.248  16.084  0.00  0.00    +0.000 A 
BRANCH   5  12
ATOM     11  C   UNL     1       6.317   3.592  12.933  0.00  0.00    +0.000 C 
ATOM     12  O   UNL     1       5.294   4.201  13.712  0.00  0.00    +0.000 OA
ENDBRANCH   5  12
BRANCH   8  13
ATOM     13  O   UNL     1       6.848   4.563  19.013  0.00  0.00    +0.000 OA
ATOM     14  C   UNL     1       7.488   5.713  19.546  0.00  0.00    +0.000 C 
ENDBRANCH   8  13
ENDBRANCH   1   9
BRANCH   2  15
ATOM     15  C   UNL     1       1.887   4.008  19.434  0.00  0.00    +0.000 C 
BRANCH  15  16
ATOM     16  C   UNL     1       2.564   4.885  20.483  0.00  0.00    +0.000 C 
BRANCH  16  17
ATOM     17  C   UNL     1       2.087   6.281  20.416  0.00  0.00    +0.000 A 
ATOM     18  N   UNL     1       1.300   6.934  21.235  0.00  0.00    +0.000 NA
ATOM     19  C   UNL     1       1.238   8.185  20.656  0.00  0.00    +0.000 A 
ATOM     20  N   UNL     1       1.947   8.292  19.518  0.00  0.00    +0.000 NA
ATOM     21  O   UNL     1       2.514   7.030  19.361  0.00  0.00    +0.000 OA
BRANCH  19  22
ATOM     22  C   UNL     1       0.450   9.266  21.235  0.00  0.00    +0.000 A 
ATOM     23  C   UNL     1       0.043   9.198  22.575  0.00  0.00    +0.000 A 
ATOM     24  C   UNL     1      -0.724  10.219  23.142  0.00  0.00    +0.000 A 
ATOM     25  C   UNL     1      -1.098  11.328  22.377  0.00  0.00    +0.000 A 
ATOM     26  C   UNL     1      -1.919  12.434  22.971  0.00  0.00    +0.000 C 
ATOM     27  C   UNL     1      -0.690  11.403  21.040  0.00  0.00    +0.000 A 
ATOM     28  C   UNL     1       0.079  10.382  20.474  0.00  0.00    +0.000 A 
ENDBRANCH  19  22
ENDBRANCH  16  17
ENDBRANCH  15  16
ENDBRANCH   2  15
TORSDOF 7
ENDMDL
MODEL 5
REMARK VINA RESULT:      -7.5      2.789      4.638
REMARK  Name = 
REMARK  10 active torsions:
REMARK  status: ('A' for Active; 'I' for Inactive)
REMARK    1  A    between atoms: C_1  and  O_2
REMARK    2  A    between atoms: O_2  and  C_3
REMARK    3  A    between atoms: C_6  and  O_7
REMARK    4  A    between atoms: O_7  and  C_8
REMARK    5  A    between atoms: C_9  and  N_10
REMARK    6  A    between atoms: C_11  and  C_13
REMARK    7  A    between atoms: C_13  and  C_14
REMARK    8  A    between atoms: C_14  and  C_15
REMARK    9  A    between atoms: C_17  and  C_18
REMARK   10  A    between atoms: C_21  and  C_22
REMARK                            x       y       z     vdW  Elec       q    Type
REMARK                         _______ _______ _______ _____ _____    ______ ____
ROOT
ATOM      1  N   UNL     1       6.703   7.485  16.926  0.00  0.00    +0.000 N 
ATOM      2  C   UNL     1       7.678   7.759  17.866  0.00  0.00    +0.000 C 
ATOM      3  O   UNL     1       8.228   6.956  18.615  0.00  0.00    +0.000 OA
ATOM      4  H   UNL     1       6.626   8.150  16.167  0.00  0.00    +0.000 HD
ENDROOT
BRANCH   1   9
ATOM      5  C   UNL     1       4.136   4.906  17.575  0.00  0.00    +0.000 A 
ATOM      6  C   UNL     1       4.446   3.925  16.640  0.00  0.00    +0.000 A 
ATOM      7  C   UNL     1       5.525   4.095  15.775  0.00  0.00    +0.000 A 
ATOM      8  C   UNL     1       6.328   5.241  15.844  0.00  0.00    +0.000 A 
ATOM      9  C   UNL     1       5.992   6.265  16.756  0.00  0.00    +0.000 A 
ATOM     10  C   UNL     1       4.912   6.065  17.640  0.00  0.00    +0.000 A 
BRANCH   5  12
ATOM     11  C   UNL     1       1.816   4.548  17.804  0.00  0.00    +0.000 C 
ATOM     12  O   UNL     1       3.099   4.607  18.416  0.00  0.00    +0.000 OA
ENDBRANCH   5  12
BRANCH   8  13
ATOM     13  O   UNL     1       7.474   5.381  15.113  0.00  0.00    +0.000 OA
ATOM     14  C   UNL     1       7.441   5.032  13.736  0.00  0.00    +0.000 C 
ENDBRANCH   8  13
ENDBRANCH   1   9
BRANCH   2  15
ATOM     15  C   UNL     1       8.136   9.205  17.821  0.00  0.00    +0.000 C 
BRANCH  15  16
ATOM     16  C   UNL     1       9.147   9.470  18.932  0.00  0.00    +0.000 C 
BRANCH  16  17
ATOM     17  C   UNL     1       9.292  10.915  19.203  0.00  0.00    +0.000 A 
ATOM     18  N   UNL     1       9.606  11.889  18.385  0.00  0.00    +0.000 NA
ATOM     19  C   UNL     1       9.565  12.996  19.209  0.00  0.00    +0.000 A 
ATOM     20  N   UNL     1       9.252  12.710  20.485  0.00  0.00    +0.000 NA
ATOM     21  O   UNL     1       9.066  11.330  20.481  0.00  0.00    +0.000 OA
BRANCH  19  22
ATOM     22  C   UNL     1       9.860  14.336  18.717  0.00  0.00    +0.000 A 
ATOM     23  C   UNL     1      10.555  14.504  17.511  0.00  0.00    +0.000 A 
ATOM     24  C   UNL     1      10.858  15.782  17.033  0.00  0.00    +0.000 A 
ATOM     25  C   UNL     1      10.471  16.915  17.755  0.00  0.00    +0.000 A 
ATOM     26  C   UNL     1      10.787  18.293  17.254  0.00  0.00    +0.000 C 
ATOM     27  C   UNL     1       9.774  16.753  18.958  0.00  0.00    +0.000 A 
ATOM     28  C   UNL     1       9.470  15.474  19.435  0.00  0.00    +0.000 A 
ENDBRANCH  19  22
ENDBRANCH  16  17
ENDBRANCH  15  16
ENDBRANCH   2  15
TORSDOF 7
ENDMDL
MODEL 6
REMARK VINA RESULT:      -7.5      2.399      4.566
REMARK  Name = 
REMARK  10 active torsions:
REMARK  status: ('A' for Active; 'I' for Inactive)
REMARK    1  A    between atoms: C_1  and  O_2
REMARK    2  A    between atoms: O_2  and  C_3
REMARK    3  A    between atoms: C_6  and  O_7
REMARK    4  A    between atoms: O_7  and  C_8
REMARK    5  A    between atoms: C_9  and  N_10
REMARK    6  A    between atoms: C_11  and  C_13
REMARK    7  A    between atoms: C_13  and  C_14
REMARK    8  A    between atoms: C_14  and  C_15
REMARK    9  A    between atoms: C_17  and  C_18
REMARK   10  A    between atoms: C_21  and  C_22
REMARK                            x       y       z     vdW  Elec       q    Type
REMARK                         _______ _______ _______ _____ _____    ______ ____
ROOT
ATOM      1  N   UNL     1       6.688   7.502  16.939  0.00  0.00    +0.000 N 
ATOM      2  C   UNL     1       7.687   7.737  17.864  0.00  0.00    +0.000 C 
ATOM      3  O   UNL     1       8.214   6.914  18.608  0.00  0.00    +0.000 OA
ATOM      4  H   UNL     1       6.628   8.167  16.179  0.00  0.00    +0.000 HD
ENDROOT
BRANCH   1   9
ATOM      5  C   UNL     1       3.995   5.058  17.602  0.00  0.00    +0.000 A 
ATOM      6  C   UNL     1       4.273   4.044  16.694  0.00  0.00    +0.000 A 
ATOM      7  C   UNL     1       5.371   4.145  15.842  0.00  0.00    +0.000 A 
ATOM      8  C   UNL     1       6.225   5.255  15.899  0.00  0.00    +0.000 A 
ATOM      9  C   UNL     1       5.924   6.312  16.784  0.00  0.00    +0.000 A 
ATOM     10  C   UNL     1       4.824   6.181  17.655  0.00  0.00    +0.000 A 
BRANCH   5  12
ATOM     11  C   UNL     1       2.800   3.483  18.887  0.00  0.00    +0.000 C 
ATOM     12  O   UNL     1       2.934   4.825  18.434  0.00  0.00    +0.000 OA
ENDBRANCH   5  12
BRANCH   8  13
ATOM     13  O   UNL     1       7.387   5.326  15.182  0.00  0.00    +0.000 OA
ATOM     14  C   UNL     1       7.360   4.939  13.816  0.00  0.00    +0.000 C 
ENDBRANCH   8  13
ENDBRANCH   1   9
BRANCH   2  15
ATOM     15  C   UNL     1       8.205   9.162  17.807  0.00  0.00    +0.000 C 
BRANCH  15  16
ATOM     16  C   UNL     1       8.982   9.490  19.078  0.00  0.00    +0.000 C 
BRANCH  16  17
ATOM     17  C   UNL     1       9.577  10.841  19.019  0.00  0.00    +0.000 A 
ATOM     18  N   UNL     1       9.735  11.725  19.973  0.00  0.00    +0.000 NA
ATOM     19  C   UNL     1      10.356  12.767  19.315  0.00  0.00    +0.000 A 
ATOM     20  N   UNL     1      10.558  12.538  18.006  0.00  0.00    +0.000 NA
ATOM     21  O   UNL     1      10.045  11.258  17.810  0.00  0.00    +0.000 OA
BRANCH  19  22
ATOM     22  C   UNL     1      10.727  14.000  19.999  0.00  0.00    +0.000 A 
ATOM     23  C   UNL     1      10.163  14.309  21.244  0.00  0.00    +0.000 A 
ATOM     24  C   UNL     1      10.498  15.493  21.906  0.00  0.00    +0.000 A 
ATOM     25  C   UNL     1      11.404  16.391  21.332  0.00  0.00    +0.000 A 
ATOM     26  C   UNL     1      11.775  17.665  22.031  0.00  0.00    +0.000 C 
ATOM     27  C   UNL     1      11.973  16.084  20.090  0.00  0.00    +0.000 A 
ATOM     28  C   UNL     1      11.639  14.899  19.429  0.00  0.00    +0.000 A 
ENDBRANCH  19  22
ENDBRANCH  16  17
ENDBRANCH  15  16
ENDBRANCH   2  15
TORSDOF 7
ENDMDL
MODEL 7
REMARK VINA RESULT:      -7.5      1.174      1.583
REMARK  Name = 
REMARK  10 active torsions:
REMARK  status: ('A' for Active; 'I' for Inactive)
REMARK    1  A    between atoms: C_1  and  O_2
REMARK    2  A    between atoms: O_2  and  C_3
REMARK    3  A    between atoms: C_6  and  O_7
REMARK    4  A    between atoms: O_7  and  C_8
REMARK    5  A    between atoms: C_9  and  N_10
REMARK    6  A    between atoms: C_11  and  C_13
REMARK    7  A    between atoms: C_13  and  C_14
REMARK    8  A    between atoms: C_14  and  C_15
REMARK    9  A    between atoms: C_17  and  C_18
REMARK   10  A    between atoms: C_21  and  C_22
REMARK                            x       y       z     vdW  Elec       q    Type
REMARK                         _______ _______ _______ _____ _____    ______ ____
ROOT
ATOM      1  N   UNL     1       4.595   5.300  17.938  0.00  0.00    +0.000 N 
ATOM      2  C   UNL     1       5.857   4.835  18.258  0.00  0.00    +0.000 C 
ATOM      3  O   UNL     1       6.141   4.001  19.113  0.00  0.00    +0.000 OA
ATOM      4  H   UNL     1       4.491   5.681  17.007  0.00  0.00    +0.000 HD
ENDROOT
BRANCH   1   9
ATOM      5  C   UNL     1       1.843   5.972  20.313  0.00  0.00    +0.000 A 
ATOM      6  C   UNL     1       1.056   4.832  20.197  0.00  0.00    +0.000 A 
ATOM      7  C   UNL     1       1.427   3.806  19.330  0.00  0.00    +0.000 A 
ATOM      8  C   UNL     1       2.607   3.893  18.578  0.00  0.00    +0.000 A 
ATOM      9  C   UNL     1       3.387   5.066  18.652  0.00  0.00    +0.000 A 
ATOM     10  C   UNL     1       3.010   6.083  19.553  0.00  0.00    +0.000 A 
BRANCH   5  12
ATOM     11  C   UNL     1       1.310   8.222  20.772  0.00  0.00    +0.000 C 
ATOM     12  O   UNL     1       1.421   6.884  21.240  0.00  0.00    +0.000 OA
ENDBRANCH   5  12
BRANCH   8  13
ATOM     13  O   UNL     1       3.077   2.853  17.826  0.00  0.00    +0.000 OA
ATOM     14  C   UNL     1       3.421   1.644  18.488  0.00  0.00    +0.000 C 
ENDBRANCH   8  13
ENDBRANCH   1   9
BRANCH   2  15
ATOM     15  C   UNL     1       6.926   5.378  17.328  0.00  0.00    +0.000 C 
BRANCH  15  16
ATOM     16  C   UNL     1       6.584   6.804  16.910  0.00  0.00    +0.000 C 
BRANCH  16  17
ATOM     17  C   UNL     1       7.464   7.791  17.566  0.00  0.00    +0.000 A 
ATOM     18  N   UNL     1       7.683   9.047  17.262  0.00  0.00    +0.000 NA
ATOM     19  C   UNL     1       8.576   9.439  18.238  0.00  0.00    +0.000 A 
ATOM     20  N   UNL     1       8.904   8.459  19.098  0.00  0.00    +0.000 NA
ATOM     21  O   UNL     1       8.163   7.367  18.656  0.00  0.00    +0.000 OA
BRANCH  19  22
ATOM     22  C   UNL     1       9.114  10.793  18.292  0.00  0.00    +0.000 A 
ATOM     23  C   UNL     1      10.336  11.037  18.935  0.00  0.00    +0.000 A 
ATOM     24  C   UNL     1      10.859  12.330  19.008  0.00  0.00    +0.000 A 
ATOM     25  C   UNL     1      10.168  13.404  18.439  0.00  0.00    +0.000 A 
ATOM     26  C   UNL     1      10.718  14.798  18.507  0.00  0.00    +0.000 C 
ATOM     27  C   UNL     1       8.950  13.165  17.792  0.00  0.00    +0.000 A 
ATOM     28  C   UNL     1       8.428  11.871  17.718  0.00  0.00    +0.000 A 
ENDBRANCH  19  22
ENDBRANCH  16  17
ENDBRANCH  15  16
ENDBRANCH   2  15
TORSDOF 7
ENDMDL
MODEL 8
REMARK VINA RESULT:      -7.4      2.007      3.147
REMARK  Name = 
REMARK  10 active torsions:
REMARK  status: ('A' for Active; 'I' for Inactive)
REMARK    1  A    between atoms: C_1  and  O_2
REMARK    2  A    between atoms: O_2  and  C_3
REMARK    3  A    between atoms: C_6  and  O_7
REMARK    4  A    between atoms: O_7  and  C_8
REMARK    5  A    between atoms: C_9  and  N_10
REMARK    6  A    between atoms: C_11  and  C_13
REMARK    7  A    between atoms: C_13  and  C_14
REMARK    8  A    between atoms: C_14  and  C_15
REMARK    9  A    between atoms: C_17  and  C_18
REMARK   10  A    between atoms: C_21  and  C_22
REMARK                            x       y       z     vdW  Elec       q    Type
REMARK                         _______ _______ _______ _____ _____    ______ ____
ROOT
ATOM      1  N   UNL     1       5.850   5.835  18.415  0.00  0.00    +0.000 N 
ATOM      2  C   UNL     1       7.204   5.555  18.392  0.00  0.00    +0.000 C 
ATOM      3  O   UNL     1       7.733   4.496  18.066  0.00  0.00    +0.000 OA
ATOM      4  H   UNL     1       5.604   6.813  18.344  0.00  0.00    +0.000 HD
ENDROOT
BRANCH   1   9
ATOM      5  C   UNL     1       3.224   3.441  19.433  0.00  0.00    +0.000 A 
ATOM      6  C   UNL     1       2.682   3.048  18.215  0.00  0.00    +0.000 A 
ATOM      7  C   UNL     1       3.184   3.564  17.022  0.00  0.00    +0.000 A 
ATOM      8  C   UNL     1       4.254   4.469  17.025  0.00  0.00    +0.000 A 
ATOM      9  C   UNL     1       4.780   4.912  18.258  0.00  0.00    +0.000 A 
ATOM     10  C   UNL     1       4.276   4.360  19.453  0.00  0.00    +0.000 A 
BRANCH   5  12
ATOM     11  C   UNL     1       2.181   3.693  21.533  0.00  0.00    +0.000 C 
ATOM     12  O   UNL     1       2.701   2.822  20.534  0.00  0.00    +0.000 OA
ENDBRANCH   5  12
BRANCH   8  13
ATOM     13  O   UNL     1       4.865   4.889  15.877  0.00  0.00    +0.000 OA
ATOM     14  C   UNL     1       5.734   3.987  15.208  0.00  0.00    +0.000 C 
ENDBRANCH   8  13
ENDBRANCH   1   9
BRANCH   2  15
ATOM     15  C   UNL     1       8.052   6.773  18.705  0.00  0.00    +0.000 C 
BRANCH  15  16
ATOM     16  C   UNL     1       7.745   7.895  17.718  0.00  0.00    +0.000 C 
BRANCH  16  17
ATOM     17  C   UNL     1       8.330   9.179  18.154  0.00  0.00    +0.000 A 
ATOM     18  N   UNL     1       8.128  10.388  17.690  0.00  0.00    +0.000 NA
ATOM     19  C   UNL     1       8.932  11.158  18.504  0.00  0.00    +0.000 A 
ATOM     20  N   UNL     1       9.613  10.449  19.422  0.00  0.00    +0.000 NA
ATOM     21  O   UNL     1       9.210   9.136  19.193  0.00  0.00    +0.000 OA
BRANCH  19  22
ATOM     22  C   UNL     1       9.032  12.604  18.346  0.00  0.00    +0.000 A 
ATOM     23  C   UNL     1       7.953  13.329  17.822  0.00  0.00    +0.000 A 
ATOM     24  C   UNL     1       8.038  14.713  17.651  0.00  0.00    +0.000 A 
ATOM     25  C   UNL     1       9.205  15.398  18.003  0.00  0.00    +0.000 A 
ATOM     26  C   UNL     1       9.311  16.884  17.828  0.00  0.00    +0.000 C 
ATOM     27  C   UNL     1      10.284  14.679  18.530  0.00  0.00    +0.000 A 
ATOM     28  C   UNL     1      10.199  13.294  18.702  0.00  0.00    +0.000 A 
ENDBRANCH  19  22
ENDBRANCH  16  17
ENDBRANCH  15  16
ENDBRANCH   2  15
TORSDOF 7
ENDMDL
MODEL 9
REMARK VINA RESULT:      -7.4      3.989      7.693
REMARK  Name = 
REMARK  10 active torsions:
REMARK  status: ('A' for Active; 'I' for Inactive)
REMARK    1  A    between atoms: C_1  and  O_2
REMARK    2  A    between atoms: O_2  and  C_3
REMARK    3  A    between atoms: C_6  and  O_7
REMARK    4  A    between atoms: O_7  and  C_8
REMARK    5  A    between atoms: C_9  and  N_10
REMARK    6  A    between atoms: C_11  and  C_13
REMARK    7  A    between atoms: C_13  and  C_14
REMARK    8  A    between atoms: C_14  and  C_15
REMARK    9  A    between atoms: C_17  and  C_18
REMARK   10  A    between atoms: C_21  and  C_22
REMARK                            x       y       z     vdW  Elec       q    Type
REMARK                         _______ _______ _______ _____ _____    ______ ____
ROOT
ATOM      1  N   UNL     1       3.853   4.699  17.400  0.00  0.00    +0.000 N 
ATOM      2  C   UNL     1       3.644   3.851  18.472  0.00  0.00    +0.000 C 
ATOM      3  O   UNL     1       4.487   3.166  19.046  0.00  0.00    +0.000 OA
ATOM      4  H   UNL     1       3.173   5.440  17.289  0.00  0.00    +0.000 HD
ENDROOT
BRANCH   1   9
ATOM      5  C   UNL     1       6.111   4.143  14.527  0.00  0.00    +0.000 A 
ATOM      6  C   UNL     1       7.245   4.860  14.888  0.00  0.00    +0.000 A 
ATOM      7  C   UNL     1       7.290   5.541  16.103  0.00  0.00    +0.000 A 
ATOM      8  C   UNL     1       6.206   5.498  16.991  0.00  0.00    +0.000 A 
ATOM      9  C   UNL     1       5.031   4.813  16.613  0.00  0.00    +0.000 A 
ATOM     10  C   UNL     1       5.014   4.110  15.391  0.00  0.00    +0.000 A 
BRANCH   5  12
ATOM     11  C   UNL     1       5.082   3.594  12.478  0.00  0.00    +0.000 C 
ATOM     12  O   UNL     1       6.201   3.459  13.346  0.00  0.00    +0.000 OA
ENDBRANCH   5  12
BRANCH   8  13
ATOM     13  O   UNL     1       6.263   6.033  18.247  0.00  0.00    +0.000 OA
ATOM     14  C   UNL     1       7.453   5.856  19.001  0.00  0.00    +0.000 C 
ENDBRANCH   8  13
ENDBRANCH   1   9
BRANCH   2  15
ATOM     15  C   UNL     1       2.224   3.925  19.001  0.00  0.00    +0.000 C 
BRANCH  15  16
ATOM     16  C   UNL     1       2.218   4.512  20.409  0.00  0.00    +0.000 C 
BRANCH  16  17
ATOM     17  C   UNL     1       1.910   5.956  20.396  0.00  0.00    +0.000 A 
ATOM     18  N   UNL     1       1.136   6.652  21.193  0.00  0.00    +0.000 NA
ATOM     19  C   UNL     1       1.265   7.931  20.693  0.00  0.00    +0.000 A 
ATOM     20  N   UNL     1       2.075   8.016  19.623  0.00  0.00    +0.000 NA
ATOM     21  O   UNL     1       2.507   6.707  19.428  0.00  0.00    +0.000 OA
BRANCH  19  22
ATOM     22  C   UNL     1       0.559   9.064  21.279  0.00  0.00    +0.000 A 
ATOM     23  C   UNL     1       0.334  10.220  20.518  0.00  0.00    +0.000 A 
ATOM     24  C   UNL     1      -0.329  11.320  21.069  0.00  0.00    +0.000 A 
ATOM     25  C   UNL     1      -0.779  11.282  22.392  0.00  0.00    +0.000 A 
ATOM     26  C   UNL     1      -1.495  12.454  22.996  0.00  0.00    +0.000 C 
ATOM     27  C   UNL     1      -0.560  10.129  23.154  0.00  0.00    +0.000 A 
ATOM     28  C   UNL     1       0.102   9.028  22.602  0.00  0.00    +0.000 A 
ENDBRANCH  19  22
ENDBRANCH  16  17
ENDBRANCH  15  16
ENDBRANCH   2  15
TORSDOF 7
ENDMDL
