MODEL 1
REMARK VINA RESULT:      -6.5      0.000      0.000
REMARK  Name = 
REMARK  8 active torsions:
REMARK  status: ('A' for Active; 'I' for Inactive)
REMARK    1  A    between atoms: C_1  and  C_2
REMARK    2  A    between atoms: C_7  and  O_8
REMARK    3  A    between atoms: C_12  and  C_13
REMARK    4  A    between atoms: C_13  and  C_14
REMARK    5  A    between atoms: C_13  and  C_15
REMARK    6  A    between atoms: C_13  and  C_16
REMARK    7  A    between atoms: C_22  and  O_23
REMARK    8  A    between atoms: C_29  and  O_30
REMARK                            x       y       z     vdW  Elec       q    Type
REMARK                         _______ _______ _______ _____ _____    ______ ____
ROOT
ATOM      1  C   UNL     1       1.344   9.593  18.888  0.00  0.00    +0.000 C 
ATOM      2  C   UNL     1       0.235  10.677  19.017  0.00  0.00    +0.000 C 
ATOM      3  C   UNL     1      -0.868  10.207  18.067  0.00  0.00    +0.000 C 
ATOM      4  O   UNL     1      -0.750   9.516  17.066  0.00  0.00    +0.000 OA
ATOM      5  O   UNL     1      -2.060  10.755  18.427  0.00  0.00    +0.000 OA
ATOM      6  C   UNL     1      -1.988  11.186  19.771  0.00  0.00    +0.000 C 
ATOM      7  C   UNL     1      -2.191  12.719  19.883  0.00  0.00    +0.000 C 
ATOM      8  C   UNL     1      -1.684  13.071  21.321  0.00  0.00    +0.000 C 
ATOM      9  C   UNL     1      -2.758  12.600  22.277  0.00  0.00    +0.000 C 
ATOM     10  C   UNL     1      -3.333  13.835  22.924  0.00  0.00    +0.000 C 
ATOM     11  C   UNL     1      -2.087  14.638  23.282  0.00  0.00    +0.000 C 
ATOM     12  C   UNL     1      -1.225  14.650  21.711  0.00  0.00    +0.000 C 
ATOM     13  C   UNL     1       0.239  14.111  21.055  0.00  0.00    +0.000 C 
ATOM     14  O   UNL     1       1.340  14.993  21.080  0.00  0.00    +0.000 OA
ATOM     15  C   UNL     1       0.752  16.167  21.393  0.00  0.00    +0.000 C 
ATOM     16  O   UNL     1       1.160  17.284  21.093  0.00  0.00    +0.000 OA
ATOM     17  C   UNL     1      -0.327  15.763  22.313  0.00  0.00    +0.000 C 
ATOM     18  O   UNL     1       0.624  12.817  21.500  0.00  0.00    +0.000 OA
ATOM     19  C   UNL     1      -0.536  12.033  21.476  0.00  0.00    +0.000 C 
ATOM     20  C   UNL     1      -0.889  11.413  22.820  0.00  0.00    +0.000 C 
ATOM     21  O   UNL     1      -0.215  10.553  23.380  0.00  0.00    +0.000 OA
ATOM     22  O   UNL     1      -2.115  11.789  23.253  0.00  0.00    +0.000 OA
ATOM     23  C   UNL     1      -0.599  10.859  20.341  0.00  0.00    +0.000 C 
ENDROOT
BRANCH  11  24
ATOM     24  C   UNL     1      -2.575  15.971  24.248  0.00  0.00    +0.000 C 
ATOM     25  C   UNL     1      -4.061  15.770  24.714  0.00  0.00    +0.000 C 
ATOM     26  C   UNL     1      -1.860  16.166  25.627  0.00  0.00    +0.000 C 
ATOM     27  C   UNL     1      -2.556  17.345  23.542  0.00  0.00    +0.000 C 
ENDBRANCH  11  24
BRANCH   7  28
ATOM     28  O   UNL     1      -1.466  13.381  18.862  0.00  0.00    +0.000 OA
ATOM     29  H   UNL     1      -1.885  14.254  18.705  0.00  0.00    +0.000 HD
ENDBRANCH   7  28
BRANCH  17  30
ATOM     30  O   UNL     1       0.349  15.370  23.523  0.00  0.00    +0.000 OA
ATOM     31  H   UNL     1      -0.144  14.655  23.970  0.00  0.00    +0.000 HD
ENDBRANCH  17  30
BRANCH  23  32
ATOM     32  O   UNL     1      -0.696   9.529  20.899  0.00  0.00    +0.000 OA
ATOM     33  H   UNL     1       0.133   9.249  21.344  0.00  0.00    +0.000 HD
ENDBRANCH  23  32
TORSDOF 4
ENDMDL
MODEL 2
REMARK VINA RESULT:      -6.5      2.251      5.567
REMARK  Name = 
REMARK  8 active torsions:
REMARK  status: ('A' for Active; 'I' for Inactive)
REMARK    1  A    between atoms: C_1  and  C_2
REMARK    2  A    between atoms: C_7  and  O_8
REMARK    3  A    between atoms: C_12  and  C_13
REMARK    4  A    between atoms: C_13  and  C_14
REMARK    5  A    between atoms: C_13  and  C_15
REMARK    6  A    between atoms: C_13  and  C_16
REMARK    7  A    between atoms: C_22  and  O_23
REMARK    8  A    between atoms: C_29  and  O_30
REMARK                            x       y       z     vdW  Elec       q    Type
REMARK                         _______ _______ _______ _____ _____    ______ ____
ROOT
ATOM      1  C   UNL     1      -4.616  12.340  24.928  0.00  0.00    +0.000 C 
ATOM      2  C   UNL     1      -4.206  12.680  23.467  0.00  0.00    +0.000 C 
ATOM      3  C   UNL     1      -5.465  13.294  22.851  0.00  0.00    +0.000 C 
ATOM      4  O   UNL     1      -6.628  13.091  23.168  0.00  0.00    +0.000 OA
ATOM      5  O   UNL     1      -5.134  14.067  21.783  0.00  0.00    +0.000 OA
ATOM      6  C   UNL     1      -3.767  14.415  21.864  0.00  0.00    +0.000 C 
ATOM      7  C   UNL     1      -2.970  13.856  20.656  0.00  0.00    +0.000 C 
ATOM      8  C   UNL     1      -1.474  13.966  21.099  0.00  0.00    +0.000 C 
ATOM      9  C   UNL     1      -1.105  15.429  20.994  0.00  0.00    +0.000 C 
ATOM     10  C   UNL     1      -0.073  15.538  19.900  0.00  0.00    +0.000 C 
ATOM     11  C   UNL     1       0.873  14.383  20.215  0.00  0.00    +0.000 C 
ATOM     12  C   UNL     1      -0.284  13.022  20.356  0.00  0.00    +0.000 C 
ATOM     13  C   UNL     1      -0.807  11.909  21.518  0.00  0.00    +0.000 C 
ATOM     14  O   UNL     1      -0.135  10.670  21.596  0.00  0.00    +0.000 OA
ATOM     15  C   UNL     1       0.580  10.665  20.453  0.00  0.00    +0.000 C 
ATOM     16  O   UNL     1       0.949   9.673  19.833  0.00  0.00    +0.000 OA
ATOM     17  C   UNL     1       0.950  12.083  20.286  0.00  0.00    +0.000 C 
ATOM     18  O   UNL     1      -0.977  12.469  22.813  0.00  0.00    +0.000 OA
ATOM     19  C   UNL     1      -1.612  13.703  22.626  0.00  0.00    +0.000 C 
ATOM     20  C   UNL     1      -0.840  14.886  23.192  0.00  0.00    +0.000 C 
ATOM     21  O   UNL     1      -0.643  15.070  24.390  0.00  0.00    +0.000 OA
ATOM     22  O   UNL     1      -0.537  15.803  22.243  0.00  0.00    +0.000 OA
ATOM     23  C   UNL     1      -3.159  13.812  23.140  0.00  0.00    +0.000 C 
ENDROOT
BRANCH  11  24
ATOM     24  C   UNL     1       2.243  14.525  19.188  0.00  0.00    +0.000 C 
ATOM     25  C   UNL     1       2.224  15.924  18.473  0.00  0.00    +0.000 C 
ATOM     26  C   UNL     1       3.654  14.561  19.864  0.00  0.00    +0.000 C 
ATOM     27  C   UNL     1       2.326  13.489  18.046  0.00  0.00    +0.000 C 
ENDBRANCH  11  24
BRANCH   7  28
ATOM     28  O   UNL     1      -3.372  12.526  20.383  0.00  0.00    +0.000 OA
ATOM     29  H   UNL     1      -3.080  11.958  21.127  0.00  0.00    +0.000 HD
ENDBRANCH   7  28
BRANCH  17  30
ATOM     30  O   UNL     1       1.926  12.333  21.316  0.00  0.00    +0.000 OA
ATOM     31  H   UNL     1       1.488  12.420  22.184  0.00  0.00    +0.000 HD
ENDBRANCH  17  30
BRANCH  23  32
ATOM     32  O   UNL     1      -3.348  14.798  24.180  0.00  0.00    +0.000 OA
ATOM     33  H   UNL     1      -2.498  15.158  24.513  0.00  0.00    +0.000 HD
ENDBRANCH  23  32
TORSDOF 4
ENDMDL
MODEL 3
REMARK VINA RESULT:      -6.3      2.454      6.390
REMARK  Name = 
REMARK  8 active torsions:
REMARK  status: ('A' for Active; 'I' for Inactive)
REMARK    1  A    between atoms: C_1  and  C_2
REMARK    2  A    between atoms: C_7  and  O_8
REMARK    3  A    between atoms: C_12  and  C_13
REMARK    4  A    between atoms: C_13  and  C_14
REMARK    5  A    between atoms: C_13  and  C_15
REMARK    6  A    between atoms: C_13  and  C_16
REMARK    7  A    between atoms: C_22  and  O_23
REMARK    8  A    between atoms: C_29  and  O_30
REMARK                            x       y       z     vdW  Elec       q    Type
REMARK                         _______ _______ _______ _____ _____    ______ ____
ROOT
ATOM      1  C   UNL     1      -5.960  17.867  23.231  0.00  0.00    +0.000 C 
ATOM      2  C   UNL     1      -4.652  17.083  23.540  0.00  0.00    +0.000 C 
ATOM      3  C   UNL     1      -4.452  17.256  25.047  0.00  0.00    +0.000 C 
ATOM      4  O   UNL     1      -4.838  18.177  25.753  0.00  0.00    +0.000 OA
ATOM      5  O   UNL     1      -3.665  16.259  25.532  0.00  0.00    +0.000 OA
ATOM      6  C   UNL     1      -3.670  15.176  24.623  0.00  0.00    +0.000 C 
ATOM      7  C   UNL     1      -2.249  14.902  24.066  0.00  0.00    +0.000 C 
ATOM      8  C   UNL     1      -2.495  13.994  22.816  0.00  0.00    +0.000 C 
ATOM      9  C   UNL     1      -2.831  12.618  23.349  0.00  0.00    +0.000 C 
ATOM     10  C   UNL     1      -1.704  11.706  22.933  0.00  0.00    +0.000 C 
ATOM     11  C   UNL     1      -1.488  12.085  21.472  0.00  0.00    +0.000 C 
ATOM     12  C   UNL     1      -1.327  13.865  21.600  0.00  0.00    +0.000 C 
ATOM     13  C   UNL     1      -2.114  15.260  21.054  0.00  0.00    +0.000 C 
ATOM     14  O   UNL     1      -1.686  15.826  19.835  0.00  0.00    +0.000 OA
ATOM     15  C   UNL     1      -0.519  15.184  19.621  0.00  0.00    +0.000 C 
ATOM     16  O   UNL     1       0.438  15.613  18.986  0.00  0.00    +0.000 OA
ATOM     17  C   UNL     1      -0.783  13.832  20.147  0.00  0.00    +0.000 C 
ATOM     18  O   UNL     1      -3.532  15.171  21.094  0.00  0.00    +0.000 OA
ATOM     19  C   UNL     1      -3.853  14.565  22.315  0.00  0.00    +0.000 C 
ATOM     20  C   UNL     1      -4.667  13.287  22.176  0.00  0.00    +0.000 C 
ATOM     21  O   UNL     1      -5.820  13.249  21.755  0.00  0.00    +0.000 OA
ATOM     22  O   UNL     1      -4.044  12.218  22.724  0.00  0.00    +0.000 OA
ATOM     23  C   UNL     1      -4.579  15.513  23.431  0.00  0.00    +0.000 C 
ENDROOT
BRANCH  11  24
ATOM     24  C   UNL     1      -0.390  10.955  20.788  0.00  0.00    +0.000 C 
ATOM     25  C   UNL     1      -0.281   9.695  21.720  0.00  0.00    +0.000 C 
ATOM     26  C   UNL     1      -0.792  10.282  19.433  0.00  0.00    +0.000 C 
ATOM     27  C   UNL     1       1.061  11.458  20.618  0.00  0.00    +0.000 C 
ENDBRANCH  11  24
BRANCH   7  28
ATOM     28  O   UNL     1      -1.607  16.124  23.746  0.00  0.00    +0.000 OA
ATOM     29  H   UNL     1      -0.941  16.311  24.441  0.00  0.00    +0.000 HD
ENDBRANCH   7  28
BRANCH  17  30
ATOM     30  O   UNL     1      -1.694  13.239  19.202  0.00  0.00    +0.000 OA
ATOM     31  H   UNL     1      -1.971  12.354  19.507  0.00  0.00    +0.000 HD
ENDBRANCH  17  30
BRANCH  23  32
ATOM     32  O   UNL     1      -5.902  15.058  23.793  0.00  0.00    +0.000 OA
ATOM     33  H   UNL     1      -6.357  14.602  23.053  0.00  0.00    +0.000 HD
ENDBRANCH  23  32
TORSDOF 4
ENDMDL
MODEL 4
REMARK VINA RESULT:      -6.2      2.359      4.245
REMARK  Name = 
REMARK  8 active torsions:
REMARK  status: ('A' for Active; 'I' for Inactive)
REMARK    1  A    between atoms: C_1  and  C_2
REMARK    2  A    between atoms: C_7  and  O_8
REMARK    3  A    between atoms: C_12  and  C_13
REMARK    4  A    between atoms: C_13  and  C_14
REMARK    5  A    between atoms: C_13  and  C_15
REMARK    6  A    between atoms: C_13  and  C_16
REMARK    7  A    between atoms: C_22  and  O_23
REMARK    8  A    between atoms: C_29  and  O_30
REMARK                            x       y       z     vdW  Elec       q    Type
REMARK                         _______ _______ _______ _____ _____    ______ ____
ROOT
ATOM      1  C   UNL     1       0.020   9.684  23.457  0.00  0.00    +0.000 C 
ATOM      2  C   UNL     1       0.250  10.292  22.043  0.00  0.00    +0.000 C 
ATOM      3  C   UNL     1      -0.371   9.274  21.086  0.00  0.00    +0.000 C 
ATOM      4  O   UNL     1      -0.513   8.072  21.260  0.00  0.00    +0.000 OA
ATOM      5  O   UNL     1      -0.683   9.871  19.905  0.00  0.00    +0.000 OA
ATOM      6  C   UNL     1      -0.761  11.270  20.096  0.00  0.00    +0.000 C 
ATOM      7  C   UNL     1       0.299  12.015  19.244  0.00  0.00    +0.000 C 
ATOM      8  C   UNL     1       0.352  13.450  19.866  0.00  0.00    +0.000 C 
ATOM      9  C   UNL     1      -0.898  14.162  19.400  0.00  0.00    +0.000 C 
ATOM     10  C   UNL     1      -0.446  15.284  18.499  0.00  0.00    +0.000 C 
ATOM     11  C   UNL     1       0.710  15.897  19.281  0.00  0.00    +0.000 C 
ATOM     12  C   UNL     1       1.699  14.444  19.627  0.00  0.00    +0.000 C 
ATOM     13  C   UNL     1       2.258  13.571  20.965  0.00  0.00    +0.000 C 
ATOM     14  O   UNL     1       3.514  13.920  21.504  0.00  0.00    +0.000 OA
ATOM     15  C   UNL     1       4.024  14.713  20.539  0.00  0.00    +0.000 C 
ATOM     16  O   UNL     1       5.213  14.890  20.300  0.00  0.00    +0.000 OA
ATOM     17  C   UNL     1       2.835  15.421  20.029  0.00  0.00    +0.000 C 
ATOM     18  O   UNL     1       1.292  13.423  21.998  0.00  0.00    +0.000 OA
ATOM     19  C   UNL     1       0.082  13.118  21.363  0.00  0.00    +0.000 C 
ATOM     20  C   UNL     1      -1.042  14.095  21.674  0.00  0.00    +0.000 C 
ATOM     21  O   UNL     1      -1.555  14.222  22.782  0.00  0.00    +0.000 OA
ATOM     22  O   UNL     1      -1.530  14.689  20.561  0.00  0.00    +0.000 OA
ATOM     23  C   UNL     1      -0.488  11.601  21.571  0.00  0.00    +0.000 C 
ENDROOT
BRANCH  11  24
ATOM     24  C   UNL     1       1.176  17.348  18.487  0.00  0.00    +0.000 C 
ATOM     25  C   UNL     1       0.011  17.837  17.554  0.00  0.00    +0.000 C 
ATOM     26  C   UNL     1       1.395  18.620  19.372  0.00  0.00    +0.000 C 
ATOM     27  C   UNL     1       2.410  17.233  17.565  0.00  0.00    +0.000 C 
ENDBRANCH  11  24
BRANCH   7  28
ATOM     28  O   UNL     1       1.540  11.336  19.309  0.00  0.00    +0.000 OA
ATOM     29  H   UNL     1       1.837  11.329  20.244  0.00  0.00    +0.000 HD
ENDBRANCH   7  28
BRANCH  17  30
ATOM     30  O   UNL     1       2.469  16.333  21.082  0.00  0.00    +0.000 OA
ATOM     31  H   UNL     1       1.974  17.091  20.717  0.00  0.00    +0.000 HD
ENDBRANCH  17  30
BRANCH  23  32
ATOM     32  O   UNL     1      -1.771  11.559  22.237  0.00  0.00    +0.000 OA
ATOM     33  H   UNL     1      -2.516  11.736  21.624  0.00  0.00    +0.000 HD
ENDBRANCH  23  32
TORSDOF 4
ENDMDL
MODEL 5
REMARK VINA RESULT:      -6.2      2.434      6.338
REMARK  Name = 
REMARK  8 active torsions:
REMARK  status: ('A' for Active; 'I' for Inactive)
REMARK    1  A    between atoms: C_1  and  C_2
REMARK    2  A    between atoms: C_7  and  O_8
REMARK    3  A    between atoms: C_12  and  C_13
REMARK    4  A    between atoms: C_13  and  C_14
REMARK    5  A    between atoms: C_13  and  C_15
REMARK    6  A    between atoms: C_13  and  C_16
REMARK    7  A    between atoms: C_22  and  O_23
REMARK    8  A    between atoms: C_29  and  O_30
REMARK                            x       y       z     vdW  Elec       q    Type
REMARK                         _______ _______ _______ _____ _____    ______ ____
ROOT
ATOM      1  C   UNL     1      -0.385  16.754  24.138  0.00  0.00    +0.000 C 
ATOM      2  C   UNL     1      -1.136  15.411  23.909  0.00  0.00    +0.000 C 
ATOM      3  C   UNL     1      -1.785  15.103  25.259  0.00  0.00    +0.000 C 
ATOM      4  O   UNL     1      -1.410  15.456  26.368  0.00  0.00    +0.000 OA
ATOM      5  O   UNL     1      -2.840  14.262  25.091  0.00  0.00    +0.000 OA
ATOM      6  C   UNL     1      -3.266  14.311  23.744  0.00  0.00    +0.000 C 
ATOM      7  C   UNL     1      -3.117  12.930  23.055  0.00  0.00    +0.000 C 
ATOM      8  C   UNL     1      -3.227  13.249  21.527  0.00  0.00    +0.000 C 
ATOM      9  C   UNL     1      -4.691  13.515  21.253  0.00  0.00    +0.000 C 
ATOM     10  C   UNL     1      -5.172  12.404  20.354  0.00  0.00    +0.000 C 
ATOM     11  C   UNL     1      -4.057  12.305  19.317  0.00  0.00    +0.000 C 
ATOM     12  C   UNL     1      -2.617  12.171  20.375  0.00  0.00    +0.000 C 
ATOM     13  C   UNL     1      -1.195  13.026  20.706  0.00  0.00    +0.000 C 
ATOM     14  O   UNL     1      -0.040  12.701  19.964  0.00  0.00    +0.000 OA
ATOM     15  C   UNL     1      -0.400  11.541  19.378  0.00  0.00    +0.000 C 
ATOM     16  O   UNL     1       0.357  10.642  19.026  0.00  0.00    +0.000 OA
ATOM     17  C   UNL     1      -1.836  11.736  19.107  0.00  0.00    +0.000 C 
ATOM     18  O   UNL     1      -1.373  14.435  20.765  0.00  0.00    +0.000 OA
ATOM     19  C   UNL     1      -2.556  14.652  21.482  0.00  0.00    +0.000 C 
ATOM     20  C   UNL     1      -3.604  15.447  20.719  0.00  0.00    +0.000 C 
ATOM     21  O   UNL     1      -3.477  16.627  20.403  0.00  0.00    +0.000 OA
ATOM     22  O   UNL     1      -4.763  14.763  20.573  0.00  0.00    +0.000 OA
ATOM     23  C   UNL     1      -2.396  15.313  22.968  0.00  0.00    +0.000 C 
ENDROOT
BRANCH  11  24
ATOM     24  C   UNL     1      -4.580  11.236  18.078  0.00  0.00    +0.000 C 
ATOM     25  C   UNL     1      -6.008  10.681  18.427  0.00  0.00    +0.000 C 
ATOM     26  C   UNL     1      -4.843  11.845  16.660  0.00  0.00    +0.000 C 
ATOM     27  C   UNL     1      -3.701   9.984  17.866  0.00  0.00    +0.000 C 
ENDBRANCH  11  24
BRANCH   7  28
ATOM     28  O   UNL     1      -1.879  12.340  23.410  0.00  0.00    +0.000 OA
ATOM     29  H   UNL     1      -1.194  13.042  23.409  0.00  0.00    +0.000 HD
ENDBRANCH   7  28
BRANCH  17  30
ATOM     30  O   UNL     1      -1.881  12.702  18.039  0.00  0.00    +0.000 OA
ATOM     31  H   UNL     1      -2.775  13.088  17.969  0.00  0.00    +0.000 HD
ENDBRANCH  17  30
BRANCH  23  32
ATOM     32  O   UNL     1      -3.049  16.597  23.096  0.00  0.00    +0.000 OA
ATOM     33  H   UNL     1      -3.389  16.754  24.003  0.00  0.00    +0.000 HD
ENDBRANCH  23  32
TORSDOF 4
ENDMDL
MODEL 6
REMARK VINA RESULT:      -6.1      2.272      5.683
REMARK  Name = 
REMARK  8 active torsions:
REMARK  status: ('A' for Active; 'I' for Inactive)
REMARK    1  A    between atoms: C_1  and  C_2
REMARK    2  A    between atoms: C_7  and  O_8
REMARK    3  A    between atoms: C_12  and  C_13
REMARK    4  A    between atoms: C_13  and  C_14
REMARK    5  A    between atoms: C_13  and  C_15
REMARK    6  A    between atoms: C_13  and  C_16
REMARK    7  A    between atoms: C_22  and  O_23
REMARK    8  A    between atoms: C_29  and  O_30
REMARK                            x       y       z     vdW  Elec       q    Type
REMARK                         _______ _______ _______ _____ _____    ______ ____
ROOT
ATOM      1  C   UNL     1       2.736  17.123  16.794  0.00  0.00    +0.000 C 
ATOM      2  C   UNL     1       2.553  16.353  18.134  0.00  0.00    +0.000 C 
ATOM      3  C   UNL     1       3.746  16.786  18.988  0.00  0.00    +0.000 C 
ATOM      4  O   UNL     1       4.842  17.167  18.603  0.00  0.00    +0.000 OA
ATOM      5  O   UNL     1       3.471  16.598  20.306  0.00  0.00    +0.000 OA
ATOM      6  C   UNL     1       2.072  16.509  20.483  0.00  0.00    +0.000 C 
ATOM      7  C   UNL     1       1.662  15.126  21.051  0.00  0.00    +0.000 C 
ATOM      8  C   UNL     1       0.120  15.048  20.799  0.00  0.00    +0.000 C 
ATOM      9  C   UNL     1      -0.526  15.949  21.829  0.00  0.00    +0.000 C 
ATOM     10  C   UNL     1      -1.326  15.057  22.744  0.00  0.00    +0.000 C 
ATOM     11  C   UNL     1      -2.045  14.133  21.767  0.00  0.00    +0.000 C 
ATOM     12  C   UNL     1      -0.674  13.556  20.768  0.00  0.00    +0.000 C 
ATOM     13  C   UNL     1      -0.160  13.607  19.157  0.00  0.00    +0.000 C 
ATOM     14  O   UNL     1      -0.553  12.554  18.303  0.00  0.00    +0.000 OA
ATOM     15  C   UNL     1      -1.016  11.640  19.180  0.00  0.00    +0.000 C 
ATOM     16  O   UNL     1      -1.037  10.424  19.016  0.00  0.00    +0.000 OA
ATOM     17  C   UNL     1      -1.641  12.469  20.227  0.00  0.00    +0.000 C 
ATOM     18  O   UNL     1      -0.367  14.865  18.528  0.00  0.00    +0.000 OA
ATOM     19  C   UNL     1       0.013  15.837  19.462  0.00  0.00    +0.000 C 
ATOM     20  C   UNL     1      -1.089  16.829  19.802  0.00  0.00    +0.000 C 
ATOM     21  O   UNL     1      -1.548  17.646  19.009  0.00  0.00    +0.000 OA
ATOM     22  O   UNL     1      -1.391  16.830  21.122  0.00  0.00    +0.000 OA
ATOM     23  C   UNL     1       1.372  16.679  19.125  0.00  0.00    +0.000 C 
ENDROOT
BRANCH  11  24
ATOM     24  C   UNL     1      -3.189  13.209  22.655  0.00  0.00    +0.000 C 
ATOM     25  C   UNL     1      -3.740  14.062  23.854  0.00  0.00    +0.000 C 
ATOM     26  C   UNL     1      -4.523  12.821  21.936  0.00  0.00    +0.000 C 
ATOM     27  C   UNL     1      -2.642  11.916  23.299  0.00  0.00    +0.000 C 
ENDBRANCH  11  24
BRANCH   7  28
ATOM     28  O   UNL     1       2.384  14.098  20.396  0.00  0.00    +0.000 OA
ATOM     29  H   UNL     1       2.482  14.346  19.453  0.00  0.00    +0.000 HD
ENDBRANCH   7  28
BRANCH  17  30
ATOM     30  O   UNL     1      -2.828  13.006  19.612  0.00  0.00    +0.000 OA
ATOM     31  H   UNL     1      -3.434  12.283  19.358  0.00  0.00    +0.000 HD
ENDBRANCH  17  30
BRANCH  23  32
ATOM     32  O   UNL     1       1.141  18.097  18.966  0.00  0.00    +0.000 OA
ATOM     33  H   UNL     1       1.930  18.633  19.201  0.00  0.00    +0.000 HD
ENDBRANCH  23  32
TORSDOF 4
ENDMDL
MODEL 7
REMARK VINA RESULT:      -6.1      1.881      6.422
REMARK  Name = 
REMARK  8 active torsions:
REMARK  status: ('A' for Active; 'I' for Inactive)
REMARK    1  A    between atoms: C_1  and  C_2
REMARK    2  A    between atoms: C_7  and  O_8
REMARK    3  A    between atoms: C_12  and  C_13
REMARK    4  A    between atoms: C_13  and  C_14
REMARK    5  A    between atoms: C_13  and  C_15
REMARK    6  A    between atoms: C_13  and  C_16
REMARK    7  A    between atoms: C_22  and  O_23
REMARK    8  A    between atoms: C_29  and  O_30
REMARK                            x       y       z     vdW  Elec       q    Type
REMARK                         _______ _______ _______ _____ _____    ______ ____
ROOT
ATOM      1  C   UNL     1      -2.539  15.612  25.570  0.00  0.00    +0.000 C 
ATOM      2  C   UNL     1      -2.835  14.819  24.265  0.00  0.00    +0.000 C 
ATOM      3  C   UNL     1      -4.079  15.493  23.684  0.00  0.00    +0.000 C 
ATOM      4  O   UNL     1      -4.953  16.098  24.287  0.00  0.00    +0.000 OA
ATOM      5  O   UNL     1      -4.163  15.250  22.349  0.00  0.00    +0.000 OA
ATOM      6  C   UNL     1      -2.892  14.866  21.863  0.00  0.00    +0.000 C 
ATOM      7  C   UNL     1      -2.920  13.426  21.288  0.00  0.00    +0.000 C 
ATOM      8  C   UNL     1      -1.411  13.024  21.187  0.00  0.00    +0.000 C 
ATOM      9  C   UNL     1      -0.852  13.766  19.993  0.00  0.00    +0.000 C 
ATOM     10  C   UNL     1      -0.488  12.723  18.966  0.00  0.00    +0.000 C 
ATOM     11  C   UNL     1       0.233  11.670  19.800  0.00  0.00    +0.000 C 
ATOM     12  C   UNL     1      -0.956  11.397  21.112  0.00  0.00    +0.000 C 
ATOM     13  C   UNL     1      -1.059  11.559  22.793  0.00  0.00    +0.000 C 
ATOM     14  O   UNL     1      -0.703  10.448  23.587  0.00  0.00    +0.000 OA
ATOM     15  C   UNL     1      -0.655   9.455  22.676  0.00  0.00    +0.000 C 
ATOM     16  O   UNL     1      -0.847   8.263  22.892  0.00  0.00    +0.000 OA
ATOM     17  C   UNL     1      -0.134  10.132  21.474  0.00  0.00    +0.000 C 
ATOM     18  O   UNL     1      -0.458  12.745  23.294  0.00  0.00    +0.000 OA
ATOM     19  C   UNL     1      -0.836  13.774  22.422  0.00  0.00    +0.000 C 
ATOM     20  C   UNL     1       0.336  14.510  21.791  0.00  0.00    +0.000 C 
ATOM     21  O   UNL     1       1.125  15.213  22.416  0.00  0.00    +0.000 OA
ATOM     22  O   UNL     1       0.316  14.445  20.439  0.00  0.00    +0.000 OA
ATOM     23  C   UNL     1      -1.877  14.886  23.016  0.00  0.00    +0.000 C 
ENDROOT
BRANCH  11  24
ATOM     24  C   UNL     1       0.923  10.523  18.723  0.00  0.00    +0.000 C 
ATOM     25  C   UNL     1       2.074  11.201  17.896  0.00  0.00    +0.000 C 
ATOM     26  C   UNL     1       1.690   9.311  19.349  0.00  0.00    +0.000 C 
ATOM     27  C   UNL     1      -0.041   9.939  17.667  0.00  0.00    +0.000 C 
ENDBRANCH  11  24
BRANCH   7  28
ATOM     28  O   UNL     1      -3.665  12.576  22.141  0.00  0.00    +0.000 OA
ATOM     29  H   UNL     1      -3.259  11.683  22.114  0.00  0.00    +0.000 HD
ENDBRANCH   7  28
BRANCH  17  30
ATOM     30  O   UNL     1       1.247  10.405  21.775  0.00  0.00    +0.000 OA
ATOM     31  H   UNL     1       1.344  11.308  22.135  0.00  0.00    +0.000 HD
ENDBRANCH  17  30
BRANCH  23  32
ATOM     32  O   UNL     1      -1.328  16.223  23.046  0.00  0.00    +0.000 OA
ATOM     33  H   UNL     1      -1.167  16.541  23.961  0.00  0.00    +0.000 HD
ENDBRANCH  23  32
TORSDOF 4
ENDMDL
MODEL 8
REMARK VINA RESULT:      -6.1      2.789      6.304
REMARK  Name = 
REMARK  8 active torsions:
REMARK  status: ('A' for Active; 'I' for Inactive)
REMARK    1  A    between atoms: C_1  and  C_2
REMARK    2  A    between atoms: C_7  and  O_8
REMARK    3  A    between atoms: C_12  and  C_13
REMARK    4  A    between atoms: C_13  and  C_14
REMARK    5  A    between atoms: C_13  and  C_15
REMARK    6  A    between atoms: C_13  and  C_16
REMARK    7  A    between atoms: C_22  and  O_23
REMARK    8  A    between atoms: C_29  and  O_30
REMARK                            x       y       z     vdW  Elec       q    Type
REMARK                         _______ _______ _______ _____ _____    ______ ____
ROOT
ATOM      1  C   UNL     1      -7.900  13.372  23.221  0.00  0.00    +0.000 C 
ATOM      2  C   UNL     1      -6.725  14.062  22.471  0.00  0.00    +0.000 C 
ATOM      3  C   UNL     1      -6.887  15.548  22.796  0.00  0.00    +0.000 C 
ATOM      4  O   UNL     1      -7.916  16.145  23.079  0.00  0.00    +0.000 OA
ATOM      5  O   UNL     1      -5.702  16.195  22.634  0.00  0.00    +0.000 OA
ATOM      6  C   UNL     1      -4.648  15.253  22.670  0.00  0.00    +0.000 C 
ATOM      7  C   UNL     1      -3.871  15.226  21.328  0.00  0.00    +0.000 C 
ATOM      8  C   UNL     1      -3.048  13.897  21.387  0.00  0.00    +0.000 C 
ATOM      9  C   UNL     1      -1.902  14.148  22.342  0.00  0.00    +0.000 C 
ATOM     10  C   UNL     1      -0.636  14.088  21.524  0.00  0.00    +0.000 C 
ATOM     11  C   UNL     1      -0.849  12.844  20.668  0.00  0.00    +0.000 C 
ATOM     12  C   UNL     1      -2.465  13.180  19.971  0.00  0.00    +0.000 C 
ATOM     13  C   UNL     1      -4.020  12.512  19.976  0.00  0.00    +0.000 C 
ATOM     14  O   UNL     1      -4.345  11.586  18.963  0.00  0.00    +0.000 OA
ATOM     15  C   UNL     1      -3.327  11.753  18.093  0.00  0.00    +0.000 C 
ATOM     16  O   UNL     1      -3.366  11.548  16.884  0.00  0.00    +0.000 OA
ATOM     17  C   UNL     1      -2.177  12.026  18.975  0.00  0.00    +0.000 C 
ATOM     18  O   UNL     1      -4.432  12.028  21.248  0.00  0.00    +0.000 OA
ATOM     19  C   UNL     1      -4.032  12.991  22.182  0.00  0.00    +0.000 C 
ATOM     20  C   UNL     1      -3.113  12.453  23.269  0.00  0.00    +0.000 C 
ATOM     21  O   UNL     1      -3.459  11.642  24.123  0.00  0.00    +0.000 OA
ATOM     22  O   UNL     1      -1.921  13.093  23.296  0.00  0.00    +0.000 OA
ATOM     23  C   UNL     1      -5.225  13.848  22.900  0.00  0.00    +0.000 C 
ENDROOT
BRANCH  11  24
ATOM     24  C   UNL     1       0.623  12.507  19.849  0.00  0.00    +0.000 C 
ATOM     25  C   UNL     1       1.829  13.098  20.665  0.00  0.00    +0.000 C 
ATOM     26  C   UNL     1       1.059  11.008  19.729  0.00  0.00    +0.000 C 
ATOM     27  C   UNL     1       0.753  13.119  18.437  0.00  0.00    +0.000 C 
ENDBRANCH  11  24
BRANCH   7  28
ATOM     28  O   UNL     1      -4.777  15.270  20.240  0.00  0.00    +0.000 OA
ATOM     29  H   UNL     1      -5.622  15.652  20.560  0.00  0.00    +0.000 HD
ENDBRANCH   7  28
BRANCH  17  30
ATOM     30  O   UNL     1      -1.896  10.766  19.614  0.00  0.00    +0.000 OA
ATOM     31  H   UNL     1      -1.574  10.118  18.959  0.00  0.00    +0.000 HD
ENDBRANCH  17  30
BRANCH  23  32
ATOM     32  O   UNL     1      -5.276  13.665  24.334  0.00  0.00    +0.000 OA
ATOM     33  H   UNL     1      -4.394  13.754  24.754  0.00  0.00    +0.000 HD
ENDBRANCH  23  32
TORSDOF 4
ENDMDL
MODEL 9
REMARK VINA RESULT:      -6.0      2.090      6.311
REMARK  Name = 
REMARK  8 active torsions:
REMARK  status: ('A' for Active; 'I' for Inactive)
REMARK    1  A    between atoms: C_1  and  C_2
REMARK    2  A    between atoms: C_7  and  O_8
REMARK    3  A    between atoms: C_12  and  C_13
REMARK    4  A    between atoms: C_13  and  C_14
REMARK    5  A    between atoms: C_13  and  C_15
REMARK    6  A    between atoms: C_13  and  C_16
REMARK    7  A    between atoms: C_22  and  O_23
REMARK    8  A    between atoms: C_29  and  O_30
REMARK                            x       y       z     vdW  Elec       q    Type
REMARK                         _______ _______ _______ _____ _____    ______ ____
ROOT
ATOM      1  C   UNL     1      -4.690  18.044  23.617  0.00  0.00    +0.000 C 
ATOM      2  C   UNL     1      -3.460  17.099  23.744  0.00  0.00    +0.000 C 
ATOM      3  C   UNL     1      -3.044  17.213  25.211  0.00  0.00    +0.000 C 
ATOM      4  O   UNL     1      -3.217  18.158  25.968  0.00  0.00    +0.000 OA
ATOM      5  O   UNL     1      -2.329  16.117  25.582  0.00  0.00    +0.000 OA
ATOM      6  C   UNL     1      -2.587  15.064  24.675  0.00  0.00    +0.000 C 
ATOM      7  C   UNL     1      -1.297  14.631  23.932  0.00  0.00    +0.000 C 
ATOM      8  C   UNL     1      -1.816  13.787  22.721  0.00  0.00    +0.000 C 
ATOM      9  C   UNL     1      -2.246  12.451  23.286  0.00  0.00    +0.000 C 
ATOM     10  C   UNL     1      -1.306  11.418  22.718  0.00  0.00    +0.000 C 
ATOM     11  C   UNL     1      -1.239  11.801  21.243  0.00  0.00    +0.000 C 
ATOM     12  C   UNL     1      -0.843  13.545  21.359  0.00  0.00    +0.000 C 
ATOM     13  C   UNL     1      -1.517  15.037  20.931  0.00  0.00    +0.000 C 
ATOM     14  O   UNL     1      -1.186  15.574  19.669  0.00  0.00    +0.000 OA
ATOM     15  C   UNL     1      -0.146  14.799  19.298  0.00  0.00    +0.000 C 
ATOM     16  O   UNL     1       0.766  15.122  18.543  0.00  0.00    +0.000 OA
ATOM     17  C   UNL     1      -0.503  13.478  19.847  0.00  0.00    +0.000 C 
ATOM     18  O   UNL     1      -2.917  15.120  21.159  0.00  0.00    +0.000 OA
ATOM     19  C   UNL     1      -3.147  14.530  22.409  0.00  0.00    +0.000 C 
ATOM     20  C   UNL     1      -4.124  13.365  22.371  0.00  0.00    +0.000 C 
ATOM     21  O   UNL     1      -5.318  13.477  22.108  0.00  0.00    +0.000 OA
ATOM     22  O   UNL     1      -3.571  12.216  22.825  0.00  0.00    +0.000 OA
ATOM     23  C   UNL     1      -3.597  15.535  23.617  0.00  0.00    +0.000 C 
ENDROOT
BRANCH  11  24
ATOM     24  C   UNL     1      -0.388  10.561  20.412  0.00  0.00    +0.000 C 
ATOM     25  C   UNL     1      -1.168  10.171  19.105  0.00  0.00    +0.000 C 
ATOM     26  C   UNL     1       1.015  10.918  19.819  0.00  0.00    +0.000 C 
ATOM     27  C   UNL     1      -0.217   9.238  21.189  0.00  0.00    +0.000 C 
ENDBRANCH  11  24
BRANCH   7  28
ATOM     28  O   UNL     1      -0.557  15.772  23.537  0.00  0.00    +0.000 OA
ATOM     29  H   UNL     1      -1.185  16.435  23.178  0.00  0.00    +0.000 HD
ENDBRANCH   7  28
BRANCH  17  30
ATOM     30  O   UNL     1      -1.597  13.022  19.027  0.00  0.00    +0.000 OA
ATOM     31  H   UNL     1      -2.035  12.255  19.443  0.00  0.00    +0.000 HD
ENDBRANCH  17  30
BRANCH  23  32
ATOM     32  O   UNL     1      -4.907  15.237  24.150  0.00  0.00    +0.000 OA
ATOM     33  H   UNL     1      -4.923  15.247  25.131  0.00  0.00    +0.000 HD
ENDBRANCH  23  32
TORSDOF 4
ENDMDL
