MODEL 1
REMARK VINA RESULT:      -7.3      0.000      0.000
REMARK  Name = 
REMARK  5 active torsions:
REMARK  status: ('A' for Active; 'I' for Inactive)
REMARK    1  A    between atoms: C_1  and  C_2
REMARK    2  A    between atoms: C_11  and  C_12
REMARK    3  A    between atoms: N_17  and  C_18
REMARK    4  A    between atoms: C_24  and  C_25
REMARK    5  A    between atoms: C_28  and  C_29
REMARK                            x       y       z     vdW  Elec       q    Type
REMARK                         _______ _______ _______ _____ _____    ______ ____
ROOT
ATOM      1  C   UNL     1      12.333  13.423  15.733  0.00  0.00    +0.000 C 
ATOM      2  C   UNL     1      11.389  13.979  16.754  0.00  0.00    +0.000 A 
ATOM      3  N   UNL     1      10.706  13.079  17.465  0.00  0.00    +0.000 NA
ATOM      4  C   UNL     1       9.732  13.433  18.349  0.00  0.00    +0.000 A 
ATOM      5  N   UNL     1       9.023  12.382  18.960  0.00  0.00    +0.000 N 
ATOM      6  C   UNL     1       9.154  11.117  18.202  0.00  0.00    +0.000 C 
ATOM      7  C   UNL     1       8.996  10.020  19.232  0.00  0.00    +0.000 C 
ATOM      8  C   UNL     1       9.594  10.621  20.490  0.00  0.00    +0.000 C 
ATOM      9  C   UNL     1       9.400  12.137  20.360  0.00  0.00    +0.000 C 
ATOM     10  C   UNL     1       9.477  14.809  18.504  0.00  0.00    +0.000 A 
ATOM     11  C   UNL     1       8.598  15.685  19.232  0.00  0.00    +0.000 A 
ATOM     12  C   UNL     1       9.028  16.973  18.915  0.00  0.00    +0.000 A 
ATOM     13  C   UNL     1       8.661  18.338  19.367  0.00  0.00    +0.000 C 
ATOM     14  O   UNL     1      10.010  16.939  17.991  0.00  0.00    +0.000 OA
ATOM     15  C   UNL     1      10.298  15.635  17.737  0.00  0.00    +0.000 A 
ATOM     16  N   UNL     1      11.244  15.298  16.851  0.00  0.00    +0.000 NA
ENDROOT
BRANCH  11  17
ATOM     17  C   UNL     1       7.561  15.433  20.236  0.00  0.00    +0.000 C 
ATOM     18  O   UNL     1       7.857  15.535  21.422  0.00  0.00    +0.000 OA
ATOM     19  N   UNL     1       6.236  15.216  19.837  0.00  0.00    +0.000 N 
ATOM     20  C   UNL     1       5.258  14.889  20.900  0.00  0.00    +0.000 C 
ATOM     21  C   UNL     1       3.791  15.239  20.545  0.00  0.00    +0.000 C 
ATOM     22  N   UNL     1       3.475  14.694  19.218  0.00  0.00    +0.000 N 
ATOM     23  C   UNL     1       4.351  15.249  18.166  0.00  0.00    +0.000 C 
ATOM     24  C   UNL     1       5.818  14.862  18.472  0.00  0.00    +0.000 C 
BRANCH  22  25
ATOM     25  C   UNL     1       2.251  14.128  18.892  0.00  0.00    +0.000 A 
ATOM     26  C   UNL     1       2.114  12.729  18.793  0.00  0.00    +0.000 A 
ATOM     27  C   UNL     1       0.862  12.113  18.695  0.00  0.00    +0.000 A 
ATOM     28 CL   UNL     1       0.751  10.398  18.578  0.00  0.00    +0.000 Cl
ATOM     29  C   UNL     1      -0.299  12.869  18.717  0.00  0.00    +0.000 A 
ATOM     30  C   UNL     1      -0.194  14.254  18.742  0.00  0.00    +0.000 A 
ATOM     31  C   UNL     1       1.066  14.895  18.774  0.00  0.00    +0.000 A 
ATOM     32  C   UNL     1       1.048  16.400  18.741  0.00  0.00    +0.000 C 
ENDBRANCH  22  25
ENDBRANCH  11  17
TORSDOF 2
ENDMDL
MODEL 2
REMARK VINA RESULT:      -7.0      7.882     12.167
REMARK  Name = 
REMARK  5 active torsions:
REMARK  status: ('A' for Active; 'I' for Inactive)
REMARK    1  A    between atoms: C_1  and  C_2
REMARK    2  A    between atoms: C_11  and  C_12
REMARK    3  A    between atoms: N_17  and  C_18
REMARK    4  A    between atoms: C_24  and  C_25
REMARK    5  A    between atoms: C_28  and  C_29
REMARK                            x       y       z     vdW  Elec       q    Type
REMARK                         _______ _______ _______ _____ _____    ______ ____
ROOT
ATOM      1  C   UNL     1      -6.871  13.237  24.147  0.00  0.00    +0.000 C 
ATOM      2  C   UNL     1      -5.667  13.120  23.265  0.00  0.00    +0.000 A 
ATOM      3  N   UNL     1      -5.879  12.587  22.060  0.00  0.00    +0.000 NA
ATOM      4  C   UNL     1      -4.864  12.315  21.192  0.00  0.00    +0.000 A 
ATOM      5  N   UNL     1      -5.216  11.664  19.995  0.00  0.00    +0.000 N 
ATOM      6  C   UNL     1      -6.534  10.999  20.098  0.00  0.00    +0.000 C 
ATOM      7  C   UNL     1      -7.079  10.978  18.687  0.00  0.00    +0.000 C 
ATOM      8  C   UNL     1      -6.530  12.252  18.073  0.00  0.00    +0.000 C 
ATOM      9  C   UNL     1      -5.219  12.540  18.813  0.00  0.00    +0.000 C 
ATOM     10  C   UNL     1      -3.560  12.637  21.612  0.00  0.00    +0.000 A 
ATOM     11  C   UNL     1      -2.203  12.546  21.141  0.00  0.00    +0.000 A 
ATOM     12  C   UNL     1      -1.438  13.183  22.117  0.00  0.00    +0.000 A 
ATOM     13  C   UNL     1      -0.005  13.546  22.247  0.00  0.00    +0.000 C 
ATOM     14  O   UNL     1      -2.203  13.549  23.165  0.00  0.00    +0.000 OA
ATOM     15  C   UNL     1      -3.491  13.233  22.871  0.00  0.00    +0.000 A 
ATOM     16  N   UNL     1      -4.479  13.487  23.740  0.00  0.00    +0.000 NA
ENDROOT
BRANCH  11  17
ATOM     17  C   UNL     1      -1.626  12.074  19.880  0.00  0.00    +0.000 C 
ATOM     18  O   UNL     1      -1.903  12.677  18.848  0.00  0.00    +0.000 OA
ATOM     19  N   UNL     1      -0.675  11.045  19.883  0.00  0.00    +0.000 N 
ATOM     20  C   UNL     1      -0.194  10.567  18.567  0.00  0.00    +0.000 C 
ATOM     21  C   UNL     1       1.208   9.909  18.601  0.00  0.00    +0.000 C 
ATOM     22  N   UNL     1       1.244   8.911  19.677  0.00  0.00    +0.000 N 
ATOM     23  C   UNL     1       0.981   9.511  21.002  0.00  0.00    +0.000 C 
ATOM     24  C   UNL     1      -0.440  10.126  21.007  0.00  0.00    +0.000 C 
BRANCH  22  25
ATOM     25  C   UNL     1       1.896   7.692  19.572  0.00  0.00    +0.000 A 
ATOM     26  C   UNL     1       1.649   6.666  20.506  0.00  0.00    +0.000 A 
ATOM     27  C   UNL     1       2.104   5.357  20.307  0.00  0.00    +0.000 A 
ATOM     28 CL   UNL     1       1.771   4.140  21.479  0.00  0.00    +0.000 Cl
ATOM     29  C   UNL     1       2.801   5.022  19.157  0.00  0.00    +0.000 A 
ATOM     30  C   UNL     1       3.122   6.026  18.253  0.00  0.00    +0.000 A 
ATOM     31  C   UNL     1       2.727   7.366  18.472  0.00  0.00    +0.000 A 
ATOM     32  C   UNL     1       3.185   8.371  17.449  0.00  0.00    +0.000 C 
ENDBRANCH  22  25
ENDBRANCH  11  17
TORSDOF 2
ENDMDL
MODEL 3
REMARK VINA RESULT:      -6.8      5.733      8.782
REMARK  Name = 
REMARK  5 active torsions:
REMARK  status: ('A' for Active; 'I' for Inactive)
REMARK    1  A    between atoms: C_1  and  C_2
REMARK    2  A    between atoms: C_11  and  C_12
REMARK    3  A    between atoms: N_17  and  C_18
REMARK    4  A    between atoms: C_24  and  C_25
REMARK    5  A    between atoms: C_28  and  C_29
REMARK                            x       y       z     vdW  Elec       q    Type
REMARK                         _______ _______ _______ _____ _____    ______ ____
ROOT
ATOM      1  C   UNL     1       4.117  16.605  18.174  0.00  0.00    +0.000 C 
ATOM      2  C   UNL     1       3.258  15.493  18.692  0.00  0.00    +0.000 A 
ATOM      3  N   UNL     1       2.712  15.692  19.893  0.00  0.00    +0.000 NA
ATOM      4  C   UNL     1       1.999  14.728  20.541  0.00  0.00    +0.000 A 
ATOM      5  N   UNL     1       1.561  15.035  21.843  0.00  0.00    +0.000 N 
ATOM      6  C   UNL     1       2.331  16.155  22.431  0.00  0.00    +0.000 C 
ATOM      7  C   UNL     1       1.386  16.811  23.414  0.00  0.00    +0.000 C 
ATOM      8  C   UNL     1       0.021  16.623  22.779  0.00  0.00    +0.000 C 
ATOM      9  C   UNL     1       0.127  15.346  21.937  0.00  0.00    +0.000 C 
ATOM     10  C   UNL     1       1.840  13.496  19.879  0.00  0.00    +0.000 A 
ATOM     11  C   UNL     1       1.245  12.204  20.096  0.00  0.00    +0.000 A 
ATOM     12  C   UNL     1       1.433  11.513  18.899  0.00  0.00    +0.000 A 
ATOM     13  C   UNL     1       1.002  10.194  18.377  0.00  0.00    +0.000 C 
ATOM     14  O   UNL     1       2.172  12.240  18.036  0.00  0.00    +0.000 OA
ATOM     15  C   UNL     1       2.420  13.445  18.611  0.00  0.00    +0.000 A 
ATOM     16  N   UNL     1       3.139  14.379  17.974  0.00  0.00    +0.000 NA
ENDROOT
BRANCH  11  17
ATOM     17  C   UNL     1       0.449  11.656  21.197  0.00  0.00    +0.000 C 
ATOM     18  O   UNL     1       1.009  10.953  22.032  0.00  0.00    +0.000 OA
ATOM     19  N   UNL     1      -0.888  12.044  21.357  0.00  0.00    +0.000 N 
ATOM     20  C   UNL     1      -1.653  11.390  22.444  0.00  0.00    +0.000 C 
ATOM     21  C   UNL     1      -2.855  12.218  22.965  0.00  0.00    +0.000 C 
ATOM     22  N   UNL     1      -3.658  12.671  21.822  0.00  0.00    +0.000 N 
ATOM     23  C   UNL     1      -2.879  13.517  20.895  0.00  0.00    +0.000 C 
ATOM     24  C   UNL     1      -1.704  12.689  20.318  0.00  0.00    +0.000 C 
BRANCH  22  25
ATOM     25  C   UNL     1      -5.043  12.724  21.830  0.00  0.00    +0.000 A 
ATOM     26  C   UNL     1      -5.736  13.154  22.979  0.00  0.00    +0.000 A 
ATOM     27  C   UNL     1      -7.105  13.440  22.956  0.00  0.00    +0.000 A 
ATOM     28 CL   UNL     1      -7.902  13.965  24.389  0.00  0.00    +0.000 Cl
ATOM     29  C   UNL     1      -7.827  13.330  21.778  0.00  0.00    +0.000 A 
ATOM     30  C   UNL     1      -7.189  12.840  20.645  0.00  0.00    +0.000 A 
ATOM     31  C   UNL     1      -5.821  12.483  20.670  0.00  0.00    +0.000 A 
ATOM     32  C   UNL     1      -5.259  11.911  19.396  0.00  0.00    +0.000 C 
ENDBRANCH  22  25
ENDBRANCH  11  17
TORSDOF 2
ENDMDL
MODEL 4
REMARK VINA RESULT:      -6.7      5.193      8.614
REMARK  Name = 
REMARK  5 active torsions:
REMARK  status: ('A' for Active; 'I' for Inactive)
REMARK    1  A    between atoms: C_1  and  C_2
REMARK    2  A    between atoms: C_11  and  C_12
REMARK    3  A    between atoms: N_17  and  C_18
REMARK    4  A    between atoms: C_24  and  C_25
REMARK    5  A    between atoms: C_28  and  C_29
REMARK                            x       y       z     vdW  Elec       q    Type
REMARK                         _______ _______ _______ _____ _____    ______ ____
ROOT
ATOM      1  C   UNL     1       1.561  17.923  17.647  0.00  0.00    +0.000 C 
ATOM      2  C   UNL     1       1.175  16.713  18.441  0.00  0.00    +0.000 A 
ATOM      3  N   UNL     1       2.169  16.104  19.091  0.00  0.00    +0.000 NA
ATOM      4  C   UNL     1       1.992  14.931  19.762  0.00  0.00    +0.000 A 
ATOM      5  N   UNL     1       3.143  14.346  20.322  0.00  0.00    +0.000 N 
ATOM      6  C   UNL     1       4.382  14.867  19.702  0.00  0.00    +0.000 C 
ATOM      7  C   UNL     1       5.443  14.742  20.773  0.00  0.00    +0.000 C 
ATOM      8  C   UNL     1       4.677  14.962  22.064  0.00  0.00    +0.000 C 
ATOM      9  C   UNL     1       3.244  14.497  21.782  0.00  0.00    +0.000 C 
ATOM     10  C   UNL     1       0.696  14.382  19.760  0.00  0.00    +0.000 A 
ATOM     11  C   UNL     1      -0.005  13.225  20.252  0.00  0.00    +0.000 A 
ATOM     12  C   UNL     1      -1.340  13.440  19.913  0.00  0.00    +0.000 A 
ATOM     13  C   UNL     1      -2.613  12.729  20.184  0.00  0.00    +0.000 C 
ATOM     14  O   UNL     1      -1.475  14.563  19.179  0.00  0.00    +0.000 OA
ATOM     15  C   UNL     1      -0.253  15.149  19.084  0.00  0.00    +0.000 A 
ATOM     16  N   UNL     1      -0.087  16.291  18.405  0.00  0.00    +0.000 NA
ENDROOT
BRANCH  11  17
ATOM     17  C   UNL     1       0.419  12.091  21.077  0.00  0.00    +0.000 C 
ATOM     18  O   UNL     1       0.297  12.175  22.295  0.00  0.00    +0.000 OA
ATOM     19  N   UNL     1       0.824  10.894  20.472  0.00  0.00    +0.000 N 
ATOM     20  C   UNL     1       1.314   9.820  21.365  0.00  0.00    +0.000 C 
ATOM     21  C   UNL     1       1.182   8.392  20.777  0.00  0.00    +0.000 C 
ATOM     22  N   UNL     1       1.742   8.378  19.419  0.00  0.00    +0.000 N 
ATOM     23  C   UNL     1       1.043   9.318  18.519  0.00  0.00    +0.000 C 
ATOM     24  C   UNL     1       1.211  10.759  19.059  0.00  0.00    +0.000 C 
BRANCH  22  25
ATOM     25  C   UNL     1       2.479   7.323  18.904  0.00  0.00    +0.000 A 
ATOM     26  C   UNL     1       3.272   7.499  17.753  0.00  0.00    +0.000 A 
ATOM     27  C   UNL     1       4.199   6.537  17.337  0.00  0.00    +0.000 A 
ATOM     28 CL   UNL     1       5.145   6.804  15.923  0.00  0.00    +0.000 Cl
ATOM     29  C   UNL     1       4.385   5.375  18.071  0.00  0.00    +0.000 A 
ATOM     30  C   UNL     1       3.568   5.141  19.169  0.00  0.00    +0.000 A 
ATOM     31  C   UNL     1       2.580   6.073  19.563  0.00  0.00    +0.000 A 
ATOM     32  C   UNL     1       1.721   5.677  20.734  0.00  0.00    +0.000 C 
ENDBRANCH  22  25
ENDBRANCH  11  17
TORSDOF 2
ENDMDL
MODEL 5
REMARK VINA RESULT:      -6.7      6.792     10.784
REMARK  Name = 
REMARK  5 active torsions:
REMARK  status: ('A' for Active; 'I' for Inactive)
REMARK    1  A    between atoms: C_1  and  C_2
REMARK    2  A    between atoms: C_11  and  C_12
REMARK    3  A    between atoms: N_17  and  C_18
REMARK    4  A    between atoms: C_24  and  C_25
REMARK    5  A    between atoms: C_28  and  C_29
REMARK                            x       y       z     vdW  Elec       q    Type
REMARK                         _______ _______ _______ _____ _____    ______ ____
ROOT
ATOM      1  C   UNL     1      -4.525  13.260  21.250  0.00  0.00    +0.000 C 
ATOM      2  C   UNL     1      -3.177  12.913  20.698  0.00  0.00    +0.000 A 
ATOM      3  N   UNL     1      -3.174  12.081  19.654  0.00  0.00    +0.000 NA
ATOM      4  C   UNL     1      -2.022  11.588  19.117  0.00  0.00    +0.000 A 
ATOM      5  N   UNL     1      -2.163  10.644  18.082  0.00  0.00    +0.000 N 
ATOM      6  C   UNL     1      -3.511  10.032  18.077  0.00  0.00    +0.000 C 
ATOM      7  C   UNL     1      -3.762   9.640  16.638  0.00  0.00    +0.000 C 
ATOM      8  C   UNL     1      -3.031  10.706  15.844  0.00  0.00    +0.000 C 
ATOM      9  C   UNL     1      -1.880  11.177  16.741  0.00  0.00    +0.000 C 
ATOM     10  C   UNL     1      -0.812  12.008  19.700  0.00  0.00    +0.000 A 
ATOM     11  C   UNL     1       0.604  11.794  19.562  0.00  0.00    +0.000 A 
ATOM     12  C   UNL     1       1.193  12.665  20.477  0.00  0.00    +0.000 A 
ATOM     13  C   UNL     1       2.588  13.048  20.804  0.00  0.00    +0.000 C 
ATOM     14  O   UNL     1       0.256  13.296  21.212  0.00  0.00    +0.000 OA
ATOM     15  C   UNL     1      -0.964  12.915  20.749  0.00  0.00    +0.000 A 
ATOM     16  N   UNL     1      -2.089  13.390  21.298  0.00  0.00    +0.000 NA
ENDROOT
BRANCH  11  17
ATOM     17  C   UNL     1       1.395  11.005  18.614  0.00  0.00    +0.000 C 
ATOM     18  O   UNL     1       1.858  11.568  17.627  0.00  0.00    +0.000 OA
ATOM     19  N   UNL     1       1.721   9.674  18.907  0.00  0.00    +0.000 N 
ATOM     20  C   UNL     1       2.455   8.916  17.867  0.00  0.00    +0.000 C 
ATOM     21  C   UNL     1       3.289   7.730  18.413  0.00  0.00    +0.000 C 
ATOM     22  N   UNL     1       2.446   6.918  19.299  0.00  0.00    +0.000 N 
ATOM     23  C   UNL     1       1.936   7.694  20.449  0.00  0.00    +0.000 C 
ATOM     24  C   UNL     1       1.052   8.852  19.926  0.00  0.00    +0.000 C 
BRANCH  22  25
ATOM     25  C   UNL     1       2.497   5.533  19.350  0.00  0.00    +0.000 A 
ATOM     26  C   UNL     1       1.952   4.837  20.448  0.00  0.00    +0.000 A 
ATOM     27  C   UNL     1       1.777   3.449  20.433  0.00  0.00    +0.000 A 
ATOM     28 CL   UNL     1       1.104   2.648  21.801  0.00  0.00    +0.000 Cl
ATOM     29  C   UNL     1       2.118   2.709  19.311  0.00  0.00    +0.000 A 
ATOM     30  C   UNL     1       2.723   3.356  18.241  0.00  0.00    +0.000 A 
ATOM     31  C   UNL     1       2.967   4.749  18.268  0.00  0.00    +0.000 A 
ATOM     32  C   UNL     1       3.681   5.322  17.073  0.00  0.00    +0.000 C 
ENDBRANCH  22  25
ENDBRANCH  11  17
TORSDOF 2
ENDMDL
MODEL 6
REMARK VINA RESULT:      -6.7      5.325      8.941
REMARK  Name = 
REMARK  5 active torsions:
REMARK  status: ('A' for Active; 'I' for Inactive)
REMARK    1  A    between atoms: C_1  and  C_2
REMARK    2  A    between atoms: C_11  and  C_12
REMARK    3  A    between atoms: N_17  and  C_18
REMARK    4  A    between atoms: C_24  and  C_25
REMARK    5  A    between atoms: C_28  and  C_29
REMARK                            x       y       z     vdW  Elec       q    Type
REMARK                         _______ _______ _______ _____ _____    ______ ____
ROOT
ATOM      1  C   UNL     1       1.125  17.449  17.800  0.00  0.00    +0.000 C 
ATOM      2  C   UNL     1       0.912  16.102  18.418  0.00  0.00    +0.000 A 
ATOM      3  N   UNL     1       1.938  15.618  19.123  0.00  0.00    +0.000 NA
ATOM      4  C   UNL     1       1.934  14.361  19.649  0.00  0.00    +0.000 A 
ATOM      5  N   UNL     1       3.117  13.941  20.285  0.00  0.00    +0.000 N 
ATOM      6  C   UNL     1       4.281  14.758  19.876  0.00  0.00    +0.000 C 
ATOM      7  C   UNL     1       5.232  14.708  21.051  0.00  0.00    +0.000 C 
ATOM      8  C   UNL     1       4.312  14.623  22.254  0.00  0.00    +0.000 C 
ATOM      9  C   UNL     1       3.037  13.932  21.754  0.00  0.00    +0.000 C 
ATOM     10  C   UNL     1       0.782  13.580  19.434  0.00  0.00    +0.000 A 
ATOM     11  C   UNL     1       0.283  12.262  19.721  0.00  0.00    +0.000 A 
ATOM     12  C   UNL     1      -1.027  12.259  19.244  0.00  0.00    +0.000 A 
ATOM     13  C   UNL     1      -2.152  11.293  19.286  0.00  0.00    +0.000 C 
ATOM     14  O   UNL     1      -1.311  13.416  18.612  0.00  0.00    +0.000 OA
ATOM     15  C   UNL     1      -0.229  14.229  18.725  0.00  0.00    +0.000 A 
ATOM     16  N   UNL     1      -0.229  15.456  18.187  0.00  0.00    +0.000 NA
ENDROOT
BRANCH  11  17
ATOM     17  C   UNL     1       0.841  11.137  20.477  0.00  0.00    +0.000 C 
ATOM     18  O   UNL     1       0.748  11.151  21.700  0.00  0.00    +0.000 OA
ATOM     19  N   UNL     1       1.343  10.017  19.801  0.00  0.00    +0.000 N 
ATOM     20  C   UNL     1       1.963   8.955  20.627  0.00  0.00    +0.000 C 
ATOM     21  C   UNL     1       1.953   7.551  19.971  0.00  0.00    +0.000 C 
ATOM     22  N   UNL     1       2.470   7.657  18.601  0.00  0.00    +0.000 N 
ATOM     23  C   UNL     1       1.655   8.564  17.767  0.00  0.00    +0.000 C 
ATOM     24  C   UNL     1       1.698   9.988  18.374  0.00  0.00    +0.000 C 
BRANCH  22  25
ATOM     25  C   UNL     1       3.290   6.706  18.014  0.00  0.00    +0.000 A 
ATOM     26  C   UNL     1       4.637   7.002  17.724  0.00  0.00    +0.000 A 
ATOM     27  C   UNL     1       5.550   6.011  17.350  0.00  0.00    +0.000 A 
ATOM     28 CL   UNL     1       7.186   6.428  17.009  0.00  0.00    +0.000 Cl
ATOM     29  C   UNL     1       5.157   4.684  17.274  0.00  0.00    +0.000 A 
ATOM     30  C   UNL     1       3.820   4.369  17.485  0.00  0.00    +0.000 A 
ATOM     31  C   UNL     1       2.871   5.370  17.799  0.00  0.00    +0.000 A 
ATOM     32  C   UNL     1       1.445   4.911  17.946  0.00  0.00    +0.000 C 
ENDBRANCH  22  25
ENDBRANCH  11  17
TORSDOF 2
ENDMDL
MODEL 7
REMARK VINA RESULT:      -6.7      6.161      9.194
REMARK  Name = 
REMARK  5 active torsions:
REMARK  status: ('A' for Active; 'I' for Inactive)
REMARK    1  A    between atoms: C_1  and  C_2
REMARK    2  A    between atoms: C_11  and  C_12
REMARK    3  A    between atoms: N_17  and  C_18
REMARK    4  A    between atoms: C_24  and  C_25
REMARK    5  A    between atoms: C_28  and  C_29
REMARK                            x       y       z     vdW  Elec       q    Type
REMARK                         _______ _______ _______ _____ _____    ______ ____
ROOT
ATOM      1  C   UNL     1       2.150  17.606  23.163  0.00  0.00    +0.000 C 
ATOM      2  C   UNL     1       1.446  16.393  22.638  0.00  0.00    +0.000 A 
ATOM      3  N   UNL     1       1.735  16.052  21.380  0.00  0.00    +0.000 NA
ATOM      4  C   UNL     1       1.092  15.041  20.731  0.00  0.00    +0.000 A 
ATOM      5  N   UNL     1       1.425  14.850  19.376  0.00  0.00    +0.000 N 
ATOM      6  C   UNL     1       2.066  16.050  18.793  0.00  0.00    +0.000 C 
ATOM      7  C   UNL     1       2.954  15.526  17.687  0.00  0.00    +0.000 C 
ATOM      8  C   UNL     1       3.406  14.173  18.201  0.00  0.00    +0.000 C 
ATOM      9  C   UNL     1       2.287  13.685  19.129  0.00  0.00    +0.000 C 
ATOM     10  C   UNL     1       0.105  14.343  21.451  0.00  0.00    +0.000 A 
ATOM     11  C   UNL     1      -0.843  13.277  21.262  0.00  0.00    +0.000 A 
ATOM     12  C   UNL     1      -1.431  13.088  22.511  0.00  0.00    +0.000 A 
ATOM     13  C   UNL     1      -2.399  12.115  23.074  0.00  0.00    +0.000 C 
ATOM     14  O   UNL     1      -0.993  14.010  23.393  0.00  0.00    +0.000 OA
ATOM     15  C   UNL     1      -0.058  14.773  22.768  0.00  0.00    +0.000 A 
ATOM     16  N   UNL     1       0.554  15.777  23.410  0.00  0.00    +0.000 NA
ENDROOT
BRANCH  11  17
ATOM     17  C   UNL     1      -1.118  12.392  20.127  0.00  0.00    +0.000 C 
ATOM     18  O   UNL     1      -2.080  12.642  19.409  0.00  0.00    +0.000 OA
ATOM     19  N   UNL     1      -0.219  11.367  19.801  0.00  0.00    +0.000 N 
ATOM     20  C   UNL     1      -0.602  10.463  18.693  0.00  0.00    +0.000 C 
ATOM     21  C   UNL     1       0.596   9.774  17.991  0.00  0.00    +0.000 C 
ATOM     22  N   UNL     1       1.471   9.178  19.008  0.00  0.00    +0.000 N 
ATOM     23  C   UNL     1       2.002  10.188  19.946  0.00  0.00    +0.000 C 
ATOM     24  C   UNL     1       0.823  10.850  20.700  0.00  0.00    +0.000 C 
BRANCH  22  25
ATOM     25  C   UNL     1       2.107   7.956  18.852  0.00  0.00    +0.000 A 
ATOM     26  C   UNL     1       2.967   7.732  17.759  0.00  0.00    +0.000 A 
ATOM     27  C   UNL     1       3.800   6.609  17.689  0.00  0.00    +0.000 A 
ATOM     28 CL   UNL     1       4.834   6.384  16.331  0.00  0.00    +0.000 Cl
ATOM     29  C   UNL     1       3.820   5.682  18.720  0.00  0.00    +0.000 A 
ATOM     30  C   UNL     1       2.933   5.839  19.777  0.00  0.00    +0.000 A 
ATOM     31  C   UNL     1       2.038   6.933  19.830  0.00  0.00    +0.000 A 
ATOM     32  C   UNL     1       1.087   6.959  20.997  0.00  0.00    +0.000 C 
ENDBRANCH  22  25
ENDBRANCH  11  17
TORSDOF 2
ENDMDL
MODEL 8
REMARK VINA RESULT:      -6.7      7.104     10.999
REMARK  Name = 
REMARK  5 active torsions:
REMARK  status: ('A' for Active; 'I' for Inactive)
REMARK    1  A    between atoms: C_1  and  C_2
REMARK    2  A    between atoms: C_11  and  C_12
REMARK    3  A    between atoms: N_17  and  C_18
REMARK    4  A    between atoms: C_24  and  C_25
REMARK    5  A    between atoms: C_28  and  C_29
REMARK                            x       y       z     vdW  Elec       q    Type
REMARK                         _______ _______ _______ _____ _____    ______ ____
ROOT
ATOM      1  C   UNL     1      -5.874  12.673  20.597  0.00  0.00    +0.000 C 
ATOM      2  C   UNL     1      -4.421  12.623  20.239  0.00  0.00    +0.000 A 
ATOM      3  N   UNL     1      -4.114  11.901  19.159  0.00  0.00    +0.000 NA
ATOM      4  C   UNL     1      -2.826  11.672  18.776  0.00  0.00    +0.000 A 
ATOM      5  N   UNL     1      -2.639  10.813  17.677  0.00  0.00    +0.000 N 
ATOM      6  C   UNL     1      -3.831   9.971  17.428  0.00  0.00    +0.000 C 
ATOM      7  C   UNL     1      -3.800   9.670  15.946  0.00  0.00    +0.000 C 
ATOM      8  C   UNL     1      -3.182  10.915  15.340  0.00  0.00    +0.000 C 
ATOM      9  C   UNL     1      -2.278  11.505  16.430  0.00  0.00    +0.000 C 
ATOM     10  C   UNL     1      -1.812  12.249  19.563  0.00  0.00    +0.000 A 
ATOM     11  C   UNL     1      -0.376  12.306  19.631  0.00  0.00    +0.000 A 
ATOM     12  C   UNL     1      -0.097  13.185  20.677  0.00  0.00    +0.000 A 
ATOM     13  C   UNL     1       1.140  13.782  21.237  0.00  0.00    +0.000 C 
ATOM     14  O   UNL     1      -1.231  13.570  21.296  0.00  0.00    +0.000 OA
ATOM     15  C   UNL     1      -2.278  13.018  20.629  0.00  0.00    +0.000 A 
ATOM     16  N   UNL     1      -3.539  13.234  21.027  0.00  0.00    +0.000 NA
ENDROOT
BRANCH  11  17
ATOM     17  C   UNL     1       0.676  11.759  18.769  0.00  0.00    +0.000 C 
ATOM     18  O   UNL     1       1.208  12.502  17.951  0.00  0.00    +0.000 OA
ATOM     19  N   UNL     1       1.147  10.456  18.977  0.00  0.00    +0.000 N 
ATOM     20  C   UNL     1       2.153   9.943  18.018  0.00  0.00    +0.000 C 
ATOM     21  C   UNL     1       3.054   8.816  18.583  0.00  0.00    +0.000 C 
ATOM     22  N   UNL     1       2.208   7.791  19.206  0.00  0.00    +0.000 N 
ATOM     23  C   UNL     1       1.398   8.337  20.315  0.00  0.00    +0.000 C 
ATOM     24  C   UNL     1       0.449   9.427  19.761  0.00  0.00    +0.000 C 
BRANCH  22  25
ATOM     25  C   UNL     1       2.460   6.430  19.120  0.00  0.00    +0.000 A 
ATOM     26  C   UNL     1       1.832   5.529  20.002  0.00  0.00    +0.000 A 
ATOM     27  C   UNL     1       1.879   4.144  19.805  0.00  0.00    +0.000 A 
ATOM     28 CL   UNL     1       1.091   3.087  20.912  0.00  0.00    +0.000 Cl
ATOM     29  C   UNL     1       2.535   3.612  18.706  0.00  0.00    +0.000 A 
ATOM     30  C   UNL     1       3.224   4.470  17.858  0.00  0.00    +0.000 A 
ATOM     31  C   UNL     1       3.242   5.866  18.082  0.00  0.00    +0.000 A 
ATOM     32  C   UNL     1       4.071   6.682  17.126  0.00  0.00    +0.000 C 
ENDBRANCH  22  25
ENDBRANCH  11  17
TORSDOF 2
ENDMDL
MODEL 9
REMARK VINA RESULT:      -6.6      2.897      4.453
REMARK  Name = 
REMARK  5 active torsions:
REMARK  status: ('A' for Active; 'I' for Inactive)
REMARK    1  A    between atoms: C_1  and  C_2
REMARK    2  A    between atoms: C_11  and  C_12
REMARK    3  A    between atoms: N_17  and  C_18
REMARK    4  A    between atoms: C_24  and  C_25
REMARK    5  A    between atoms: C_28  and  C_29
REMARK                            x       y       z     vdW  Elec       q    Type
REMARK                         _______ _______ _______ _____ _____    ______ ____
ROOT
ATOM      1  C   UNL     1      11.641  11.574  19.143  0.00  0.00    +0.000 C 
ATOM      2  C   UNL     1      10.501  12.172  19.907  0.00  0.00    +0.000 A 
ATOM      3  N   UNL     1      10.260  13.465  19.674  0.00  0.00    +0.000 NA
ATOM      4  C   UNL     1       9.330  14.172  20.375  0.00  0.00    +0.000 A 
ATOM      5  N   UNL     1       9.245  15.549  20.097  0.00  0.00    +0.000 N 
ATOM      6  C   UNL     1      10.469  16.053  19.435  0.00  0.00    +0.000 C 
ATOM      7  C   UNL     1      10.014  17.233  18.605  0.00  0.00    +0.000 C 
ATOM      8  C   UNL     1       8.608  16.852  18.183  0.00  0.00    +0.000 C 
ATOM      9  C   UNL     1       8.078  15.927  19.285  0.00  0.00    +0.000 C 
ATOM     10  C   UNL     1       8.605  13.476  21.360  0.00  0.00    +0.000 A 
ATOM     11  C   UNL     1       7.590  13.720  22.351  0.00  0.00    +0.000 A 
ATOM     12  C   UNL     1       7.313  12.469  22.901  0.00  0.00    +0.000 A 
ATOM     13  C   UNL     1       6.327  11.955  23.882  0.00  0.00    +0.000 C 
ATOM     14  O   UNL     1       8.141  11.530  22.400  0.00  0.00    +0.000 OA
ATOM     15  C   UNL     1       8.924  12.123  21.461  0.00  0.00    +0.000 A 
ATOM     16  N   UNL     1       9.849  11.421  20.793  0.00  0.00    +0.000 NA
ENDROOT
BRANCH  11  17
ATOM     17  C   UNL     1       6.814  14.913  22.697  0.00  0.00    +0.000 C 
ATOM     18  O   UNL     1       7.191  15.605  23.637  0.00  0.00    +0.000 OA
ATOM     19  N   UNL     1       5.748  15.319  21.882  0.00  0.00    +0.000 N 
ATOM     20  C   UNL     1       4.960  16.488  22.336  0.00  0.00    +0.000 C 
ATOM     21  C   UNL     1       4.232  17.246  21.198  0.00  0.00    +0.000 C 
ATOM     22  N   UNL     1       3.496  16.281  20.372  0.00  0.00    +0.000 N 
ATOM     23  C   UNL     1       4.390  15.275  19.761  0.00  0.00    +0.000 C 
ATOM     24  C   UNL     1       5.085  14.467  20.883  0.00  0.00    +0.000 C 
BRANCH  22  25
ATOM     25  C   UNL     1       2.242  16.529  19.834  0.00  0.00    +0.000 A 
ATOM     26  C   UNL     1       2.099  17.362  18.707  0.00  0.00    +0.000 A 
ATOM     27  C   UNL     1       0.894  17.453  18.001  0.00  0.00    +0.000 A 
ATOM     28 CL   UNL     1       0.775  18.485  16.627  0.00  0.00    +0.000 Cl
ATOM     29  C   UNL     1      -0.204  16.698  18.382  0.00  0.00    +0.000 A 
ATOM     30  C   UNL     1      -0.116  15.922  19.530  0.00  0.00    +0.000 A 
ATOM     31  C   UNL     1       1.074  15.871  20.293  0.00  0.00    +0.000 A 
ATOM     32  C   UNL     1       1.025  15.040  21.548  0.00  0.00    +0.000 C 
ENDBRANCH  22  25
ENDBRANCH  11  17
TORSDOF 2
ENDMDL
