MODEL 1
REMARK VINA RESULT:      -6.9      0.000      0.000
REMARK  Name = 
REMARK  3 active torsions:
REMARK  status: ('A' for Active; 'I' for Inactive)
REMARK    1  A    between atoms: C_5  and  N_6
REMARK    2  A    between atoms: N_9  and  C_10
REMARK    3  A    between atoms: C_10  and  C_11
REMARK                            x       y       z     vdW  Elec       q    Type
REMARK                         _______ _______ _______ _____ _____    ______ ____
ROOT
ATOM      1  N   UNL     1       2.816   6.636  18.238  0.00  0.00    +0.000 N 
ATOM      2  C   UNL     1       4.155   6.749  17.642  0.00  0.00    +0.000 C 
ATOM      3  C   UNL     1       5.156   5.762  18.296  0.00  0.00    +0.000 C 
ATOM      4  N   UNL     1       4.685   4.354  18.402  0.00  0.00    +0.000 NA
ATOM      5  C   UNL     1       3.377   4.386  19.103  0.00  0.00    +0.000 C 
ATOM      6  C   UNL     1       2.300   5.274  18.440  0.00  0.00    +0.000 C 
ENDROOT
BRANCH   1  11
ATOM      7  F   UNL     1       0.034  10.941  20.337  0.00  0.00    +0.000 F 
ATOM      8  C   UNL     1       0.717   9.905  19.834  0.00  0.00    +0.000 A 
ATOM      9  C   UNL     1       1.046   9.887  18.488  0.00  0.00    +0.000 A 
ATOM     10  C   UNL     1       1.751   8.798  17.970  0.00  0.00    +0.000 A 
ATOM     11  C   UNL     1       2.139   7.712  18.778  0.00  0.00    +0.000 A 
ATOM     12  C   UNL     1       1.797   7.774  20.135  0.00  0.00    +0.000 A 
ATOM     13  C   UNL     1       1.088   8.860  20.663  0.00  0.00    +0.000 A 
ENDBRANCH   1  11
BRANCH   4  14
ATOM     14  C   UNL     1       4.608   3.740  17.063  0.00  0.00    +0.000 C 
BRANCH  14  15
ATOM     15  C   UNL     1       5.719   4.166  16.153  0.00  0.00    +0.000 A 
ATOM     16  C   UNL     1       7.047   4.420  16.440  0.00  0.00    +0.000 A 
ATOM     17  N   UNL     1       7.835   4.798  15.367  0.00  0.00    +0.000 NA
ATOM     18  C   UNL     1       7.086   4.820  14.293  0.00  0.00    +0.000 A 
ATOM     19 CL   UNL     1       7.702   5.226  12.744  0.00  0.00    +0.000 Cl
ATOM     20  S   UNL     1       5.446   4.426  14.472  0.00  0.00    +0.000 S 
ENDBRANCH  14  15
ENDBRANCH   4  14
TORSDOF 3
ENDMDL
MODEL 2
REMARK VINA RESULT:      -6.9      0.084      1.077
REMARK  Name = 
REMARK  3 active torsions:
REMARK  status: ('A' for Active; 'I' for Inactive)
REMARK    1  A    between atoms: C_5  and  N_6
REMARK    2  A    between atoms: N_9  and  C_10
REMARK    3  A    between atoms: C_10  and  C_11
REMARK                            x       y       z     vdW  Elec       q    Type
REMARK                         _______ _______ _______ _____ _____    ______ ____
ROOT
ATOM      1  N   UNL     1       2.796   6.669  18.271  0.00  0.00    +0.000 N 
ATOM      2  C   UNL     1       4.117   6.797  17.638  0.00  0.00    +0.000 C 
ATOM      3  C   UNL     1       5.153   5.840  18.281  0.00  0.00    +0.000 C 
ATOM      4  N   UNL     1       4.711   4.426  18.421  0.00  0.00    +0.000 NA
ATOM      5  C   UNL     1       3.421   4.444  19.155  0.00  0.00    +0.000 C 
ATOM      6  C   UNL     1       2.310   5.301  18.506  0.00  0.00    +0.000 C 
ENDROOT
BRANCH   1  11
ATOM      7  F   UNL     1       0.124  10.978  20.500  0.00  0.00    +0.000 F 
ATOM      8  C   UNL     1       0.758   9.932  19.957  0.00  0.00    +0.000 A 
ATOM      9  C   UNL     1       1.101   8.848  20.750  0.00  0.00    +0.000 A 
ATOM     10  C   UNL     1       1.772   7.765  20.176  0.00  0.00    +0.000 A 
ATOM     11  C   UNL     1       2.112   7.741  18.811  0.00  0.00    +0.000 A 
ATOM     12  C   UNL     1       1.738   8.851  18.041  0.00  0.00    +0.000 A 
ATOM     13  C   UNL     1       1.069   9.942  18.607  0.00  0.00    +0.000 A 
ENDBRANCH   1  11
BRANCH   4  14
ATOM     14  C   UNL     1       4.611   3.789  17.093  0.00  0.00    +0.000 C 
BRANCH  14  15
ATOM     15  C   UNL     1       5.716   4.186  16.164  0.00  0.00    +0.000 A 
ATOM     16  C   UNL     1       7.048   4.445  16.433  0.00  0.00    +0.000 A 
ATOM     17  N   UNL     1       7.827   4.791  15.344  0.00  0.00    +0.000 NA
ATOM     18  C   UNL     1       7.070   4.786  14.276  0.00  0.00    +0.000 A 
ATOM     19 CL   UNL     1       7.675   5.148  12.712  0.00  0.00    +0.000 Cl
ATOM     20  S   UNL     1       5.430   4.401  14.479  0.00  0.00    +0.000 S 
ENDBRANCH  14  15
ENDBRANCH   4  14
TORSDOF 3
ENDMDL
MODEL 3
REMARK VINA RESULT:      -6.8      1.022      1.436
REMARK  Name = 
REMARK  3 active torsions:
REMARK  status: ('A' for Active; 'I' for Inactive)
REMARK    1  A    between atoms: C_5  and  N_6
REMARK    2  A    between atoms: N_9  and  C_10
REMARK    3  A    between atoms: C_10  and  C_11
REMARK                            x       y       z     vdW  Elec       q    Type
REMARK                         _______ _______ _______ _____ _____    ______ ____
ROOT
ATOM      1  N   UNL     1       2.975   6.710  19.351  0.00  0.00    +0.000 N 
ATOM      2  C   UNL     1       3.231   5.498  20.143  0.00  0.00    +0.000 C 
ATOM      3  C   UNL     1       3.057   4.213  19.294  0.00  0.00    +0.000 C 
ATOM      4  N   UNL     1       3.769   4.213  17.987  0.00  0.00    +0.000 NA
ATOM      5  C   UNL     1       3.345   5.437  17.261  0.00  0.00    +0.000 C 
ATOM      6  C   UNL     1       3.589   6.763  18.016  0.00  0.00    +0.000 C 
ENDROOT
BRANCH   1  11
ATOM      7  F   UNL     1      -0.772  10.539  20.754  0.00  0.00    +0.000 F 
ATOM      8  C   UNL     1       0.142   9.620  20.422  0.00  0.00    +0.000 A 
ATOM      9  C   UNL     1       0.752   9.676  19.179  0.00  0.00    +0.000 A 
ATOM     10  C   UNL     1       1.698   8.707  18.836  0.00  0.00    +0.000 A 
ATOM     11  C   UNL     1       2.053   7.670  19.720  0.00  0.00    +0.000 A 
ATOM     12  C   UNL     1       1.421   7.656  20.971  0.00  0.00    +0.000 A 
ATOM     13  C   UNL     1       0.470   8.620  21.322  0.00  0.00    +0.000 A 
ENDBRANCH   1  11
BRANCH   4  14
ATOM     14  C   UNL     1       5.227   4.144  18.201  0.00  0.00    +0.000 C 
BRANCH  14  15
ATOM     15  C   UNL     1       6.020   4.611  17.019  0.00  0.00    +0.000 A 
ATOM     16  C   UNL     1       6.939   5.640  16.922  0.00  0.00    +0.000 A 
ATOM     17  N   UNL     1       7.511   5.822  15.675  0.00  0.00    +0.000 NA
ATOM     18  C   UNL     1       7.014   4.927  14.858  0.00  0.00    +0.000 A 
ATOM     19 CL   UNL     1       7.488   4.812  13.213  0.00  0.00    +0.000 Cl
ATOM     20  S   UNL     1       5.858   3.853  15.481  0.00  0.00    +0.000 S 
ENDBRANCH  14  15
ENDBRANCH   4  14
TORSDOF 3
ENDMDL
MODEL 4
REMARK VINA RESULT:      -6.7      1.215      1.948
REMARK  Name = 
REMARK  3 active torsions:
REMARK  status: ('A' for Active; 'I' for Inactive)
REMARK    1  A    between atoms: C_5  and  N_6
REMARK    2  A    between atoms: N_9  and  C_10
REMARK    3  A    between atoms: C_10  and  C_11
REMARK                            x       y       z     vdW  Elec       q    Type
REMARK                         _______ _______ _______ _____ _____    ______ ____
ROOT
ATOM      1  N   UNL     1       2.679   6.861  19.571  0.00  0.00    +0.000 N 
ATOM      2  C   UNL     1       2.858   5.623  20.343  0.00  0.00    +0.000 C 
ATOM      3  C   UNL     1       2.696   4.366  19.450  0.00  0.00    +0.000 C 
ATOM      4  N   UNL     1       3.479   4.379  18.185  0.00  0.00    +0.000 NA
ATOM      5  C   UNL     1       3.130   5.633  17.471  0.00  0.00    +0.000 C 
ATOM      6  C   UNL     1       3.368   6.932  18.274  0.00  0.00    +0.000 C 
ENDROOT
BRANCH   1  11
ATOM      7  F   UNL     1      -0.937  10.794  21.032  0.00  0.00    +0.000 F 
ATOM      8  C   UNL     1      -0.073   9.838  20.673  0.00  0.00    +0.000 A 
ATOM      9  C   UNL     1       0.196   8.791  21.540  0.00  0.00    +0.000 A 
ATOM     10  C   UNL     1       1.108   7.803  21.160  0.00  0.00    +0.000 A 
ATOM     11  C   UNL     1       1.765   7.838  19.916  0.00  0.00    +0.000 A 
ATOM     12  C   UNL     1       1.457   8.907  19.063  0.00  0.00    +0.000 A 
ATOM     13  C   UNL     1       0.548   9.903  19.436  0.00  0.00    +0.000 A 
ENDBRANCH   1  11
BRANCH   4  14
ATOM     14  C   UNL     1       4.921   4.263  18.476  0.00  0.00    +0.000 C 
BRANCH  14  15
ATOM     15  C   UNL     1       5.790   4.708  17.341  0.00  0.00    +0.000 A 
ATOM     16  C   UNL     1       6.757   5.696  17.303  0.00  0.00    +0.000 A 
ATOM     17  N   UNL     1       7.398   5.868  16.089  0.00  0.00    +0.000 NA
ATOM     18  C   UNL     1       6.902   5.007  15.236  0.00  0.00    +0.000 A 
ATOM     19 CL   UNL     1       7.451   4.891  13.614  0.00  0.00    +0.000 Cl
ATOM     20  S   UNL     1       5.671   3.977  15.786  0.00  0.00    +0.000 S 
ENDBRANCH  14  15
ENDBRANCH   4  14
TORSDOF 3
ENDMDL
MODEL 5
REMARK VINA RESULT:      -6.7      3.338      4.232
REMARK  Name = 
REMARK  3 active torsions:
REMARK  status: ('A' for Active; 'I' for Inactive)
REMARK    1  A    between atoms: C_5  and  N_6
REMARK    2  A    between atoms: N_9  and  C_10
REMARK    3  A    between atoms: C_10  and  C_11
REMARK                            x       y       z     vdW  Elec       q    Type
REMARK                         _______ _______ _______ _____ _____    ______ ____
ROOT
ATOM      1  N   UNL     1       3.667   4.544  18.026  0.00  0.00    +0.000 N 
ATOM      2  C   UNL     1       4.074   5.953  17.922  0.00  0.00    +0.000 C 
ATOM      3  C   UNL     1       5.597   6.090  17.664  0.00  0.00    +0.000 C 
ATOM      4  N   UNL     1       6.133   5.247  16.560  0.00  0.00    +0.000 NA
ATOM      5  C   UNL     1       5.727   3.848  16.845  0.00  0.00    +0.000 C 
ATOM      6  C   UNL     1       4.206   3.628  17.010  0.00  0.00    +0.000 C 
ENDROOT
BRANCH   1  11
ATOM      7  F   UNL     1       0.871   2.472  22.335  0.00  0.00    +0.000 F 
ATOM      8  C   UNL     1       1.552   2.982  21.302  0.00  0.00    +0.000 A 
ATOM      9  C   UNL     1       0.919   3.842  20.418  0.00  0.00    +0.000 A 
ATOM     10  C   UNL     1       1.634   4.361  19.337  0.00  0.00    +0.000 A 
ATOM     11  C   UNL     1       2.986   4.036  19.115  0.00  0.00    +0.000 A 
ATOM     12  C   UNL     1       3.592   3.172  20.038  0.00  0.00    +0.000 A 
ATOM     13  C   UNL     1       2.883   2.644  21.122  0.00  0.00    +0.000 A 
ENDBRANCH   1  11
BRANCH   4  14
ATOM     14  C   UNL     1       5.640   5.738  15.259  0.00  0.00    +0.000 C 
BRANCH  14  15
ATOM     15  C   UNL     1       6.110   4.913  14.101  0.00  0.00    +0.000 A 
ATOM     16  C   UNL     1       7.280   5.001  13.370  0.00  0.00    +0.000 A 
ATOM     17  N   UNL     1       7.425   4.080  12.348  0.00  0.00    +0.000 NA
ATOM     18  C   UNL     1       6.362   3.315  12.328  0.00  0.00    +0.000 A 
ATOM     19 CL   UNL     1       6.167   2.030  11.208  0.00  0.00    +0.000 Cl
ATOM     20  S   UNL     1       5.147   3.632  13.469  0.00  0.00    +0.000 S 
ENDBRANCH  14  15
ENDBRANCH   4  14
TORSDOF 3
ENDMDL
MODEL 6
REMARK VINA RESULT:      -6.7      3.290      4.275
REMARK  Name = 
REMARK  3 active torsions:
REMARK  status: ('A' for Active; 'I' for Inactive)
REMARK    1  A    between atoms: C_5  and  N_6
REMARK    2  A    between atoms: N_9  and  C_10
REMARK    3  A    between atoms: C_10  and  C_11
REMARK                            x       y       z     vdW  Elec       q    Type
REMARK                         _______ _______ _______ _____ _____    ______ ____
ROOT
ATOM      1  N   UNL     1       3.582   4.581  17.979  0.00  0.00    +0.000 N 
ATOM      2  C   UNL     1       3.861   6.018  17.833  0.00  0.00    +0.000 C 
ATOM      3  C   UNL     1       5.373   6.285  17.617  0.00  0.00    +0.000 C 
ATOM      4  N   UNL     1       6.022   5.457  16.565  0.00  0.00    +0.000 NA
ATOM      5  C   UNL     1       5.737   4.038  16.891  0.00  0.00    +0.000 C 
ATOM      6  C   UNL     1       4.237   3.684  17.017  0.00  0.00    +0.000 C 
ENDROOT
BRANCH   1  11
ATOM      7  F   UNL     1       0.967   2.489  22.391  0.00  0.00    +0.000 F 
ATOM      8  C   UNL     1       1.593   2.986  21.317  0.00  0.00    +0.000 A 
ATOM      9  C   UNL     1       2.905   2.622  21.056  0.00  0.00    +0.000 A 
ATOM     10  C   UNL     1       3.553   3.153  19.939  0.00  0.00    +0.000 A 
ATOM     11  C   UNL     1       2.912   4.052  19.065  0.00  0.00    +0.000 A 
ATOM     12  C   UNL     1       1.583   4.386  19.358  0.00  0.00    +0.000 A 
ATOM     13  C   UNL     1       0.926   3.862  20.477  0.00  0.00    +0.000 A 
ENDBRANCH   1  11
BRANCH   4  14
ATOM     14  C   UNL     1       5.532   5.853  15.230  0.00  0.00    +0.000 C 
BRANCH  14  15
ATOM     15  C   UNL     1       6.072   4.998  14.126  0.00  0.00    +0.000 A 
ATOM     16  C   UNL     1       7.301   5.042  13.494  0.00  0.00    +0.000 A 
ATOM     17  N   UNL     1       7.502   4.101  12.499  0.00  0.00    +0.000 NA
ATOM     18  C   UNL     1       6.422   3.367  12.401  0.00  0.00    +0.000 A 
ATOM     19 CL   UNL     1       6.283   2.071  11.286  0.00  0.00    +0.000 Cl
ATOM     20  S   UNL     1       5.127   3.735  13.433  0.00  0.00    +0.000 S 
ENDBRANCH  14  15
ENDBRANCH   4  14
TORSDOF 3
ENDMDL
MODEL 7
REMARK VINA RESULT:      -6.7      5.015      7.674
REMARK  Name = 
REMARK  3 active torsions:
REMARK  status: ('A' for Active; 'I' for Inactive)
REMARK    1  A    between atoms: C_5  and  N_6
REMARK    2  A    between atoms: N_9  and  C_10
REMARK    3  A    between atoms: C_10  and  C_11
REMARK                            x       y       z     vdW  Elec       q    Type
REMARK                         _______ _______ _______ _____ _____    ______ ____
ROOT
ATOM      1  N   UNL     1       5.043   4.983  15.626  0.00  0.00    +0.000 N 
ATOM      2  C   UNL     1       4.428   4.000  16.530  0.00  0.00    +0.000 C 
ATOM      3  C   UNL     1       4.892   4.204  17.996  0.00  0.00    +0.000 C 
ATOM      4  N   UNL     1       4.798   5.599  18.504  0.00  0.00    +0.000 NA
ATOM      5  C   UNL     1       5.538   6.461  17.548  0.00  0.00    +0.000 C 
ATOM      6  C   UNL     1       5.051   6.381  16.084  0.00  0.00    +0.000 C 
ENDROOT
BRANCH   1  11
ATOM      7  F   UNL     1       7.848   3.576  11.063  0.00  0.00    +0.000 F 
ATOM      8  C   UNL     1       7.177   3.908  12.172  0.00  0.00    +0.000 A 
ATOM      9  C   UNL     1       5.923   3.366  12.405  0.00  0.00    +0.000 A 
ATOM     10  C   UNL     1       5.226   3.725  13.561  0.00  0.00    +0.000 A 
ATOM     11  C   UNL     1       5.761   4.626  14.502  0.00  0.00    +0.000 A 
ATOM     12  C   UNL     1       7.035   5.143  14.234  0.00  0.00    +0.000 A 
ATOM     13  C   UNL     1       7.741   4.791  13.078  0.00  0.00    +0.000 A 
ENDBRANCH   1  11
BRANCH   4  14
ATOM     14  C   UNL     1       3.384   5.991  18.661  0.00  0.00    +0.000 C 
BRANCH  14  15
ATOM     15  C   UNL     1       2.545   4.928  19.299  0.00  0.00    +0.000 A 
ATOM     16  C   UNL     1       1.522   4.167  18.760  0.00  0.00    +0.000 A 
ATOM     17  N   UNL     1       0.935   3.253  19.616  0.00  0.00    +0.000 NA
ATOM     18  C   UNL     1       1.525   3.340  20.782  0.00  0.00    +0.000 A 
ATOM     19 CL   UNL     1       1.092   2.351  22.114  0.00  0.00    +0.000 Cl
ATOM     20  S   UNL     1       2.766   4.485  20.949  0.00  0.00    +0.000 S 
ENDBRANCH  14  15
ENDBRANCH   4  14
TORSDOF 3
ENDMDL
MODEL 8
REMARK VINA RESULT:      -6.6      5.142      7.576
REMARK  Name = 
REMARK  3 active torsions:
REMARK  status: ('A' for Active; 'I' for Inactive)
REMARK    1  A    between atoms: C_5  and  N_6
REMARK    2  A    between atoms: N_9  and  C_10
REMARK    3  A    between atoms: C_10  and  C_11
REMARK                            x       y       z     vdW  Elec       q    Type
REMARK                         _______ _______ _______ _____ _____    ______ ____
ROOT
ATOM      1  N   UNL     1       5.703   4.863  15.923  0.00  0.00    +0.000 N 
ATOM      2  C   UNL     1       5.847   6.177  16.567  0.00  0.00    +0.000 C 
ATOM      3  C   UNL     1       4.484   6.719  17.070  0.00  0.00    +0.000 C 
ATOM      4  N   UNL     1       3.679   5.762  17.877  0.00  0.00    +0.000 NA
ATOM      5  C   UNL     1       3.536   4.525  17.070  0.00  0.00    +0.000 C 
ATOM      6  C   UNL     1       4.867   3.877  16.624  0.00  0.00    +0.000 C 
ENDROOT
BRANCH   1  11
ATOM      7  F   UNL     1       7.550   3.786  10.814  0.00  0.00    +0.000 F 
ATOM      8  C   UNL     1       7.095   4.054  12.044  0.00  0.00    +0.000 A 
ATOM      9  C   UNL     1       7.787   4.941  12.854  0.00  0.00    +0.000 A 
ATOM     10  C   UNL     1       7.310   5.208  14.140  0.00  0.00    +0.000 A 
ATOM     11  C   UNL     1       6.143   4.601  14.640  0.00  0.00    +0.000 A 
ATOM     12  C   UNL     1       5.467   3.719  13.786  0.00  0.00    +0.000 A 
ATOM     13  C   UNL     1       5.939   3.443  12.497  0.00  0.00    +0.000 A 
ENDBRANCH   1  11
BRANCH   4  14
ATOM     14  C   UNL     1       4.324   5.529  19.184  0.00  0.00    +0.000 C 
BRANCH  14  15
ATOM     15  C   UNL     1       3.696   4.413  19.960  0.00  0.00    +0.000 A 
ATOM     16  C   UNL     1       4.134   3.116  20.155  0.00  0.00    +0.000 A 
ATOM     17  N   UNL     1       3.321   2.315  20.936  0.00  0.00    +0.000 NA
ATOM     18  C   UNL     1       2.286   3.022  21.316  0.00  0.00    +0.000 A 
ATOM     19 CL   UNL     1       1.048   2.386  22.318  0.00  0.00    +0.000 Cl
ATOM     20  S   UNL     1       2.195   4.629  20.778  0.00  0.00    +0.000 S 
ENDBRANCH  14  15
ENDBRANCH   4  14
TORSDOF 3
ENDMDL
MODEL 9
REMARK VINA RESULT:      -6.6      5.123      7.571
REMARK  Name = 
REMARK  3 active torsions:
REMARK  status: ('A' for Active; 'I' for Inactive)
REMARK    1  A    between atoms: C_5  and  N_6
REMARK    2  A    between atoms: N_9  and  C_10
REMARK    3  A    between atoms: C_10  and  C_11
REMARK                            x       y       z     vdW  Elec       q    Type
REMARK                         _______ _______ _______ _____ _____    ______ ____
ROOT
ATOM      1  N   UNL     1       5.746   4.916  15.963  0.00  0.00    +0.000 N 
ATOM      2  C   UNL     1       5.844   6.234  16.606  0.00  0.00    +0.000 C 
ATOM      3  C   UNL     1       4.459   6.741  17.083  0.00  0.00    +0.000 C 
ATOM      4  N   UNL     1       3.663   5.765  17.876  0.00  0.00    +0.000 NA
ATOM      5  C   UNL     1       3.567   4.523  17.068  0.00  0.00    +0.000 C 
ATOM      6  C   UNL     1       4.923   3.910  16.649  0.00  0.00    +0.000 C 
ENDROOT
BRANCH   1  11
ATOM      7  F   UNL     1       7.550   3.927  10.820  0.00  0.00    +0.000 F 
ATOM      8  C   UNL     1       7.123   4.158  12.067  0.00  0.00    +0.000 A 
ATOM      9  C   UNL     1       5.999   3.501  12.542  0.00  0.00    +0.000 A 
ATOM     10  C   UNL     1       5.555   3.755  13.842  0.00  0.00    +0.000 A 
ATOM     11  C   UNL     1       6.217   4.663  14.689  0.00  0.00    +0.000 A 
ATOM     12  C   UNL     1       7.356   5.299  14.175  0.00  0.00    +0.000 A 
ATOM     13  C   UNL     1       7.807   5.053  12.873  0.00  0.00    +0.000 A 
ENDBRANCH   1  11
BRANCH   4  14
ATOM     14  C   UNL     1       4.288   5.549  19.195  0.00  0.00    +0.000 C 
BRANCH  14  15
ATOM     15  C   UNL     1       3.662   4.430  19.968  0.00  0.00    +0.000 A 
ATOM     16  C   UNL     1       4.116   3.142  20.182  0.00  0.00    +0.000 A 
ATOM     17  N   UNL     1       3.300   2.334  20.954  0.00  0.00    +0.000 NA
ATOM     18  C   UNL     1       2.248   3.029  21.308  0.00  0.00    +0.000 A 
ATOM     19 CL   UNL     1       1.001   2.383  22.293  0.00  0.00    +0.000 Cl
ATOM     20  S   UNL     1       2.143   4.630  20.756  0.00  0.00    +0.000 S 
ENDBRANCH  14  15
ENDBRANCH   4  14
TORSDOF 3
ENDMDL
