MODEL 1
REMARK VINA RESULT:      -8.3      0.000      0.000
REMARK  Name = 
REMARK  1 active torsions:
REMARK  status: ('A' for Active; 'I' for Inactive)
REMARK    1  A    between atoms: N_15  and  C_16
REMARK                            x       y       z     vdW  Elec       q    Type
REMARK                         _______ _______ _______ _____ _____    ______ ____
ROOT
ATOM      1  O   UNL     1       2.462   3.376  16.539  0.00  0.00    +0.000 OA
ATOM      2  C   UNL     1       3.405   3.990  17.009  0.00  0.00    +0.000 C 
ATOM      3  C   UNL     1       4.569   4.424  16.252  0.00  0.00    +0.000 C 
ATOM      4  C   UNL     1       4.821   3.928  15.051  0.00  0.00    +0.000 C 
ATOM      5  C   UNL     1       5.948   4.230  14.189  0.00  0.00    +0.000 A 
ATOM      6  C   UNL     1       5.897   3.538  12.958  0.00  0.00    +0.000 A 
ATOM      7  C   UNL     1       6.812   3.775  11.944  0.00  0.00    +0.000 A 
ATOM      8  C   UNL     1       7.805   4.723  12.153  0.00  0.00    +0.000 A 
ATOM      9  C   UNL     1       7.917   5.360  13.396  0.00  0.00    +0.000 A 
ATOM     10  C   UNL     1       7.007   5.109  14.438  0.00  0.00    +0.000 A 
ATOM     11  O   UNL     1       7.376   5.670  15.628  0.00  0.00    +0.000 OA
ATOM     12  C   UNL     1       6.447   6.148  16.581  0.00  0.00    +0.000 C 
ATOM     13  C   UNL     1       5.340   5.277  17.120  0.00  0.00    +0.000 C 
ATOM     14  N   UNL     1       4.881   5.235  18.355  0.00  0.00    +0.000 NA
ATOM     15  N   UNL     1       3.731   4.411  18.302  0.00  0.00    +0.000 N 
ENDROOT
BRANCH  15  16
ATOM     16  C   UNL     1       3.087   3.946  19.471  0.00  0.00    +0.000 A 
ATOM     17  C   UNL     1       1.788   4.380  19.795  0.00  0.00    +0.000 A 
ATOM     18  C   UNL     1       1.085   3.866  20.887  0.00  0.00    +0.000 A 
ATOM     19  C   UNL     1       1.682   2.898  21.679  0.00  0.00    +0.000 A 
ATOM     20  C   UNL     1       2.970   2.466  21.377  0.00  0.00    +0.000 A 
ATOM     21  F   UNL     1       3.527   1.511  22.129  0.00  0.00    +0.000 F 
ATOM     22  C   UNL     1       3.684   2.982  20.288  0.00  0.00    +0.000 A 
ENDBRANCH  15  16
TORSDOF 1
ENDMDL
MODEL 2
REMARK VINA RESULT:      -7.8      5.089      8.389
REMARK  Name = 
REMARK  1 active torsions:
REMARK  status: ('A' for Active; 'I' for Inactive)
REMARK    1  A    between atoms: N_15  and  C_16
REMARK                            x       y       z     vdW  Elec       q    Type
REMARK                         _______ _______ _______ _____ _____    ______ ____
ROOT
ATOM      1  O   UNL     1       2.402   6.134  20.997  0.00  0.00    +0.000 OA
ATOM      2  C   UNL     1       2.231   6.903  20.067  0.00  0.00    +0.000 C 
ATOM      3  C   UNL     1       1.553   8.186  20.169  0.00  0.00    +0.000 C 
ATOM      4  C   UNL     1       0.815   8.482  21.227  0.00  0.00    +0.000 C 
ATOM      5  C   UNL     1       0.055   9.694  21.464  0.00  0.00    +0.000 A 
ATOM      6  C   UNL     1      -0.605   9.692  22.713  0.00  0.00    +0.000 A 
ATOM      7  C   UNL     1      -1.286  10.803  23.186  0.00  0.00    +0.000 A 
ATOM      8  C   UNL     1      -1.315  11.948  22.401  0.00  0.00    +0.000 A 
ATOM      9  C   UNL     1      -0.734  11.940  21.126  0.00  0.00    +0.000 A 
ATOM     10  C   UNL     1      -0.061  10.810  20.630  0.00  0.00    +0.000 A 
ATOM     11  O   UNL     1       0.275  10.915  19.309  0.00  0.00    +0.000 OA
ATOM     12  C   UNL     1       1.438  10.330  18.757  0.00  0.00    +0.000 C 
ATOM     13  C   UNL     1       1.740   8.861  18.910  0.00  0.00    +0.000 C 
ATOM     14  N   UNL     1       2.268   8.052  18.013  0.00  0.00    +0.000 NA
ATOM     15  N   UNL     1       2.522   6.841  18.701  0.00  0.00    +0.000 N 
ENDROOT
BRANCH  15  16
ATOM     16  C   UNL     1       2.885   5.655  18.022  0.00  0.00    +0.000 A 
ATOM     17  C   UNL     1       4.096   5.580  17.307  0.00  0.00    +0.000 A 
ATOM     18  C   UNL     1       4.531   4.395  16.710  0.00  0.00    +0.000 A 
ATOM     19  C   UNL     1       3.749   3.256  16.822  0.00  0.00    +0.000 A 
ATOM     20  C   UNL     1       2.546   3.317  17.517  0.00  0.00    +0.000 A 
ATOM     21  F   UNL     1       1.813   2.206  17.644  0.00  0.00    +0.000 F 
ATOM     22  C   UNL     1       2.099   4.503  18.113  0.00  0.00    +0.000 A 
ENDBRANCH  15  16
TORSDOF 1
ENDMDL
MODEL 3
REMARK VINA RESULT:      -7.5      5.207      8.408
REMARK  Name = 
REMARK  1 active torsions:
REMARK  status: ('A' for Active; 'I' for Inactive)
REMARK    1  A    between atoms: N_15  and  C_16
REMARK                            x       y       z     vdW  Elec       q    Type
REMARK                         _______ _______ _______ _____ _____    ______ ____
ROOT
ATOM      1  O   UNL     1       2.284   6.107  21.159  0.00  0.00    +0.000 OA
ATOM      2  C   UNL     1       2.134   6.839  20.196  0.00  0.00    +0.000 C 
ATOM      3  C   UNL     1       1.491   8.143  20.241  0.00  0.00    +0.000 C 
ATOM      4  C   UNL     1       0.760   8.505  21.283  0.00  0.00    +0.000 C 
ATOM      5  C   UNL     1       0.032   9.747  21.465  0.00  0.00    +0.000 A 
ATOM      6  C   UNL     1      -0.628   9.817  22.713  0.00  0.00    +0.000 A 
ATOM      7  C   UNL     1      -1.280  10.966  23.135  0.00  0.00    +0.000 A 
ATOM      8  C   UNL     1      -1.277  12.076  22.300  0.00  0.00    +0.000 A 
ATOM      9  C   UNL     1      -0.696  11.996  21.028  0.00  0.00    +0.000 A 
ATOM     10  C   UNL     1      -0.053  10.828  20.583  0.00  0.00    +0.000 A 
ATOM     11  O   UNL     1       0.287  10.866  19.259  0.00  0.00    +0.000 OA
ATOM     12  C   UNL     1       1.435  10.226  18.736  0.00  0.00    +0.000 C 
ATOM     13  C   UNL     1       1.697   8.758  18.953  0.00  0.00    +0.000 C 
ATOM     14  N   UNL     1       2.204   7.896  18.094  0.00  0.00    +0.000 NA
ATOM     15  N   UNL     1       2.425   6.710  18.835  0.00  0.00    +0.000 N 
ENDROOT
BRANCH  15  16
ATOM     16  C   UNL     1       2.756   5.486  18.209  0.00  0.00    +0.000 A 
ATOM     17  C   UNL     1       1.832   4.424  18.179  0.00  0.00    +0.000 A 
ATOM     18  C   UNL     1       2.087   3.240  17.484  0.00  0.00    +0.000 A 
ATOM     19  C   UNL     1       3.287   3.102  16.803  0.00  0.00    +0.000 A 
ATOM     20  C   UNL     1       4.213   4.139  16.832  0.00  0.00    +0.000 A 
ATOM     21  F   UNL     1       5.355   4.009  16.149  0.00  0.00    +0.000 F 
ATOM     22  C   UNL     1       3.967   5.327  17.532  0.00  0.00    +0.000 A 
ENDBRANCH  15  16
TORSDOF 1
ENDMDL
MODEL 4
REMARK VINA RESULT:      -7.4      5.621      7.538
REMARK  Name = 
REMARK  1 active torsions:
REMARK  status: ('A' for Active; 'I' for Inactive)
REMARK    1  A    between atoms: N_15  and  C_16
REMARK                            x       y       z     vdW  Elec       q    Type
REMARK                         _______ _______ _______ _____ _____    ______ ____
ROOT
ATOM      1  O   UNL     1       2.566   8.897  17.093  0.00  0.00    +0.000 OA
ATOM      2  C   UNL     1       2.116   8.592  18.183  0.00  0.00    +0.000 C 
ATOM      3  C   UNL     1       2.194   7.262  18.767  0.00  0.00    +0.000 C 
ATOM      4  C   UNL     1       2.507   6.212  18.026  0.00  0.00    +0.000 C 
ATOM      5  C   UNL     1       2.594   4.826  18.446  0.00  0.00    +0.000 A 
ATOM      6  C   UNL     1       2.980   3.959  17.399  0.00  0.00    +0.000 A 
ATOM      7  C   UNL     1       3.238   2.614  17.616  0.00  0.00    +0.000 A 
ATOM      8  C   UNL     1       3.111   2.113  18.905  0.00  0.00    +0.000 A 
ATOM      9  C   UNL     1       2.653   2.942  19.939  0.00  0.00    +0.000 A 
ATOM     10  C   UNL     1       2.368   4.301  19.722  0.00  0.00    +0.000 A 
ATOM     11  O   UNL     1       1.759   4.904  20.787  0.00  0.00    +0.000 OA
ATOM     12  C   UNL     1       1.956   6.263  21.124  0.00  0.00    +0.000 C 
ATOM     13  C   UNL     1       1.730   7.372  20.128  0.00  0.00    +0.000 C 
ATOM     14  N   UNL     1       1.199   8.558  20.352  0.00  0.00    +0.000 NA
ATOM     15  N   UNL     1       1.387   9.288  19.153  0.00  0.00    +0.000 N 
ENDROOT
BRANCH  15  16
ATOM     16  C   UNL     1       0.755  10.532  18.926  0.00  0.00    +0.000 A 
ATOM     17  C   UNL     1       1.497  11.728  18.955  0.00  0.00    +0.000 A 
ATOM     18  C   UNL     1       0.926  12.962  18.638  0.00  0.00    +0.000 A 
ATOM     19  C   UNL     1      -0.413  13.015  18.283  0.00  0.00    +0.000 A 
ATOM     20  C   UNL     1      -1.161  11.842  18.260  0.00  0.00    +0.000 A 
ATOM     21  F   UNL     1      -2.444  11.899  17.889  0.00  0.00    +0.000 F 
ATOM     22  C   UNL     1      -0.597  10.602  18.583  0.00  0.00    +0.000 A 
ENDBRANCH  15  16
TORSDOF 1
ENDMDL
MODEL 5
REMARK VINA RESULT:      -7.4      4.492      7.264
REMARK  Name = 
REMARK  1 active torsions:
REMARK  status: ('A' for Active; 'I' for Inactive)
REMARK    1  A    between atoms: N_15  and  C_16
REMARK                            x       y       z     vdW  Elec       q    Type
REMARK                         _______ _______ _______ _____ _____    ______ ____
ROOT
ATOM      1  O   UNL     1       2.262   5.642  21.430  0.00  0.00    +0.000 OA
ATOM      2  C   UNL     1       2.337   6.081  20.295  0.00  0.00    +0.000 C 
ATOM      3  C   UNL     1       1.903   7.410  19.892  0.00  0.00    +0.000 C 
ATOM      4  C   UNL     1       1.126   8.138  20.678  0.00  0.00    +0.000 C 
ATOM      5  C   UNL     1       0.583   9.456  20.410  0.00  0.00    +0.000 A 
ATOM      6  C   UNL     1      -0.193   9.958  21.479  0.00  0.00    +0.000 A 
ATOM      7  C   UNL     1      -0.701  11.248  21.476  0.00  0.00    +0.000 A 
ATOM      8  C   UNL     1      -0.434  12.065  20.385  0.00  0.00    +0.000 A 
ATOM      9  C   UNL     1       0.267  11.557  19.283  0.00  0.00    +0.000 A 
ATOM     10  C   UNL     1       0.767  10.243  19.268  0.00  0.00    +0.000 A 
ATOM     11  O   UNL     1       1.254   9.861  18.050  0.00  0.00    +0.000 OA
ATOM     12  C   UNL     1       2.339   8.968  17.895  0.00  0.00    +0.000 C 
ATOM     13  C   UNL     1       2.344   7.602  18.534  0.00  0.00    +0.000 C 
ATOM     14  N   UNL     1       2.804   6.477  18.022  0.00  0.00    +0.000 NA
ATOM     15  N   UNL     1       2.754   5.535  19.078  0.00  0.00    +0.000 N 
ENDROOT
BRANCH  15  16
ATOM     16  C   UNL     1       2.959   4.153  18.859  0.00  0.00    +0.000 A 
ATOM     17  C   UNL     1       2.344   3.501  17.773  0.00  0.00    +0.000 A 
ATOM     18  C   UNL     1       2.604   2.163  17.469  0.00  0.00    +0.000 A 
ATOM     19  C   UNL     1       3.493   1.451  18.260  0.00  0.00    +0.000 A 
ATOM     20  C   UNL     1       4.100   2.080  19.342  0.00  0.00    +0.000 A 
ATOM     21  F   UNL     1       4.978   1.395  20.082  0.00  0.00    +0.000 F 
ATOM     22  C   UNL     1       3.840   3.420  19.657  0.00  0.00    +0.000 A 
ENDBRANCH  15  16
TORSDOF 1
ENDMDL
MODEL 6
REMARK VINA RESULT:      -7.3      0.950      1.404
REMARK  Name = 
REMARK  1 active torsions:
REMARK  status: ('A' for Active; 'I' for Inactive)
REMARK    1  A    between atoms: N_15  and  C_16
REMARK                            x       y       z     vdW  Elec       q    Type
REMARK                         _______ _______ _______ _____ _____    ______ ____
ROOT
ATOM      1  O   UNL     1       2.730   3.143  16.417  0.00  0.00    +0.000 OA
ATOM      2  C   UNL     1       3.702   3.704  16.894  0.00  0.00    +0.000 C 
ATOM      3  C   UNL     1       4.831   4.199  16.122  0.00  0.00    +0.000 C 
ATOM      4  C   UNL     1       5.018   3.817  14.869  0.00  0.00    +0.000 C 
ATOM      5  C   UNL     1       6.104   4.190  13.982  0.00  0.00    +0.000 A 
ATOM      6  C   UNL     1       5.983   3.617  12.696  0.00  0.00    +0.000 A 
ATOM      7  C   UNL     1       6.849   3.942  11.663  0.00  0.00    +0.000 A 
ATOM      8  C   UNL     1       7.862   4.860  11.909  0.00  0.00    +0.000 A 
ATOM      9  C   UNL     1       8.043   5.377  13.199  0.00  0.00    +0.000 A 
ATOM     10  C   UNL     1       7.183   5.035  14.257  0.00  0.00    +0.000 A 
ATOM     11  O   UNL     1       7.618   5.480  15.475  0.00  0.00    +0.000 OA
ATOM     12  C   UNL     1       6.743   5.872  16.514  0.00  0.00    +0.000 C 
ATOM     13  C   UNL     1       5.655   4.962  17.026  0.00  0.00    +0.000 C 
ATOM     14  N   UNL     1       5.258   4.807  18.273  0.00  0.00    +0.000 NA
ATOM     15  N   UNL     1       4.097   3.999  18.201  0.00  0.00    +0.000 N 
ENDROOT
BRANCH  15  16
ATOM     16  C   UNL     1       3.508   3.431  19.354  0.00  0.00    +0.000 A 
ATOM     17  C   UNL     1       4.220   2.507  20.142  0.00  0.00    +0.000 A 
ATOM     18  C   UNL     1       3.708   2.004  21.340  0.00  0.00    +0.000 A 
ATOM     19  C   UNL     1       2.457   2.424  21.768  0.00  0.00    +0.000 A 
ATOM     20  C   UNL     1       1.738   3.329  20.994  0.00  0.00    +0.000 A 
ATOM     21  F   UNL     1       0.546   3.750  21.430  0.00  0.00    +0.000 F 
ATOM     22  C   UNL     1       2.242   3.833  19.789  0.00  0.00    +0.000 A 
ENDBRANCH  15  16
TORSDOF 1
ENDMDL
MODEL 7
REMARK VINA RESULT:      -7.3      5.715      7.617
REMARK  Name = 
REMARK  1 active torsions:
REMARK  status: ('A' for Active; 'I' for Inactive)
REMARK    1  A    between atoms: N_15  and  C_16
REMARK                            x       y       z     vdW  Elec       q    Type
REMARK                         _______ _______ _______ _____ _____    ______ ____
ROOT
ATOM      1  O   UNL     1       2.640   8.861  17.015  0.00  0.00    +0.000 OA
ATOM      2  C   UNL     1       2.149   8.601  18.099  0.00  0.00    +0.000 C 
ATOM      3  C   UNL     1       2.161   7.285  18.718  0.00  0.00    +0.000 C 
ATOM      4  C   UNL     1       2.457   6.205  18.013  0.00  0.00    +0.000 C 
ATOM      5  C   UNL     1       2.481   4.829  18.470  0.00  0.00    +0.000 A 
ATOM      6  C   UNL     1       2.863   3.921  17.457  0.00  0.00    +0.000 A 
ATOM      7  C   UNL     1       3.065   2.574  17.715  0.00  0.00    +0.000 A 
ATOM      8  C   UNL     1       2.885   2.112  19.013  0.00  0.00    +0.000 A 
ATOM      9  C   UNL     1       2.429   2.984  20.011  0.00  0.00    +0.000 A 
ATOM     10  C   UNL     1       2.200   4.346  19.752  0.00  0.00    +0.000 A 
ATOM     11  O   UNL     1       1.584   4.998  20.783  0.00  0.00    +0.000 OA
ATOM     12  C   UNL     1       1.821   6.358  21.092  0.00  0.00    +0.000 C 
ATOM     13  C   UNL     1       1.664   7.448  20.062  0.00  0.00    +0.000 C 
ATOM     14  N   UNL     1       1.172   8.657  20.240  0.00  0.00    +0.000 NA
ATOM     15  N   UNL     1       1.420   9.348  19.029  0.00  0.00    +0.000 N 
ENDROOT
BRANCH  15  16
ATOM     16  C   UNL     1       0.841  10.608  18.753  0.00  0.00    +0.000 A 
ATOM     17  C   UNL     1      -0.547  10.731  18.553  0.00  0.00    +0.000 A 
ATOM     18  C   UNL     1      -1.164  11.971  18.379  0.00  0.00    +0.000 A 
ATOM     19  C   UNL     1      -0.388  13.120  18.401  0.00  0.00    +0.000 A 
ATOM     20  C   UNL     1       0.986  13.014  18.588  0.00  0.00    +0.000 A 
ATOM     21  F   UNL     1       1.722  14.129  18.638  0.00  0.00    +0.000 F 
ATOM     22  C   UNL     1       1.613  11.773  18.758  0.00  0.00    +0.000 A 
ENDBRANCH  15  16
TORSDOF 1
ENDMDL
MODEL 8
REMARK VINA RESULT:      -7.3      4.590      7.827
REMARK  Name = 
REMARK  1 active torsions:
REMARK  status: ('A' for Active; 'I' for Inactive)
REMARK    1  A    between atoms: N_15  and  C_16
REMARK                            x       y       z     vdW  Elec       q    Type
REMARK                         _______ _______ _______ _____ _____    ______ ____
ROOT
ATOM      1  O   UNL     1       3.356   7.890  16.438  0.00  0.00    +0.000 OA
ATOM      2  C   UNL     1       3.270   7.390  17.546  0.00  0.00    +0.000 C 
ATOM      3  C   UNL     1       2.401   7.875  18.607  0.00  0.00    +0.000 C 
ATOM      4  C   UNL     1       1.852   9.076  18.539  0.00  0.00    +0.000 C 
ATOM      5  C   UNL     1       0.997   9.715  19.522  0.00  0.00    +0.000 A 
ATOM      6  C   UNL     1       0.562  10.998  19.119  0.00  0.00    +0.000 A 
ATOM      7  C   UNL     1      -0.357  11.727  19.857  0.00  0.00    +0.000 A 
ATOM      8  C   UNL     1      -0.862  11.171  21.025  0.00  0.00    +0.000 A 
ATOM      9  C   UNL     1      -0.383   9.935  21.479  0.00  0.00    +0.000 A 
ATOM     10  C   UNL     1       0.566   9.199  20.748  0.00  0.00    +0.000 A 
ATOM     11  O   UNL     1       1.054   8.118  21.427  0.00  0.00    +0.000 OA
ATOM     12  C   UNL     1       1.444   6.916  20.792  0.00  0.00    +0.000 C 
ATOM     13  C   UNL     1       2.448   6.899  19.667  0.00  0.00    +0.000 C 
ATOM     14  N   UNL     1       3.391   6.005  19.445  0.00  0.00    +0.000 NA
ATOM     15  N   UNL     1       3.929   6.330  18.177  0.00  0.00    +0.000 N 
ENDROOT
BRANCH  15  16
ATOM     16  C   UNL     1       5.113   5.732  17.689  0.00  0.00    +0.000 A 
ATOM     17  C   UNL     1       6.332   5.891  18.376  0.00  0.00    +0.000 A 
ATOM     18  C   UNL     1       7.498   5.233  17.978  0.00  0.00    +0.000 A 
ATOM     19  C   UNL     1       7.458   4.397  16.873  0.00  0.00    +0.000 A 
ATOM     20  C   UNL     1       6.263   4.238  16.179  0.00  0.00    +0.000 A 
ATOM     21  F   UNL     1       6.227   3.408  15.131  0.00  0.00    +0.000 F 
ATOM     22  C   UNL     1       5.091   4.900  16.567  0.00  0.00    +0.000 A 
ENDBRANCH  15  16
TORSDOF 1
ENDMDL
MODEL 9
REMARK VINA RESULT:      -7.3      3.110      7.312
REMARK  Name = 
REMARK  1 active torsions:
REMARK  status: ('A' for Active; 'I' for Inactive)
REMARK    1  A    between atoms: N_15  and  C_16
REMARK                            x       y       z     vdW  Elec       q    Type
REMARK                         _______ _______ _______ _____ _____    ______ ____
ROOT
ATOM      1  O   UNL     1       5.375   2.998  16.423  0.00  0.00    +0.000 OA
ATOM      2  C   UNL     1       5.210   4.182  16.186  0.00  0.00    +0.000 C 
ATOM      3  C   UNL     1       4.475   5.102  17.040  0.00  0.00    +0.000 C 
ATOM      4  C   UNL     1       3.682   4.651  17.999  0.00  0.00    +0.000 C 
ATOM      5  C   UNL     1       2.861   5.430  18.907  0.00  0.00    +0.000 A 
ATOM      6  C   UNL     1       2.152   4.628  19.829  0.00  0.00    +0.000 A 
ATOM      7  C   UNL     1       1.405   5.179  20.859  0.00  0.00    +0.000 A 
ATOM      8  C   UNL     1       1.360   6.562  20.981  0.00  0.00    +0.000 A 
ATOM      9  C   UNL     1       1.993   7.372  20.028  0.00  0.00    +0.000 A 
ATOM     10  C   UNL     1       2.733   6.821  18.968  0.00  0.00    +0.000 A 
ATOM     11  O   UNL     1       3.119   7.746  18.038  0.00  0.00    +0.000 OA
ATOM     12  C   UNL     1       4.328   7.654  17.310  0.00  0.00    +0.000 C 
ATOM     13  C   UNL     1       4.685   6.426  16.511  0.00  0.00    +0.000 C 
ATOM     14  N   UNL     1       5.284   6.377  15.337  0.00  0.00    +0.000 NA
ATOM     15  N   UNL     1       5.560   5.006  15.112  0.00  0.00    +0.000 N 
ENDROOT
BRANCH  15  16
ATOM     16  C   UNL     1       6.001   4.527  13.857  0.00  0.00    +0.000 A 
ATOM     17  C   UNL     1       7.212   4.981  13.302  0.00  0.00    +0.000 A 
ATOM     18  C   UNL     1       7.726   4.455  12.114  0.00  0.00    +0.000 A 
ATOM     19  C   UNL     1       7.022   3.456  11.458  0.00  0.00    +0.000 A 
ATOM     20  C   UNL     1       5.819   3.005  11.991  0.00  0.00    +0.000 A 
ATOM     21  F   UNL     1       5.162   2.021  11.367  0.00  0.00    +0.000 F 
ATOM     22  C   UNL     1       5.294   3.532  13.178  0.00  0.00    +0.000 A 
ENDBRANCH  15  16
TORSDOF 1
ENDMDL
