MODEL 1
REMARK VINA RESULT:      -7.5      0.000      0.000
REMARK  Name = 
REMARK  0 active torsions:
REMARK  status: ('A' for Active; 'I' for Inactive)
REMARK                            x       y       z     vdW  Elec       q    Type
REMARK                         _______ _______ _______ _____ _____    ______ ____
ROOT
ATOM      1  O   UNL     1       2.099   2.147  17.370  0.00  0.00    +0.000 OA
ATOM      2  C   UNL     1       2.798   3.111  17.601  0.00  0.00    +0.000 C 
ATOM      3  N   UNL     1       3.813   3.407  16.757  0.00  0.00    +0.000 N 
ATOM      4  C   UNL     1       5.003   3.993  17.293  0.00  0.00    +0.000 C 
ATOM      5  C   UNL     1       5.985   4.067  16.133  0.00  0.00    +0.000 C 
ATOM      6  C   UNL     1       7.246   4.681  15.535  0.00  0.00    +0.000 C 
ATOM      7  N   UNL     1       7.374   6.098  15.872  0.00  0.00    +0.000 NA
ATOM      8  C   UNL     1       7.017   6.426  17.273  0.00  0.00    +0.000 C 
ATOM      9  C   UNL     1       5.504   6.494  17.763  0.00  0.00    +0.000 C 
ATOM     10  N   UNL     1       4.664   5.265  17.932  0.00  0.00    +0.000 N 
ATOM     11  C   UNL     1       3.490   5.222  18.731  0.00  0.00    +0.000 A 
ATOM     12  C   UNL     1       3.103   6.245  19.595  0.00  0.00    +0.000 A 
ATOM     13  C   UNL     1       1.966   6.152  20.428  0.00  0.00    +0.000 A 
ATOM     14  C   UNL     1       1.199   4.990  20.441  0.00  0.00    +0.000 A 
ATOM     15  C   UNL     1       1.521   3.943  19.590  0.00  0.00    +0.000 A 
ATOM     16 CL   UNL     1       0.531   2.533  19.715  0.00  0.00    +0.000 Cl
ATOM     17  C   UNL     1       2.619   4.080  18.708  0.00  0.00    +0.000 A 
ATOM     18  H   UNL     1       3.916   2.708  16.041  0.00  0.00    +0.000 HD
ATOM     19  H   UNL     1       8.345   6.361  15.691  0.00  0.00    +0.000 HD
ENDROOT
TORSDOF 0
ENDMDL
MODEL 2
REMARK VINA RESULT:      -7.1      2.066      2.423
REMARK  Name = 
REMARK  0 active torsions:
REMARK  status: ('A' for Active; 'I' for Inactive)
REMARK                            x       y       z     vdW  Elec       q    Type
REMARK                         _______ _______ _______ _____ _____    ______ ____
ROOT
ATOM      1  O   UNL     1       4.659   2.132  21.086  0.00  0.00    +0.000 OA
ATOM      2  C   UNL     1       4.462   2.802  20.094  0.00  0.00    +0.000 C 
ATOM      3  N   UNL     1       5.515   3.179  19.332  0.00  0.00    +0.000 N 
ATOM      4  C   UNL     1       5.461   4.442  18.663  0.00  0.00    +0.000 C 
ATOM      5  C   UNL     1       6.829   4.628  18.022  0.00  0.00    +0.000 C 
ATOM      6  C   UNL     1       7.690   5.330  16.979  0.00  0.00    +0.000 C 
ATOM      7  N   UNL     1       6.958   5.562  15.735  0.00  0.00    +0.000 NA
ATOM      8  C   UNL     1       5.559   6.013  15.926  0.00  0.00    +0.000 C 
ATOM      9  C   UNL     1       4.403   5.012  16.366  0.00  0.00    +0.000 C 
ATOM     10  N   UNL     1       4.317   4.453  17.753  0.00  0.00    +0.000 N 
ATOM     11  C   UNL     1       3.126   3.909  18.305  0.00  0.00    +0.000 A 
ATOM     12  C   UNL     1       1.874   4.012  17.702  0.00  0.00    +0.000 A 
ATOM     13  C   UNL     1       0.693   3.519  18.301  0.00  0.00    +0.000 A 
ATOM     14  C   UNL     1       0.740   2.934  19.564  0.00  0.00    +0.000 A 
ATOM     15  C   UNL     1       1.959   2.783  20.208  0.00  0.00    +0.000 A 
ATOM     16 CL   UNL     1       1.900   2.083  21.786  0.00  0.00    +0.000 Cl
ATOM     17  C   UNL     1       3.142   3.215  19.563  0.00  0.00    +0.000 A 
ATOM     18  H   UNL     1       6.389   2.903  19.747  0.00  0.00    +0.000 HD
ATOM     19  H   UNL     1       7.481   6.264  15.208  0.00  0.00    +0.000 HD
ENDROOT
TORSDOF 0
ENDMDL
MODEL 3
REMARK VINA RESULT:      -6.9      2.186      2.451
REMARK  Name = 
REMARK  0 active torsions:
REMARK  status: ('A' for Active; 'I' for Inactive)
REMARK                            x       y       z     vdW  Elec       q    Type
REMARK                         _______ _______ _______ _____ _____    ______ ____
ROOT
ATOM      1  O   UNL     1       4.749   2.152  20.479  0.00  0.00    +0.000 OA
ATOM      2  C   UNL     1       4.638   3.118  19.754  0.00  0.00    +0.000 C 
ATOM      3  N   UNL     1       5.752   3.782  19.367  0.00  0.00    +0.000 N 
ATOM      4  C   UNL     1       5.673   5.196  19.166  0.00  0.00    +0.000 C 
ATOM      5  C   UNL     1       7.097   5.653  18.882  0.00  0.00    +0.000 C 
ATOM      6  C   UNL     1       8.031   6.713  18.311  0.00  0.00    +0.000 C 
ATOM      7  N   UNL     1       7.479   7.334  17.109  0.00  0.00    +0.000 NA
ATOM      8  C   UNL     1       6.029   7.631  17.186  0.00  0.00    +0.000 C 
ATOM      9  C   UNL     1       4.927   6.490  17.046  0.00  0.00    +0.000 C 
ATOM     10  N   UNL     1       4.687   5.477  18.123  0.00  0.00    +0.000 N 
ATOM     11  C   UNL     1       3.487   4.724  18.235  0.00  0.00    +0.000 A 
ATOM     12  C   UNL     1       2.338   4.979  17.489  0.00  0.00    +0.000 A 
ATOM     13  C   UNL     1       1.137   4.257  17.664  0.00  0.00    +0.000 A 
ATOM     14  C   UNL     1       1.049   3.269  18.641  0.00  0.00    +0.000 A 
ATOM     15  C   UNL     1       2.164   2.954  19.404  0.00  0.00    +0.000 A 
ATOM     16 CL   UNL     1       1.935   1.742  20.614  0.00  0.00    +0.000 Cl
ATOM     17  C   UNL     1       3.381   3.634  19.166  0.00  0.00    +0.000 A 
ATOM     18  H   UNL     1       6.576   3.417  19.813  0.00  0.00    +0.000 HD
ATOM     19  H   UNL     1       8.002   8.199  16.953  0.00  0.00    +0.000 HD
ENDROOT
TORSDOF 0
ENDMDL
MODEL 4
REMARK VINA RESULT:      -6.7      1.984      2.258
REMARK  Name = 
REMARK  0 active torsions:
REMARK  status: ('A' for Active; 'I' for Inactive)
REMARK                            x       y       z     vdW  Elec       q    Type
REMARK                         _______ _______ _______ _____ _____    ______ ____
ROOT
ATOM      1  O   UNL     1       5.018   1.690  20.524  0.00  0.00    +0.000 OA
ATOM      2  C   UNL     1       4.677   2.702  19.949  0.00  0.00    +0.000 C 
ATOM      3  N   UNL     1       5.516   3.263  19.047  0.00  0.00    +0.000 N 
ATOM      4  C   UNL     1       5.520   4.686  18.905  0.00  0.00    +0.000 C 
ATOM      5  C   UNL     1       6.651   5.001  17.937  0.00  0.00    +0.000 C 
ATOM      6  C   UNL     1       7.293   5.983  16.964  0.00  0.00    +0.000 C 
ATOM      7  N   UNL     1       6.291   6.729  16.204  0.00  0.00    +0.000 NA
ATOM      8  C   UNL     1       5.126   7.176  17.004  0.00  0.00    +0.000 C 
ATOM      9  C   UNL     1       3.974   6.172  17.448  0.00  0.00    +0.000 C 
ATOM     10  N   UNL     1       4.186   5.132  18.505  0.00  0.00    +0.000 N 
ATOM     11  C   UNL     1       3.124   4.508  19.214  0.00  0.00    +0.000 A 
ATOM     12  C   UNL     1       1.797   4.929  19.151  0.00  0.00    +0.000 A 
ATOM     13  C   UNL     1       0.769   4.334  19.915  0.00  0.00    +0.000 A 
ATOM     14  C   UNL     1       1.065   3.307  20.808  0.00  0.00    +0.000 A 
ATOM     15  C   UNL     1       2.364   2.829  20.903  0.00  0.00    +0.000 A 
ATOM     16 CL   UNL     1       2.629   1.582  22.069  0.00  0.00    +0.000 Cl
ATOM     17  C   UNL     1       3.368   3.385  20.077  0.00  0.00    +0.000 A 
ATOM     18  H   UNL     1       6.400   2.785  19.016  0.00  0.00    +0.000 HD
ATOM     19  H   UNL     1       6.766   7.539  15.800  0.00  0.00    +0.000 HD
ENDROOT
TORSDOF 0
ENDMDL
MODEL 5
REMARK VINA RESULT:      -6.6      2.872      5.214
REMARK  Name = 
REMARK  0 active torsions:
REMARK  status: ('A' for Active; 'I' for Inactive)
REMARK                            x       y       z     vdW  Elec       q    Type
REMARK                         _______ _______ _______ _____ _____    ______ ____
ROOT
ATOM      1  O   UNL     1       4.882   3.827  15.142  0.00  0.00    +0.000 OA
ATOM      2  C   UNL     1       4.632   4.026  16.312  0.00  0.00    +0.000 C 
ATOM      3  N   UNL     1       3.530   3.459  16.856  0.00  0.00    +0.000 N 
ATOM      4  C   UNL     1       2.833   4.165  17.886  0.00  0.00    +0.000 C 
ATOM      5  C   UNL     1       1.585   3.343  18.178  0.00  0.00    +0.000 C 
ATOM      6  C   UNL     1       0.447   3.005  19.133  0.00  0.00    +0.000 C 
ATOM      7  N   UNL     1       0.878   3.041  20.529  0.00  0.00    +0.000 NA
ATOM      8  C   UNL     1       1.774   4.175  20.862  0.00  0.00    +0.000 C 
ATOM      9  C   UNL     1       3.307   4.190  20.436  0.00  0.00    +0.000 C 
ATOM     10  N   UNL     1       3.738   4.383  19.014  0.00  0.00    +0.000 N 
ATOM     11  C   UNL     1       5.043   4.807  18.643  0.00  0.00    +0.000 A 
ATOM     12  C   UNL     1       5.993   5.276  19.548  0.00  0.00    +0.000 A 
ATOM     13  C   UNL     1       7.261   5.753  19.147  0.00  0.00    +0.000 A 
ATOM     14  C   UNL     1       7.594   5.807  17.796  0.00  0.00    +0.000 A 
ATOM     15  C   UNL     1       6.699   5.336  16.846  0.00  0.00    +0.000 A 
ATOM     16 CL   UNL     1       7.195   5.487  15.198  0.00  0.00    +0.000 Cl
ATOM     17  C   UNL     1       5.463   4.793  17.269  0.00  0.00    +0.000 A 
ATOM     18  H   UNL     1       2.982   2.976  16.165  0.00  0.00    +0.000 HD
ATOM     19  H   UNL     1       0.032   3.088  21.101  0.00  0.00    +0.000 HD
ENDROOT
TORSDOF 0
ENDMDL
MODEL 6
REMARK VINA RESULT:      -6.4      3.254      5.789
REMARK  Name = 
REMARK  0 active torsions:
REMARK  status: ('A' for Active; 'I' for Inactive)
REMARK                            x       y       z     vdW  Elec       q    Type
REMARK                         _______ _______ _______ _____ _____    ______ ____
ROOT
ATOM      1  O   UNL     1       6.576   5.351  19.901  0.00  0.00    +0.000 OA
ATOM      2  C   UNL     1       5.637   4.833  19.335  0.00  0.00    +0.000 C 
ATOM      3  N   UNL     1       4.474   4.662  20.006  0.00  0.00    +0.000 N 
ATOM      4  C   UNL     1       3.668   3.520  19.702  0.00  0.00    +0.000 C 
ATOM      5  C   UNL     1       2.527   3.541  20.709  0.00  0.00    +0.000 C 
ATOM      6  C   UNL     1       1.127   3.079  21.095  0.00  0.00    +0.000 C 
ATOM      7  N   UNL     1       0.243   2.992  19.935  0.00  0.00    +0.000 NA
ATOM      8  C   UNL     1       0.876   2.413  18.726  0.00  0.00    +0.000 C 
ATOM      9  C   UNL     1       1.896   3.242  17.830  0.00  0.00    +0.000 C 
ATOM     10  N   UNL     1       3.284   3.567  18.292  0.00  0.00    +0.000 N 
ATOM     11  C   UNL     1       4.339   3.926  17.410  0.00  0.00    +0.000 A 
ATOM     12  C   UNL     1       4.258   3.825  16.023  0.00  0.00    +0.000 A 
ATOM     13  C   UNL     1       5.343   4.127  15.170  0.00  0.00    +0.000 A 
ATOM     14  C   UNL     1       6.571   4.507  15.705  0.00  0.00    +0.000 A 
ATOM     15  C   UNL     1       6.710   4.645  17.079  0.00  0.00    +0.000 A 
ATOM     16 CL   UNL     1       8.284   5.081  17.640  0.00  0.00    +0.000 Cl
ATOM     17  C   UNL     1       5.594   4.411  17.915  0.00  0.00    +0.000 A 
ATOM     18  H   UNL     1       4.560   4.933  20.971  0.00  0.00    +0.000 HD
ATOM     19  H   UNL     1      -0.559   2.423  20.213  0.00  0.00    +0.000 HD
ENDROOT
TORSDOF 0
ENDMDL
MODEL 7
REMARK VINA RESULT:      -6.3      1.603      2.917
REMARK  Name = 
REMARK  0 active torsions:
REMARK  status: ('A' for Active; 'I' for Inactive)
REMARK                            x       y       z     vdW  Elec       q    Type
REMARK                         _______ _______ _______ _____ _____    ______ ____
ROOT
ATOM      1  O   UNL     1       2.577   6.057  20.477  0.00  0.00    +0.000 OA
ATOM      2  C   UNL     1       3.157   5.530  19.551  0.00  0.00    +0.000 C 
ATOM      3  N   UNL     1       4.298   6.089  19.084  0.00  0.00    +0.000 N 
ATOM      4  C   UNL     1       4.593   5.979  17.689  0.00  0.00    +0.000 C 
ATOM      5  C   UNL     1       5.843   6.819  17.465  0.00  0.00    +0.000 C 
ATOM      6  C   UNL     1       7.049   7.146  16.592  0.00  0.00    +0.000 C 
ATOM      7  N   UNL     1       7.613   5.949  15.971  0.00  0.00    +0.000 NA
ATOM      8  C   UNL     1       6.602   4.993  15.460  0.00  0.00    +0.000 C 
ATOM      9  C   UNL     1       5.774   4.043  16.432  0.00  0.00    +0.000 C 
ATOM     10  N   UNL     1       4.694   4.565  17.330  0.00  0.00    +0.000 N 
ATOM     11  C   UNL     1       3.677   3.746  17.890  0.00  0.00    +0.000 A 
ATOM     12  C   UNL     1       3.453   2.423  17.515  0.00  0.00    +0.000 A 
ATOM     13  C   UNL     1       2.394   1.649  18.039  0.00  0.00    +0.000 A 
ATOM     14  C   UNL     1       1.494   2.211  18.941  0.00  0.00    +0.000 A 
ATOM     15  C   UNL     1       1.675   3.518  19.370  0.00  0.00    +0.000 A 
ATOM     16 CL   UNL     1       0.480   4.130  20.457  0.00  0.00    +0.000 Cl
ATOM     17  C   UNL     1       2.783   4.257  18.892  0.00  0.00    +0.000 A 
ATOM     18  H   UNL     1       4.495   6.964  19.539  0.00  0.00    +0.000 HD
ATOM     19  H   UNL     1       8.211   6.264  15.205  0.00  0.00    +0.000 HD
ENDROOT
TORSDOF 0
ENDMDL
MODEL 8
REMARK VINA RESULT:      -6.3      3.225      5.260
REMARK  Name = 
REMARK  0 active torsions:
REMARK  status: ('A' for Active; 'I' for Inactive)
REMARK                            x       y       z     vdW  Elec       q    Type
REMARK                         _______ _______ _______ _____ _____    ______ ____
ROOT
ATOM      1  O   UNL     1       7.077   4.159  18.178  0.00  0.00    +0.000 OA
ATOM      2  C   UNL     1       5.926   4.380  18.489  0.00  0.00    +0.000 C 
ATOM      3  N   UNL     1       5.373   3.683  19.509  0.00  0.00    +0.000 N 
ATOM      4  C   UNL     1       3.978   3.374  19.452  0.00  0.00    +0.000 C 
ATOM      5  C   UNL     1       3.704   2.478  20.652  0.00  0.00    +0.000 C 
ATOM      6  C   UNL     1       2.693   1.883  21.625  0.00  0.00    +0.000 C 
ATOM      7  N   UNL     1       1.634   2.834  21.959  0.00  0.00    +0.000 NA
ATOM      8  C   UNL     1       1.135   3.622  20.807  0.00  0.00    +0.000 C 
ATOM      9  C   UNL     1       1.965   4.833  20.191  0.00  0.00    +0.000 C 
ATOM     10  N   UNL     1       3.213   4.619  19.390  0.00  0.00    +0.000 N 
ATOM     11  C   UNL     1       3.746   5.589  18.498  0.00  0.00    +0.000 A 
ATOM     12  C   UNL     1       3.073   6.749  18.122  0.00  0.00    +0.000 A 
ATOM     13  C   UNL     1       3.597   7.666  17.184  0.00  0.00    +0.000 A 
ATOM     14  C   UNL     1       4.815   7.412  16.560  0.00  0.00    +0.000 A 
ATOM     15  C   UNL     1       5.544   6.283  16.906  0.00  0.00    +0.000 A 
ATOM     16 CL   UNL     1       7.021   6.042  16.044  0.00  0.00    +0.000 Cl
ATOM     17  C   UNL     1       5.042   5.413  17.902  0.00  0.00    +0.000 A 
ATOM     18  H   UNL     1       5.997   2.974  19.855  0.00  0.00    +0.000 HD
ATOM     19  H   UNL     1       0.868   2.296  22.369  0.00  0.00    +0.000 HD
ENDROOT
TORSDOF 0
ENDMDL
MODEL 9
REMARK VINA RESULT:      -6.2      2.856      4.345
REMARK  Name = 
REMARK  0 active torsions:
REMARK  status: ('A' for Active; 'I' for Inactive)
REMARK                            x       y       z     vdW  Elec       q    Type
REMARK                         _______ _______ _______ _____ _____    ______ ____
ROOT
ATOM      1  O   UNL     1       3.218   3.727  16.889  0.00  0.00    +0.000 OA
ATOM      2  C   UNL     1       2.882   4.412  17.831  0.00  0.00    +0.000 C 
ATOM      3  N   UNL     1       2.454   5.676  17.608  0.00  0.00    +0.000 N 
ATOM      4  C   UNL     1       2.730   6.678  18.591  0.00  0.00    +0.000 C 
ATOM      5  C   UNL     1       2.254   7.991  17.987  0.00  0.00    +0.000 C 
ATOM      6  C   UNL     1       1.825   9.438  18.198  0.00  0.00    +0.000 C 
ATOM      7  N   UNL     1       1.055   9.603  19.430  0.00  0.00    +0.000 NA
ATOM      8  C   UNL     1       1.583   8.841  20.586  0.00  0.00    +0.000 C 
ATOM      9  C   UNL     1       1.377   7.268  20.723  0.00  0.00    +0.000 C 
ATOM     10  N   UNL     1       2.109   6.289  19.858  0.00  0.00    +0.000 N 
ATOM     11  C   UNL     1       2.279   4.920  20.196  0.00  0.00    +0.000 A 
ATOM     12  C   UNL     1       1.963   4.384  21.442  0.00  0.00    +0.000 A 
ATOM     13  C   UNL     1       2.201   3.032  21.776  0.00  0.00    +0.000 A 
ATOM     14  C   UNL     1       2.811   2.180  20.859  0.00  0.00    +0.000 A 
ATOM     15  C   UNL     1       3.133   2.648  19.593  0.00  0.00    +0.000 A 
ATOM     16 CL   UNL     1       3.922   1.523  18.548  0.00  0.00    +0.000 Cl
ATOM     17  C   UNL     1       2.820   3.984  19.248  0.00  0.00    +0.000 A 
ATOM     18  H   UNL     1       2.542   5.932  16.639  0.00  0.00    +0.000 HD
ATOM     19  H   UNL     1       1.050  10.602  19.647  0.00  0.00    +0.000 HD
ENDROOT
TORSDOF 0
ENDMDL
