MODEL 1
REMARK VINA RESULT:      -7.4      0.000      0.000
REMARK  Name = 
REMARK  3 active torsions:
REMARK  status: ('A' for Active; 'I' for Inactive)
REMARK    1  A    between atoms: C_2  and  C_3
REMARK    2  A    between atoms: C_3  and  C_4
REMARK    3  A    between atoms: C_4  and  N_5
REMARK                            x       y       z     vdW  Elec       q    Type
REMARK                         _______ _______ _______ _____ _____    ______ ____
ROOT
ATOM      1  N   UNL     1       4.154   4.251  17.134  0.00  0.00    +0.000 N 
ATOM      2  C   UNL     1       3.812   5.410  17.764  0.00  0.00    +0.000 C 
ATOM      3  O   UNL     1       4.498   6.419  17.843  0.00  0.00    +0.000 OA
ATOM      4  C   UNL     1       2.409   5.269  18.316  0.00  0.00    +0.000 C 
ATOM      5  C   UNL     1       2.239   5.897  19.697  0.00  0.00    +0.000 C 
ATOM      6  C   UNL     1       1.923   4.959  20.813  0.00  0.00    +0.000 C 
ATOM      7  C   UNL     1       1.635   3.667  20.643  0.00  0.00    +0.000 C 
ATOM      8 CL   UNL     1       1.213   2.696  22.012  0.00  0.00    +0.000 Cl
ATOM      9  C   UNL     1       1.591   2.970  19.323  0.00  0.00    +0.000 C 
ATOM     10  C   UNL     1       2.088   3.784  18.129  0.00  0.00    +0.000 C 
ATOM     11  C   UNL     1       3.342   3.217  17.499  0.00  0.00    +0.000 C 
ATOM     12  O   UNL     1       3.558   2.030  17.310  0.00  0.00    +0.000 OA
ENDROOT
BRANCH   1  13
ATOM     13  C   UNL     1       5.325   4.103  16.279  0.00  0.00    +0.000 C 
BRANCH  13  14
ATOM     14  C   UNL     1       5.069   4.384  14.804  0.00  0.00    +0.000 C 
BRANCH  14  16
ATOM     15  O   UNL     1       7.424   4.752  14.503  0.00  0.00    +0.000 OA
ATOM     16  C   UNL     1       6.370   4.330  14.017  0.00  0.00    +0.000 C 
ATOM     17  N   UNL     1       6.316   3.789  12.737  0.00  0.00    +0.000 N 
ATOM     18  C   UNL     1       5.104   3.317  12.068  0.00  0.00    +0.000 C 
ATOM     19  C   UNL     1       5.289   1.886  11.567  0.00  0.00    +0.000 C 
ATOM     20  C   UNL     1       6.540   1.752  10.701  0.00  0.00    +0.000 C 
ATOM     21  C   UNL     1       7.772   2.306  11.418  0.00  0.00    +0.000 C 
ATOM     22  C   UNL     1       7.530   3.727  11.923  0.00  0.00    +0.000 C 
ENDBRANCH  14  16
ENDBRANCH  13  14
ENDBRANCH   1  13
TORSDOF 3
ENDMDL
MODEL 2
REMARK VINA RESULT:      -7.1      3.141      7.131
REMARK  Name = 
REMARK  3 active torsions:
REMARK  status: ('A' for Active; 'I' for Inactive)
REMARK    1  A    between atoms: C_2  and  C_3
REMARK    2  A    between atoms: C_3  and  C_4
REMARK    3  A    between atoms: C_4  and  N_5
REMARK                            x       y       z     vdW  Elec       q    Type
REMARK                         _______ _______ _______ _____ _____    ______ ____
ROOT
ATOM      1  N   UNL     1       5.642   5.490  16.936  0.00  0.00    +0.000 N 
ATOM      2  C   UNL     1       6.799   5.750  16.266  0.00  0.00    +0.000 C 
ATOM      3  O   UNL     1       7.482   6.760  16.369  0.00  0.00    +0.000 OA
ATOM      4  C   UNL     1       7.141   4.556  15.401  0.00  0.00    +0.000 C 
ATOM      5  C   UNL     1       7.692   4.942  14.031  0.00  0.00    +0.000 C 
ATOM      6  C   UNL     1       6.859   4.559  12.854  0.00  0.00    +0.000 C 
ATOM      7  C   UNL     1       5.775   3.784  12.927  0.00  0.00    +0.000 C 
ATOM      8 CL   UNL     1       4.933   3.350  11.479  0.00  0.00    +0.000 Cl
ATOM      9  C   UNL     1       5.233   3.193  14.187  0.00  0.00    +0.000 C 
ATOM     10  C   UNL     1       5.891   3.676  15.479  0.00  0.00    +0.000 C 
ATOM     11  C   UNL     1       4.951   4.457  16.373  0.00  0.00    +0.000 C 
ATOM     12  O   UNL     1       3.783   4.172  16.583  0.00  0.00    +0.000 OA
ENDROOT
BRANCH   1  13
ATOM     13  C   UNL     1       5.137   6.301  18.037  0.00  0.00    +0.000 C 
BRANCH  13  14
ATOM     14  C   UNL     1       4.943   5.542  19.343  0.00  0.00    +0.000 C 
BRANCH  14  16
ATOM     15  O   UNL     1       2.815   6.549  19.821  0.00  0.00    +0.000 OA
ATOM     16  C   UNL     1       3.471   5.507  19.727  0.00  0.00    +0.000 C 
ATOM     17  N   UNL     1       2.906   4.259  19.964  0.00  0.00    +0.000 N 
ATOM     18  C   UNL     1       3.622   2.985  19.925  0.00  0.00    +0.000 C 
ATOM     19  C   UNL     1       2.919   2.000  18.994  0.00  0.00    +0.000 C 
ATOM     20  C   UNL     1       1.442   1.845  19.352  0.00  0.00    +0.000 C 
ATOM     21  C   UNL     1       0.746   3.204  19.434  0.00  0.00    +0.000 C 
ATOM     22  C   UNL     1       1.499   4.161  20.355  0.00  0.00    +0.000 C 
ENDBRANCH  14  16
ENDBRANCH  13  14
ENDBRANCH   1  13
TORSDOF 3
ENDMDL
MODEL 3
REMARK VINA RESULT:      -7.1      5.329      8.766
REMARK  Name = 
REMARK  3 active torsions:
REMARK  status: ('A' for Active; 'I' for Inactive)
REMARK    1  A    between atoms: C_2  and  C_3
REMARK    2  A    between atoms: C_3  and  C_4
REMARK    3  A    between atoms: C_4  and  N_5
REMARK                            x       y       z     vdW  Elec       q    Type
REMARK                         _______ _______ _______ _____ _____    ______ ____
ROOT
ATOM      1  N   UNL     1       1.813   8.538  19.273  0.00  0.00    +0.000 N 
ATOM      2  C   UNL     1       2.493   7.920  18.267  0.00  0.00    +0.000 C 
ATOM      3  O   UNL     1       2.646   8.345  17.130  0.00  0.00    +0.000 OA
ATOM      4  C   UNL     1       3.080   6.629  18.796  0.00  0.00    +0.000 C 
ATOM      5  C   UNL     1       2.994   5.474  17.802  0.00  0.00    +0.000 C 
ATOM      6  C   UNL     1       2.132   4.324  18.201  0.00  0.00    +0.000 C 
ATOM      7  C   UNL     1       1.581   4.187  19.409  0.00  0.00    +0.000 C 
ATOM      8 CL   UNL     1       0.660   2.769  19.776  0.00  0.00    +0.000 Cl
ATOM      9  C   UNL     1       1.738   5.160  20.532  0.00  0.00    +0.000 C 
ATOM     10  C   UNL     1       2.437   6.472  20.177  0.00  0.00    +0.000 C 
ATOM     11  C   UNL     1       1.536   7.682  20.298  0.00  0.00    +0.000 C 
ATOM     12  O   UNL     1       0.731   7.871  21.197  0.00  0.00    +0.000 OA
ENDROOT
BRANCH   1  13
ATOM     13  C   UNL     1       1.325   9.910  19.204  0.00  0.00    +0.000 C 
BRANCH  13  14
ATOM     14  C   UNL     1       0.292  10.158  18.113  0.00  0.00    +0.000 C 
BRANCH  14  16
ATOM     15  O   UNL     1      -1.149  10.876  19.896  0.00  0.00    +0.000 OA
ATOM     16  C   UNL     1      -1.060  10.496  18.724  0.00  0.00    +0.000 C 
ATOM     17  N   UNL     1      -2.178  10.358  17.910  0.00  0.00    +0.000 N 
ATOM     18  C   UNL     1      -2.166   9.866  16.532  0.00  0.00    +0.000 C 
ATOM     19  C   UNL     1      -2.867  10.853  15.602  0.00  0.00    +0.000 C 
ATOM     20  C   UNL     1      -4.269  11.198  16.102  0.00  0.00    +0.000 C 
ATOM     21  C   UNL     1      -4.241  11.656  17.560  0.00  0.00    +0.000 C 
ATOM     22  C   UNL     1      -3.508  10.651  18.446  0.00  0.00    +0.000 C 
ENDBRANCH  14  16
ENDBRANCH  13  14
ENDBRANCH   1  13
TORSDOF 3
ENDMDL
MODEL 4
REMARK VINA RESULT:      -7.0      4.728      6.849
REMARK  Name = 
REMARK  3 active torsions:
REMARK  status: ('A' for Active; 'I' for Inactive)
REMARK    1  A    between atoms: C_2  and  C_3
REMARK    2  A    between atoms: C_3  and  C_4
REMARK    3  A    between atoms: C_4  and  N_5
REMARK                            x       y       z     vdW  Elec       q    Type
REMARK                         _______ _______ _______ _____ _____    ______ ____
ROOT
ATOM      1  N   UNL     1       1.152   9.112  19.543  0.00  0.00    +0.000 N 
ATOM      2  C   UNL     1       1.151   8.574  20.795  0.00  0.00    +0.000 C 
ATOM      3  O   UNL     1       1.192   7.383  21.070  0.00  0.00    +0.000 OA
ATOM      4  C   UNL     1       1.143   9.699  21.809  0.00  0.00    +0.000 C 
ATOM      5  C   UNL     1       0.246   9.421  23.012  0.00  0.00    +0.000 C 
ATOM      6  C   UNL     1      -0.931  10.321  23.177  0.00  0.00    +0.000 C 
ATOM      7  C   UNL     1      -1.142  11.418  22.446  0.00  0.00    +0.000 C 
ATOM      8 CL   UNL     1      -2.509  12.423  22.783  0.00  0.00    +0.000 Cl
ATOM      9  C   UNL     1      -0.243  11.900  21.356  0.00  0.00    +0.000 C 
ATOM     10  C   UNL     1       0.890  10.951  20.966  0.00  0.00    +0.000 C 
ATOM     11  C   UNL     1       0.768  10.421  19.553  0.00  0.00    +0.000 C 
ATOM     12  O   UNL     1       0.425  11.079  18.584  0.00  0.00    +0.000 OA
ENDROOT
BRANCH   1  13
ATOM     13  C   UNL     1       1.402   8.348  18.328  0.00  0.00    +0.000 C 
BRANCH  13  14
ATOM     14  C   UNL     1       2.866   8.004  18.089  0.00  0.00    +0.000 C 
BRANCH  14  16
ATOM     15  O   UNL     1       2.304   5.796  18.851  0.00  0.00    +0.000 OA
ATOM     16  C   UNL     1       3.089   6.503  18.212  0.00  0.00    +0.000 C 
ATOM     17  N   UNL     1       4.207   5.973  17.578  0.00  0.00    +0.000 N 
ATOM     18  C   UNL     1       5.212   6.746  16.847  0.00  0.00    +0.000 C 
ATOM     19  C   UNL     1       5.404   6.184  15.440  0.00  0.00    +0.000 C 
ATOM     20  C   UNL     1       5.706   4.687  15.470  0.00  0.00    +0.000 C 
ATOM     21  C   UNL     1       4.662   3.927  16.287  0.00  0.00    +0.000 C 
ATOM     22  C   UNL     1       4.486   4.540  17.675  0.00  0.00    +0.000 C 
ENDBRANCH  14  16
ENDBRANCH  13  14
ENDBRANCH   1  13
TORSDOF 3
ENDMDL
MODEL 5
REMARK VINA RESULT:      -7.0      3.841      7.285
REMARK  Name = 
REMARK  3 active torsions:
REMARK  status: ('A' for Active; 'I' for Inactive)
REMARK    1  A    between atoms: C_2  and  C_3
REMARK    2  A    between atoms: C_3  and  C_4
REMARK    3  A    between atoms: C_4  and  N_5
REMARK                            x       y       z     vdW  Elec       q    Type
REMARK                         _______ _______ _______ _____ _____    ______ ____
ROOT
ATOM      1  N   UNL     1       5.326   4.626  16.754  0.00  0.00    +0.000 N 
ATOM      2  C   UNL     1       6.039   4.313  17.871  0.00  0.00    +0.000 C 
ATOM      3  O   UNL     1       5.659   3.611  18.798  0.00  0.00    +0.000 OA
ATOM      4  C   UNL     1       7.415   4.936  17.762  0.00  0.00    +0.000 C 
ATOM      5  C   UNL     1       7.922   5.512  19.081  0.00  0.00    +0.000 C 
ATOM      6  C   UNL     1       8.122   6.989  19.121  0.00  0.00    +0.000 C 
ATOM      7  C   UNL     1       8.035   7.784  18.053  0.00  0.00    +0.000 C 
ATOM      8 CL   UNL     1       8.361   9.476  18.214  0.00  0.00    +0.000 Cl
ATOM      9  C   UNL     1       7.722   7.319  16.669  0.00  0.00    +0.000 C 
ATOM     10  C   UNL     1       7.306   5.854  16.542  0.00  0.00    +0.000 C 
ATOM     11  C   UNL     1       5.877   5.675  16.078  0.00  0.00    +0.000 C 
ATOM     12  O   UNL     1       5.333   6.338  15.208  0.00  0.00    +0.000 OA
ENDROOT
BRANCH   1  13
ATOM     13  C   UNL     1       4.056   4.005  16.396  0.00  0.00    +0.000 C 
BRANCH  13  14
ATOM     14  C   UNL     1       2.864   4.493  17.209  0.00  0.00    +0.000 C 
BRANCH  14  16
ATOM     15  O   UNL     1       2.018   2.248  17.331  0.00  0.00    +0.000 OA
ATOM     16  C   UNL     1       2.182   3.327  17.909  0.00  0.00    +0.000 C 
ATOM     17  N   UNL     1       1.757   3.532  19.216  0.00  0.00    +0.000 N 
ATOM     18  C   UNL     1       1.865   4.790  19.954  0.00  0.00    +0.000 C 
ATOM     19  C   UNL     1       2.568   4.571  21.292  0.00  0.00    +0.000 C 
ATOM     20  C   UNL     1       1.903   3.459  22.101  0.00  0.00    +0.000 C 
ATOM     21  C   UNL     1       1.762   2.180  21.275  0.00  0.00    +0.000 C 
ATOM     22  C   UNL     1       1.078   2.454  19.937  0.00  0.00    +0.000 C 
ENDBRANCH  14  16
ENDBRANCH  13  14
ENDBRANCH   1  13
TORSDOF 3
ENDMDL
MODEL 6
REMARK VINA RESULT:      -6.9      4.179      7.115
REMARK  Name = 
REMARK  3 active torsions:
REMARK  status: ('A' for Active; 'I' for Inactive)
REMARK    1  A    between atoms: C_2  and  C_3
REMARK    2  A    between atoms: C_3  and  C_4
REMARK    3  A    between atoms: C_4  and  N_5
REMARK                            x       y       z     vdW  Elec       q    Type
REMARK                         _______ _______ _______ _____ _____    ______ ____
ROOT
ATOM      1  N   UNL     1       4.839   5.200  17.474  0.00  0.00    +0.000 N 
ATOM      2  C   UNL     1       5.723   4.765  18.416  0.00  0.00    +0.000 C 
ATOM      3  O   UNL     1       5.454   4.097  19.404  0.00  0.00    +0.000 OA
ATOM      4  C   UNL     1       7.116   5.201  18.016  0.00  0.00    +0.000 C 
ATOM      5  C   UNL     1       7.964   5.670  19.195  0.00  0.00    +0.000 C 
ATOM      6  C   UNL     1       8.366   7.106  19.187  0.00  0.00    +0.000 C 
ATOM      7  C   UNL     1       8.166   7.933  18.158  0.00  0.00    +0.000 C 
ATOM      8 CL   UNL     1       8.745   9.561  18.242  0.00  0.00    +0.000 Cl
ATOM      9  C   UNL     1       7.508   7.550  16.874  0.00  0.00    +0.000 C 
ATOM     10  C   UNL     1       6.879   6.157  16.843  0.00  0.00    +0.000 C 
ATOM     11  C   UNL     1       5.373   6.183  16.693  0.00  0.00    +0.000 C 
ATOM     12  O   UNL     1       4.754   6.934  15.957  0.00  0.00    +0.000 OA
ENDROOT
BRANCH   1  13
ATOM     13  C   UNL     1       3.451   4.764  17.396  0.00  0.00    +0.000 C 
BRANCH  13  14
ATOM     14  C   UNL     1       3.260   3.365  16.825  0.00  0.00    +0.000 C 
BRANCH  14  16
ATOM     15  O   UNL     1       3.816   1.315  17.947  0.00  0.00    +0.000 OA
ATOM     16  C   UNL     1       3.132   2.344  17.945  0.00  0.00    +0.000 C 
ATOM     17  N   UNL     1       2.218   2.620  18.956  0.00  0.00    +0.000 N 
ATOM     18  C   UNL     1       1.335   3.785  19.003  0.00  0.00    +0.000 C 
ATOM     19  C   UNL     1       1.489   4.524  20.330  0.00  0.00    +0.000 C 
ATOM     20  C   UNL     1       1.304   3.585  21.521  0.00  0.00    +0.000 C 
ATOM     21  C   UNL     1       2.206   2.357  21.404  0.00  0.00    +0.000 C 
ATOM     22  C   UNL     1       2.036   1.667  20.052  0.00  0.00    +0.000 C 
ENDBRANCH  14  16
ENDBRANCH  13  14
ENDBRANCH   1  13
TORSDOF 3
ENDMDL
MODEL 7
REMARK VINA RESULT:      -6.9      2.770      4.097
REMARK  Name = 
REMARK  3 active torsions:
REMARK  status: ('A' for Active; 'I' for Inactive)
REMARK    1  A    between atoms: C_2  and  C_3
REMARK    2  A    between atoms: C_3  and  C_4
REMARK    3  A    between atoms: C_4  and  N_5
REMARK                            x       y       z     vdW  Elec       q    Type
REMARK                         _______ _______ _______ _____ _____    ______ ____
ROOT
ATOM      1  N   UNL     1       3.114   4.103  17.035  0.00  0.00    +0.000 N 
ATOM      2  C   UNL     1       3.070   5.212  17.825  0.00  0.00    +0.000 C 
ATOM      3  O   UNL     1       3.856   6.150  17.797  0.00  0.00    +0.000 OA
ATOM      4  C   UNL     1       1.853   5.127  18.720  0.00  0.00    +0.000 C 
ATOM      5  C   UNL     1       2.113   5.617  20.142  0.00  0.00    +0.000 C 
ATOM      6  C   UNL     1       2.002   4.595  21.222  0.00  0.00    +0.000 C 
ATOM      7  C   UNL     1       1.545   3.355  21.033  0.00  0.00    +0.000 C 
ATOM      8 CL   UNL     1       1.394   2.282  22.382  0.00  0.00    +0.000 Cl
ATOM      9  C   UNL     1       1.088   2.806  19.721  0.00  0.00    +0.000 C 
ATOM     10  C   UNL     1       1.340   3.700  18.507  0.00  0.00    +0.000 C 
ATOM     11  C   UNL     1       2.321   3.104  17.520  0.00  0.00    +0.000 C 
ATOM     12  O   UNL     1       2.355   1.930  17.186  0.00  0.00    +0.000 OA
ENDROOT
BRANCH   1  13
ATOM     13  C   UNL     1       4.000   3.953  15.888  0.00  0.00    +0.000 C 
BRANCH  13  14
ATOM     14  C   UNL     1       5.483   3.928  16.235  0.00  0.00    +0.000 C 
BRANCH  14  16
ATOM     15  O   UNL     1       5.757   5.954  14.973  0.00  0.00    +0.000 OA
ATOM     16  C   UNL     1       6.123   5.276  15.939  0.00  0.00    +0.000 C 
ATOM     17  N   UNL     1       7.130   5.704  16.797  0.00  0.00    +0.000 N 
ATOM     18  C   UNL     1       7.658   4.942  17.928  0.00  0.00    +0.000 C 
ATOM     19  C   UNL     1       7.609   5.775  19.207  0.00  0.00    +0.000 C 
ATOM     20  C   UNL     1       8.297   7.126  19.024  0.00  0.00    +0.000 C 
ATOM     21  C   UNL     1       7.752   7.864  17.801  0.00  0.00    +0.000 C 
ATOM     22  C   UNL     1       7.797   6.984  16.554  0.00  0.00    +0.000 C 
ENDBRANCH  14  16
ENDBRANCH  13  14
ENDBRANCH   1  13
TORSDOF 3
ENDMDL
MODEL 8
REMARK VINA RESULT:      -6.7      2.220      2.727
REMARK  Name = 
REMARK  3 active torsions:
REMARK  status: ('A' for Active; 'I' for Inactive)
REMARK    1  A    between atoms: C_2  and  C_3
REMARK    2  A    between atoms: C_3  and  C_4
REMARK    3  A    between atoms: C_4  and  N_5
REMARK                            x       y       z     vdW  Elec       q    Type
REMARK                         _______ _______ _______ _____ _____    ______ ____
ROOT
ATOM      1  N   UNL     1       4.396   5.240  18.341  0.00  0.00    +0.000 N 
ATOM      2  C   UNL     1       3.970   6.299  17.597  0.00  0.00    +0.000 C 
ATOM      3  O   UNL     1       4.617   6.889  16.743  0.00  0.00    +0.000 OA
ATOM      4  C   UNL     1       2.532   6.603  17.959  0.00  0.00    +0.000 C 
ATOM      5  C   UNL     1       2.230   8.097  18.032  0.00  0.00    +0.000 C 
ATOM      6  C   UNL     1       1.853   8.628  19.374  0.00  0.00    +0.000 C 
ATOM      7  C   UNL     1       1.618   7.862  20.442  0.00  0.00    +0.000 C 
ATOM      8 CL   UNL     1       1.115   8.593  21.927  0.00  0.00    +0.000 Cl
ATOM      9  C   UNL     1       1.703   6.371  20.455  0.00  0.00    +0.000 C 
ATOM     10  C   UNL     1       2.271   5.730  19.190  0.00  0.00    +0.000 C 
ATOM     11  C   UNL     1       3.588   5.020  19.418  0.00  0.00    +0.000 C 
ATOM     12  O   UNL     1       3.854   4.329  20.389  0.00  0.00    +0.000 OA
ENDROOT
BRANCH   1  13
ATOM     13  C   UNL     1       5.636   4.517  18.094  0.00  0.00    +0.000 C 
BRANCH  13  14
ATOM     14  C   UNL     1       5.677   3.770  16.767  0.00  0.00    +0.000 C 
BRANCH  14  16
ATOM     15  O   UNL     1       7.885   4.610  16.326  0.00  0.00    +0.000 OA
ATOM     16  C   UNL     1       6.771   4.333  15.871  0.00  0.00    +0.000 C 
ATOM     17  N   UNL     1       6.458   4.521  14.529  0.00  0.00    +0.000 N 
ATOM     18  C   UNL     1       5.152   4.269  13.921  0.00  0.00    +0.000 C 
ATOM     19  C   UNL     1       5.290   3.345  12.713  0.00  0.00    +0.000 C 
ATOM     20  C   UNL     1       6.321   3.873  11.717  0.00  0.00    +0.000 C 
ATOM     21  C   UNL     1       7.653   4.172  12.405  0.00  0.00    +0.000 C 
ATOM     22  C   UNL     1       7.462   5.076  13.620  0.00  0.00    +0.000 C 
ENDBRANCH  14  16
ENDBRANCH  13  14
ENDBRANCH   1  13
TORSDOF 3
ENDMDL
MODEL 9
REMARK VINA RESULT:      -6.7      4.780      7.165
REMARK  Name = 
REMARK  3 active torsions:
REMARK  status: ('A' for Active; 'I' for Inactive)
REMARK    1  A    between atoms: C_2  and  C_3
REMARK    2  A    between atoms: C_3  and  C_4
REMARK    3  A    between atoms: C_4  and  N_5
REMARK                            x       y       z     vdW  Elec       q    Type
REMARK                         _______ _______ _______ _____ _____    ______ ____
ROOT
ATOM      1  N   UNL     1       1.509   8.796  19.427  0.00  0.00    +0.000 N 
ATOM      2  C   UNL     1       1.339   9.808  18.530  0.00  0.00    +0.000 C 
ATOM      3  O   UNL     1       2.065  10.058  17.578  0.00  0.00    +0.000 OA
ATOM      4  C   UNL     1       0.066  10.553  18.870  0.00  0.00    +0.000 C 
ATOM      5  C   UNL     1       0.190  12.065  18.705  0.00  0.00    +0.000 C 
ATOM      6  C   UNL     1       0.063  12.876  19.951  0.00  0.00    +0.000 C 
ATOM      7  C   UNL     1      -0.301  12.376  21.134  0.00  0.00    +0.000 C 
ATOM      8 CL   UNL     1      -0.485  13.433  22.491  0.00  0.00    +0.000 Cl
ATOM      9  C   UNL     1      -0.626  10.941  21.388  0.00  0.00    +0.000 C 
ATOM     10  C   UNL     1      -0.340   9.984  20.231  0.00  0.00    +0.000 C 
ATOM     11  C   UNL     1       0.745   8.976  20.543  0.00  0.00    +0.000 C 
ATOM     12  O   UNL     1       0.876   8.392  21.607  0.00  0.00    +0.000 OA
ENDROOT
BRANCH   1  13
ATOM     13  C   UNL     1       2.485   7.725  19.273  0.00  0.00    +0.000 C 
BRANCH  13  14
ATOM     14  C   UNL     1       2.259   6.835  18.058  0.00  0.00    +0.000 C 
BRANCH  14  16
ATOM     15  O   UNL     1       4.517   6.018  18.011  0.00  0.00    +0.000 OA
ATOM     16  C   UNL     1       3.314   5.740  17.995  0.00  0.00    +0.000 C 
ATOM     17  N   UNL     1       2.864   4.428  17.918  0.00  0.00    +0.000 N 
ATOM     18  C   UNL     1       1.462   4.017  17.841  0.00  0.00    +0.000 C 
ATOM     19  C   UNL     1       1.141   2.993  18.928  0.00  0.00    +0.000 C 
ATOM     20  C   UNL     1       2.113   1.814  18.893  0.00  0.00    +0.000 C 
ATOM     21  C   UNL     1       3.565   2.291  18.921  0.00  0.00    +0.000 C 
ATOM     22  C   UNL     1       3.830   3.332  17.835  0.00  0.00    +0.000 C 
ENDBRANCH  14  16
ENDBRANCH  13  14
ENDBRANCH   1  13
TORSDOF 3
ENDMDL
