MODEL 1
REMARK VINA RESULT:      -8.2      0.000      0.000
REMARK  Name = 
REMARK  9 active torsions:
REMARK  status: ('A' for Active; 'I' for Inactive)
REMARK    1  A    between atoms: C_1  and  C_2
REMARK    2  A    between atoms: C_2  and  C_3
REMARK    3  A    between atoms: C_2  and  C_7
REMARK    4  A    between atoms: C_3  and  C_4
REMARK    5  A    between atoms: C_4  and  O_6
REMARK    6  A    between atoms: C_11  and  N_12
REMARK    7  A    between atoms: C_13  and  C_14
REMARK    8  A    between atoms: C_21  and  O_22
REMARK    9  A    between atoms: O_22  and  C_23
REMARK                            x       y       z     vdW  Elec       q    Type
REMARK                         _______ _______ _______ _____ _____    ______ ____
ROOT
ATOM      1  N   UNL     1       5.649   5.146  16.036  0.00  0.00    +0.000 N 
ATOM      2  C   UNL     1       6.089   4.364  17.100  0.00  0.00    +0.000 A 
ATOM      3  C   UNL     1       4.972   3.528  17.129  0.00  0.00    +0.000 A 
ATOM      4  C   UNL     1       3.924   4.481  17.203  0.00  0.00    +0.000 A 
ATOM      5  C   UNL     1       2.735   4.476  17.930  0.00  0.00    +0.000 A 
ATOM      6  C   UNL     1       2.331   5.709  18.429  0.00  0.00    +0.000 A 
ATOM      7  C   UNL     1       2.995   6.908  18.113  0.00  0.00    +0.000 A 
ATOM      8  C   UNL     1       4.035   6.929  17.150  0.00  0.00    +0.000 A 
ATOM      9  C   UNL     1       4.465   5.669  16.637  0.00  0.00    +0.000 A 
ENDROOT
BRANCH   1  14
ATOM     10  C   UNL     1       5.800   3.666  12.570  0.00  0.00    +0.000 A 
ATOM     11  C   UNL     1       7.039   4.131  12.135  0.00  0.00    +0.000 A 
ATOM     12  C   UNL     1       7.825   4.972  12.959  0.00  0.00    +0.000 A 
ATOM     13  C   UNL     1       7.417   5.373  14.254  0.00  0.00    +0.000 A 
ATOM     14  C   UNL     1       6.198   4.931  14.716  0.00  0.00    +0.000 A 
ATOM     15  C   UNL     1       5.396   4.149  13.828  0.00  0.00    +0.000 A 
BRANCH  10  17
ATOM     16  C   UNL     1       3.686   3.389  11.132  0.00  0.00    +0.000 C 
ATOM     17  C   UNL     1       4.891   2.689  11.783  0.00  0.00    +0.000 C 
BRANCH  17  18
ATOM     18  C   UNL     1       5.717   1.948  10.698  0.00  0.00    +0.000 C 
BRANCH  18  19
ATOM     19  C   UNL     1       6.440   0.671  11.104  0.00  0.00    +0.000 C 
ATOM     20  O   UNL     1       5.949  -0.436  11.154  0.00  0.00    +0.000 OA
BRANCH  19  21
ATOM     21  O   UNL     1       7.709   0.919  11.480  0.00  0.00    +0.000 OA
ATOM     22  H   UNL     1       7.807   1.683  12.072  0.00  0.00    +0.000 HD
ENDBRANCH  19  21
ENDBRANCH  18  19
ENDBRANCH  17  18
ENDBRANCH  10  17
ENDBRANCH   1  14
BRANCH   2  23
ATOM     23  C   UNL     1       6.883   5.037  18.108  0.00  0.00    +0.000 C 
ATOM     24  N   UNL     1       7.721   6.007  17.643  0.00  0.00    +0.000 N 
ATOM     25  O   UNL     1       6.912   4.712  19.287  0.00  0.00    +0.000 OA
ATOM     26  H   UNL     1       7.913   6.055  16.652  0.00  0.00    +0.000 HD
ATOM     27  H   UNL     1       8.485   6.224  18.269  0.00  0.00    +0.000 HD
ENDBRANCH   2  23
BRANCH   7  28
ATOM     28  O   UNL     1       2.470   7.925  18.855  0.00  0.00    +0.000 OA
BRANCH  28  29
ATOM     29  C   UNL     1       1.731   9.014  18.372  0.00  0.00    +0.000 C 
ATOM     30  F   UNL     1       2.503  10.012  17.873  0.00  0.00    +0.000 F 
ATOM     31  F   UNL     1       0.933   8.557  17.377  0.00  0.00    +0.000 F 
ATOM     32  F   UNL     1       0.928   9.509  19.346  0.00  0.00    +0.000 F 
ENDBRANCH  28  29
ENDBRANCH   7  28
TORSDOF 8
ENDMDL
MODEL 2
REMARK VINA RESULT:      -8.2      3.840      8.467
REMARK  Name = 
REMARK  9 active torsions:
REMARK  status: ('A' for Active; 'I' for Inactive)
REMARK    1  A    between atoms: C_1  and  C_2
REMARK    2  A    between atoms: C_2  and  C_3
REMARK    3  A    between atoms: C_2  and  C_7
REMARK    4  A    between atoms: C_3  and  C_4
REMARK    5  A    between atoms: C_4  and  O_6
REMARK    6  A    between atoms: C_11  and  N_12
REMARK    7  A    between atoms: C_13  and  C_14
REMARK    8  A    between atoms: C_21  and  O_22
REMARK    9  A    between atoms: O_22  and  C_23
REMARK                            x       y       z     vdW  Elec       q    Type
REMARK                         _______ _______ _______ _____ _____    ______ ____
ROOT
ATOM      1  N   UNL     1       3.486   5.750  18.475  0.00  0.00    +0.000 N 
ATOM      2  C   UNL     1       3.649   4.423  18.864  0.00  0.00    +0.000 A 
ATOM      3  C   UNL     1       4.886   4.611  19.480  0.00  0.00    +0.000 A 
ATOM      4  C   UNL     1       5.612   5.244  18.440  0.00  0.00    +0.000 A 
ATOM      5  C   UNL     1       6.934   5.093  18.026  0.00  0.00    +0.000 A 
ATOM      6  C   UNL     1       7.148   5.177  16.655  0.00  0.00    +0.000 A 
ATOM      7  C   UNL     1       6.130   5.527  15.750  0.00  0.00    +0.000 A 
ATOM      8  C   UNL     1       4.858   5.948  16.217  0.00  0.00    +0.000 A 
ATOM      9  C   UNL     1       4.624   5.857  17.621  0.00  0.00    +0.000 A 
ENDROOT
BRANCH   1  14
ATOM     10  C   UNL     1       1.423   8.839  19.123  0.00  0.00    +0.000 A 
ATOM     11  C   UNL     1       1.030   8.627  20.442  0.00  0.00    +0.000 A 
ATOM     12  C   UNL     1       1.403   7.444  21.125  0.00  0.00    +0.000 A 
ATOM     13  C   UNL     1       2.194   6.433  20.528  0.00  0.00    +0.000 A 
ATOM     14  C   UNL     1       2.601   6.611  19.226  0.00  0.00    +0.000 A 
ATOM     15  C   UNL     1       2.140   7.778  18.540  0.00  0.00    +0.000 A 
BRANCH  10  17
ATOM     16  C   UNL     1      -0.324  10.194  17.808  0.00  0.00    +0.000 C 
ATOM     17  C   UNL     1       1.130  10.123  18.305  0.00  0.00    +0.000 C 
BRANCH  17  18
ATOM     18  C   UNL     1       1.459  11.381  19.151  0.00  0.00    +0.000 C 
BRANCH  18  19
ATOM     19  C   UNL     1       1.949  12.623  18.418  0.00  0.00    +0.000 C 
ATOM     20  O   UNL     1       1.717  13.770  18.734  0.00  0.00    +0.000 OA
BRANCH  19  21
ATOM     21  O   UNL     1       2.633  12.302  17.304  0.00  0.00    +0.000 OA
ATOM     22  H   UNL     1       3.582  12.507  17.345  0.00  0.00    +0.000 HD
ENDBRANCH  19  21
ENDBRANCH  18  19
ENDBRANCH  17  18
ENDBRANCH  10  17
ENDBRANCH   1  14
BRANCH   2  23
ATOM     23  C   UNL     1       3.093   3.420  17.978  0.00  0.00    +0.000 C 
ATOM     24  N   UNL     1       3.856   2.303  17.804  0.00  0.00    +0.000 N 
ATOM     25  O   UNL     1       2.070   3.574  17.326  0.00  0.00    +0.000 OA
ATOM     26  H   UNL     1       4.823   2.319  18.098  0.00  0.00    +0.000 HD
ATOM     27  H   UNL     1       3.642   1.786  16.962  0.00  0.00    +0.000 HD
ENDBRANCH   2  23
BRANCH   7  28
ATOM     28  O   UNL     1       6.591   5.388  14.474  0.00  0.00    +0.000 OA
BRANCH  28  29
ATOM     29  C   UNL     1       6.345   4.310  13.612  0.00  0.00    +0.000 C 
ATOM     30  F   UNL     1       6.510   3.099  14.199  0.00  0.00    +0.000 F 
ATOM     31  F   UNL     1       5.061   4.408  13.192  0.00  0.00    +0.000 F 
ATOM     32  F   UNL     1       7.140   4.392  12.516  0.00  0.00    +0.000 F 
ENDBRANCH  28  29
ENDBRANCH   7  28
TORSDOF 8
ENDMDL
MODEL 3
REMARK VINA RESULT:      -8.1      3.948      8.540
REMARK  Name = 
REMARK  9 active torsions:
REMARK  status: ('A' for Active; 'I' for Inactive)
REMARK    1  A    between atoms: C_1  and  C_2
REMARK    2  A    between atoms: C_2  and  C_3
REMARK    3  A    between atoms: C_2  and  C_7
REMARK    4  A    between atoms: C_3  and  C_4
REMARK    5  A    between atoms: C_4  and  O_6
REMARK    6  A    between atoms: C_11  and  N_12
REMARK    7  A    between atoms: C_13  and  C_14
REMARK    8  A    between atoms: C_21  and  O_22
REMARK    9  A    between atoms: O_22  and  C_23
REMARK                            x       y       z     vdW  Elec       q    Type
REMARK                         _______ _______ _______ _____ _____    ______ ____
ROOT
ATOM      1  N   UNL     1       3.183   6.198  18.697  0.00  0.00    +0.000 N 
ATOM      2  C   UNL     1       3.209   4.849  19.043  0.00  0.00    +0.000 A 
ATOM      3  C   UNL     1       4.411   4.910  19.749  0.00  0.00    +0.000 A 
ATOM      4  C   UNL     1       5.258   5.516  18.786  0.00  0.00    +0.000 A 
ATOM      5  C   UNL     1       6.590   5.268  18.458  0.00  0.00    +0.000 A 
ATOM      6  C   UNL     1       6.906   5.382  17.109  0.00  0.00    +0.000 A 
ATOM      7  C   UNL     1       5.987   5.847  16.152  0.00  0.00    +0.000 A 
ATOM      8  C   UNL     1       4.724   6.357  16.547  0.00  0.00    +0.000 A 
ATOM      9  C   UNL     1       4.384   6.238  17.928  0.00  0.00    +0.000 A 
ENDROOT
BRANCH   1  14
ATOM     10  C   UNL     1       1.090   9.295  19.195  0.00  0.00    +0.000 A 
ATOM     11  C   UNL     1       0.772   9.188  20.547  0.00  0.00    +0.000 A 
ATOM     12  C   UNL     1       1.206   8.074  21.306  0.00  0.00    +0.000 A 
ATOM     13  C   UNL     1       1.986   7.030  20.754  0.00  0.00    +0.000 A 
ATOM     14  C   UNL     1       2.320   7.104  19.420  0.00  0.00    +0.000 A 
ATOM     15  C   UNL     1       1.798   8.200  18.666  0.00  0.00    +0.000 A 
BRANCH  10  17
ATOM     16  C   UNL     1      -0.757  10.513  17.883  0.00  0.00    +0.000 C 
ATOM     17  C   UNL     1       0.727  10.498  18.289  0.00  0.00    +0.000 C 
BRANCH  17  18
ATOM     18  C   UNL     1       1.090  11.829  19.000  0.00  0.00    +0.000 C 
BRANCH  18  19
ATOM     19  C   UNL     1       2.302  12.599  18.492  0.00  0.00    +0.000 C 
ATOM     20  O   UNL     1       2.901  13.458  19.101  0.00  0.00    +0.000 OA
BRANCH  19  21
ATOM     21  O   UNL     1       2.606  12.261  17.225  0.00  0.00    +0.000 OA
ATOM     22  H   UNL     1       2.107  11.501  16.883  0.00  0.00    +0.000 HD
ENDBRANCH  19  21
ENDBRANCH  18  19
ENDBRANCH  17  18
ENDBRANCH  10  17
ENDBRANCH   1  14
BRANCH   2  23
ATOM     23  C   UNL     1       2.638   3.928  18.082  0.00  0.00    +0.000 C 
ATOM     24  N   UNL     1       1.361   4.203  17.691  0.00  0.00    +0.000 N 
ATOM     25  O   UNL     1       3.189   2.902  17.706  0.00  0.00    +0.000 OA
ATOM     26  H   UNL     1       0.816   4.863  18.228  0.00  0.00    +0.000 HD
ATOM     27  H   UNL     1       0.869   3.408  17.306  0.00  0.00    +0.000 HD
ENDBRANCH   2  23
BRANCH   7  28
ATOM     28  O   UNL     1       6.524   5.713  14.905  0.00  0.00    +0.000 OA
BRANCH  28  29
ATOM     29  C   UNL     1       6.392   4.608  14.054  0.00  0.00    +0.000 C 
ATOM     30  F   UNL     1       5.140   4.457  13.553  0.00  0.00    +0.000 F 
ATOM     31  F   UNL     1       7.245   4.787  13.017  0.00  0.00    +0.000 F 
ATOM     32  F   UNL     1       6.762   3.471  14.695  0.00  0.00    +0.000 F 
ENDBRANCH  28  29
ENDBRANCH   7  28
TORSDOF 8
ENDMDL
MODEL 4
REMARK VINA RESULT:      -8.0      3.954      8.715
REMARK  Name = 
REMARK  9 active torsions:
REMARK  status: ('A' for Active; 'I' for Inactive)
REMARK    1  A    between atoms: C_1  and  C_2
REMARK    2  A    between atoms: C_2  and  C_3
REMARK    3  A    between atoms: C_2  and  C_7
REMARK    4  A    between atoms: C_3  and  C_4
REMARK    5  A    between atoms: C_4  and  O_6
REMARK    6  A    between atoms: C_11  and  N_12
REMARK    7  A    between atoms: C_13  and  C_14
REMARK    8  A    between atoms: C_21  and  O_22
REMARK    9  A    between atoms: O_22  and  C_23
REMARK                            x       y       z     vdW  Elec       q    Type
REMARK                         _______ _______ _______ _____ _____    ______ ____
ROOT
ATOM      1  N   UNL     1       3.050   6.065  18.795  0.00  0.00    +0.000 N 
ATOM      2  C   UNL     1       3.033   4.694  19.044  0.00  0.00    +0.000 A 
ATOM      3  C   UNL     1       4.221   4.673  19.776  0.00  0.00    +0.000 A 
ATOM      4  C   UNL     1       5.104   5.322  18.876  0.00  0.00    +0.000 A 
ATOM      5  C   UNL     1       6.436   5.062  18.558  0.00  0.00    +0.000 A 
ATOM      6  C   UNL     1       6.785   5.262  17.227  0.00  0.00    +0.000 A 
ATOM      7  C   UNL     1       5.899   5.818  16.287  0.00  0.00    +0.000 A 
ATOM      8  C   UNL     1       4.641   6.334  16.693  0.00  0.00    +0.000 A 
ATOM      9  C   UNL     1       4.268   6.126  18.054  0.00  0.00    +0.000 A 
ENDROOT
BRANCH   1  14
ATOM     10  C   UNL     1       1.199   9.258  19.567  0.00  0.00    +0.000 A 
ATOM     11  C   UNL     1       0.721   8.987  20.846  0.00  0.00    +0.000 A 
ATOM     12  C   UNL     1       0.965   7.735  21.459  0.00  0.00    +0.000 A 
ATOM     13  C   UNL     1       1.706   6.706  20.828  0.00  0.00    +0.000 A 
ATOM     14  C   UNL     1       2.195   6.940  19.563  0.00  0.00    +0.000 A 
ATOM     15  C   UNL     1       1.862   8.185  18.943  0.00  0.00    +0.000 A 
BRANCH  10  17
ATOM     16  C   UNL     1       2.193  10.881  17.836  0.00  0.00    +0.000 C 
ATOM     17  C   UNL     1       1.050  10.614  18.831  0.00  0.00    +0.000 C 
BRANCH  17  18
ATOM     18  C   UNL     1      -0.313  10.674  18.093  0.00  0.00    +0.000 C 
BRANCH  18  19
ATOM     19  C   UNL     1      -1.215  11.871  18.362  0.00  0.00    +0.000 C 
ATOM     20  O   UNL     1      -1.987  11.982  19.290  0.00  0.00    +0.000 OA
BRANCH  19  21
ATOM     21  O   UNL     1      -1.112  12.796  17.389  0.00  0.00    +0.000 OA
ATOM     22  H   UNL     1      -1.275  12.453  16.494  0.00  0.00    +0.000 HD
ENDBRANCH  19  21
ENDBRANCH  18  19
ENDBRANCH  17  18
ENDBRANCH  10  17
ENDBRANCH   1  14
BRANCH   2  23
ATOM     23  C   UNL     1       2.461   3.859  18.008  0.00  0.00    +0.000 C 
ATOM     24  N   UNL     1       3.162   2.728  17.711  0.00  0.00    +0.000 N 
ATOM     25  O   UNL     1       1.478   4.166  17.346  0.00  0.00    +0.000 OA
ATOM     26  H   UNL     1       4.114   2.642  18.039  0.00  0.00    +0.000 HD
ATOM     27  H   UNL     1       2.956   2.345  16.798  0.00  0.00    +0.000 HD
ENDBRANCH   2  23
BRANCH   7  28
ATOM     28  O   UNL     1       6.459   5.759  15.045  0.00  0.00    +0.000 OA
BRANCH  28  29
ATOM     29  C   UNL     1       6.421   4.669  14.164  0.00  0.00    +0.000 C 
ATOM     30  F   UNL     1       7.244   4.809  13.095  0.00  0.00    +0.000 F 
ATOM     31  F   UNL     1       6.808   3.571  14.857  0.00  0.00    +0.000 F 
ATOM     32  F   UNL     1       5.154   4.455  13.733  0.00  0.00    +0.000 F 
ENDBRANCH  28  29
ENDBRANCH   7  28
TORSDOF 8
ENDMDL
MODEL 5
REMARK VINA RESULT:      -8.0      3.904      9.046
REMARK  Name = 
REMARK  9 active torsions:
REMARK  status: ('A' for Active; 'I' for Inactive)
REMARK    1  A    between atoms: C_1  and  C_2
REMARK    2  A    between atoms: C_2  and  C_3
REMARK    3  A    between atoms: C_2  and  C_7
REMARK    4  A    between atoms: C_3  and  C_4
REMARK    5  A    between atoms: C_4  and  O_6
REMARK    6  A    between atoms: C_11  and  N_12
REMARK    7  A    between atoms: C_13  and  C_14
REMARK    8  A    between atoms: C_21  and  O_22
REMARK    9  A    between atoms: O_22  and  C_23
REMARK                            x       y       z     vdW  Elec       q    Type
REMARK                         _______ _______ _______ _____ _____    ______ ____
ROOT
ATOM      1  N   UNL     1       3.530   6.159  18.099  0.00  0.00    +0.000 N 
ATOM      2  C   UNL     1       3.557   5.166  19.075  0.00  0.00    +0.000 A 
ATOM      3  C   UNL     1       4.843   5.458  19.533  0.00  0.00    +0.000 A 
ATOM      4  C   UNL     1       5.576   5.421  18.319  0.00  0.00    +0.000 A 
ATOM      5  C   UNL     1       6.844   4.919  18.034  0.00  0.00    +0.000 A 
ATOM      6  C   UNL     1       6.985   4.315  16.790  0.00  0.00    +0.000 A 
ATOM      7  C   UNL     1       5.964   4.325  15.823  0.00  0.00    +0.000 A 
ATOM      8  C   UNL     1       4.780   5.080  16.026  0.00  0.00    +0.000 A 
ATOM      9  C   UNL     1       4.620   5.697  17.303  0.00  0.00    +0.000 A 
ENDROOT
BRANCH   1  14
ATOM     10  C   UNL     1       1.389   8.550  20.078  0.00  0.00    +0.000 A 
ATOM     11  C   UNL     1       1.142   9.538  19.127  0.00  0.00    +0.000 A 
ATOM     12  C   UNL     1       1.709   9.452  17.833  0.00  0.00    +0.000 A 
ATOM     13  C   UNL     1       2.534   8.375  17.429  0.00  0.00    +0.000 A 
ATOM     14  C   UNL     1       2.798   7.381  18.343  0.00  0.00    +0.000 A 
ATOM     15  C   UNL     1       2.275   7.538  19.664  0.00  0.00    +0.000 A 
BRANCH  10  17
ATOM     16  C   UNL     1       1.761   8.914  22.597  0.00  0.00    +0.000 C 
ATOM     17  C   UNL     1       0.766   8.507  21.497  0.00  0.00    +0.000 C 
BRANCH  17  18
ATOM     18  C   UNL     1      -0.487   9.420  21.557  0.00  0.00    +0.000 C 
BRANCH  18  19
ATOM     19  C   UNL     1      -0.350  10.771  22.245  0.00  0.00    +0.000 C 
ATOM     20  O   UNL     1       0.297  11.711  21.836  0.00  0.00    +0.000 OA
BRANCH  19  21
ATOM     21  O   UNL     1      -0.988  10.791  23.429  0.00  0.00    +0.000 OA
ATOM     22  H   UNL     1      -0.461  10.453  24.173  0.00  0.00    +0.000 HD
ENDBRANCH  19  21
ENDBRANCH  18  19
ENDBRANCH  17  18
ENDBRANCH  10  17
ENDBRANCH   1  14
BRANCH   2  23
ATOM     23  C   UNL     1       2.837   3.946  18.773  0.00  0.00    +0.000 C 
ATOM     24  N   UNL     1       1.598   4.116  18.229  0.00  0.00    +0.000 N 
ATOM     25  O   UNL     1       3.230   2.827  19.071  0.00  0.00    +0.000 OA
ATOM     26  H   UNL     1       1.164   5.028  18.272  0.00  0.00    +0.000 HD
ATOM     27  H   UNL     1       0.990   3.315  18.335  0.00  0.00    +0.000 HD
ENDBRANCH   2  23
BRANCH   7  28
ATOM     28  O   UNL     1       6.329   3.539  14.771  0.00  0.00    +0.000 OA
BRANCH  28  29
ATOM     29  C   UNL     1       6.241   3.871  13.411  0.00  0.00    +0.000 C 
ATOM     30  F   UNL     1       7.006   4.935  13.064  0.00  0.00    +0.000 F 
ATOM     31  F   UNL     1       6.661   2.796  12.701  0.00  0.00    +0.000 F 
ATOM     32  F   UNL     1       4.951   4.109  13.066  0.00  0.00    +0.000 F 
ENDBRANCH  28  29
ENDBRANCH   7  28
TORSDOF 8
ENDMDL
MODEL 6
REMARK VINA RESULT:      -8.0      3.852      8.683
REMARK  Name = 
REMARK  9 active torsions:
REMARK  status: ('A' for Active; 'I' for Inactive)
REMARK    1  A    between atoms: C_1  and  C_2
REMARK    2  A    between atoms: C_2  and  C_3
REMARK    3  A    between atoms: C_2  and  C_7
REMARK    4  A    between atoms: C_3  and  C_4
REMARK    5  A    between atoms: C_4  and  O_6
REMARK    6  A    between atoms: C_11  and  N_12
REMARK    7  A    between atoms: C_13  and  C_14
REMARK    8  A    between atoms: C_21  and  O_22
REMARK    9  A    between atoms: O_22  and  C_23
REMARK                            x       y       z     vdW  Elec       q    Type
REMARK                         _______ _______ _______ _____ _____    ______ ____
ROOT
ATOM      1  N   UNL     1       3.558   5.154  18.521  0.00  0.00    +0.000 N 
ATOM      2  C   UNL     1       3.814   3.817  18.817  0.00  0.00    +0.000 A 
ATOM      3  C   UNL     1       5.061   4.042  19.401  0.00  0.00    +0.000 A 
ATOM      4  C   UNL     1       5.708   4.783  18.380  0.00  0.00    +0.000 A 
ATOM      5  C   UNL     1       7.020   4.740  17.912  0.00  0.00    +0.000 A 
ATOM      6  C   UNL     1       7.176   4.923  16.543  0.00  0.00    +0.000 A 
ATOM      7  C   UNL     1       6.105   5.266  15.698  0.00  0.00    +0.000 A 
ATOM      8  C   UNL     1       4.829   5.578  16.234  0.00  0.00    +0.000 A 
ATOM      9  C   UNL     1       4.655   5.384  17.637  0.00  0.00    +0.000 A 
ENDROOT
BRANCH   1  14
ATOM     10  C   UNL     1       1.753   8.237  19.728  0.00  0.00    +0.000 A 
ATOM     11  C   UNL     1       1.118   7.747  20.866  0.00  0.00    +0.000 A 
ATOM     12  C   UNL     1       1.240   6.384  21.231  0.00  0.00    +0.000 A 
ATOM     13  C   UNL     1       2.010   5.459  20.486  0.00  0.00    +0.000 A 
ATOM     14  C   UNL     1       2.653   5.910  19.356  0.00  0.00    +0.000 A 
ATOM     15  C   UNL     1       2.444   7.271  18.973  0.00  0.00    +0.000 A 
BRANCH  10  17
ATOM     16  C   UNL     1       1.761   9.874  17.744  0.00  0.00    +0.000 C 
ATOM     17  C   UNL     1       1.745   9.719  19.274  0.00  0.00    +0.000 C 
BRANCH  17  18
ATOM     18  C   UNL     1       0.509  10.450  19.863  0.00  0.00    +0.000 C 
BRANCH  18  19
ATOM     19  C   UNL     1       0.717  11.314  21.100  0.00  0.00    +0.000 C 
ATOM     20  O   UNL     1       0.096  11.226  22.137  0.00  0.00    +0.000 OA
BRANCH  19  21
ATOM     21  O   UNL     1       1.648  12.263  20.889  0.00  0.00    +0.000 OA
ATOM     22  H   UNL     1       1.309  13.067  20.462  0.00  0.00    +0.000 HD
ENDBRANCH  19  21
ENDBRANCH  18  19
ENDBRANCH  17  18
ENDBRANCH  10  17
ENDBRANCH   1  14
BRANCH   2  23
ATOM     23  C   UNL     1       3.286   2.840  17.887  0.00  0.00    +0.000 C 
ATOM     24  N   UNL     1       3.969   1.661  17.824  0.00  0.00    +0.000 N 
ATOM     25  O   UNL     1       2.362   3.058  17.116  0.00  0.00    +0.000 OA
ATOM     26  H   UNL     1       4.893   1.607  18.230  0.00  0.00    +0.000 HD
ATOM     27  H   UNL     1       3.813   1.142  16.970  0.00  0.00    +0.000 HD
ENDBRANCH   2  23
BRANCH   7  28
ATOM     28  O   UNL     1       6.524   5.236  14.401  0.00  0.00    +0.000 OA
BRANCH  28  29
ATOM     29  C   UNL     1       6.251   4.233  13.459  0.00  0.00    +0.000 C 
ATOM     30  F   UNL     1       4.995   4.295  12.952  0.00  0.00    +0.000 F 
ATOM     31  F   UNL     1       7.129   4.383  12.438  0.00  0.00    +0.000 F 
ATOM     32  F   UNL     1       6.460   3.008  14.000  0.00  0.00    +0.000 F 
ENDBRANCH  28  29
ENDBRANCH   7  28
TORSDOF 8
ENDMDL
MODEL 7
REMARK VINA RESULT:      -8.0      3.882      8.988
REMARK  Name = 
REMARK  9 active torsions:
REMARK  status: ('A' for Active; 'I' for Inactive)
REMARK    1  A    between atoms: C_1  and  C_2
REMARK    2  A    between atoms: C_2  and  C_3
REMARK    3  A    between atoms: C_2  and  C_7
REMARK    4  A    between atoms: C_3  and  C_4
REMARK    5  A    between atoms: C_4  and  O_6
REMARK    6  A    between atoms: C_11  and  N_12
REMARK    7  A    between atoms: C_13  and  C_14
REMARK    8  A    between atoms: C_21  and  O_22
REMARK    9  A    between atoms: O_22  and  C_23
REMARK                            x       y       z     vdW  Elec       q    Type
REMARK                         _______ _______ _______ _____ _____    ______ ____
ROOT
ATOM      1  N   UNL     1       3.689   6.078  18.070  0.00  0.00    +0.000 N 
ATOM      2  C   UNL     1       3.883   5.144  19.085  0.00  0.00    +0.000 A 
ATOM      3  C   UNL     1       5.186   5.539  19.388  0.00  0.00    +0.000 A 
ATOM      4  C   UNL     1       5.791   5.480  18.107  0.00  0.00    +0.000 A 
ATOM      5  C   UNL     1       7.054   5.041  17.713  0.00  0.00    +0.000 A 
ATOM      6  C   UNL     1       7.105   4.379  16.492  0.00  0.00    +0.000 A 
ATOM      7  C   UNL     1       5.991   4.274  15.640  0.00  0.00    +0.000 A 
ATOM      8  C   UNL     1       4.788   4.965  15.930  0.00  0.00    +0.000 A 
ATOM      9  C   UNL     1       4.719   5.641  17.185  0.00  0.00    +0.000 A 
ENDROOT
BRANCH   1  14
ATOM     10  C   UNL     1       1.499   8.377  20.105  0.00  0.00    +0.000 A 
ATOM     11  C   UNL     1       1.173   9.345  19.157  0.00  0.00    +0.000 A 
ATOM     12  C   UNL     1       1.702   9.278  17.846  0.00  0.00    +0.000 A 
ATOM     13  C   UNL     1       2.565   8.239  17.420  0.00  0.00    +0.000 A 
ATOM     14  C   UNL     1       2.907   7.265  18.331  0.00  0.00    +0.000 A 
ATOM     15  C   UNL     1       2.419   7.406  19.668  0.00  0.00    +0.000 A 
BRANCH  10  17
ATOM     16  C   UNL     1       1.833   9.003  22.577  0.00  0.00    +0.000 C 
ATOM     17  C   UNL     1       0.926   8.314  21.543  0.00  0.00    +0.000 C 
BRANCH  17  18
ATOM     18  C   UNL     1      -0.491   8.947  21.581  0.00  0.00    +0.000 C 
BRANCH  18  19
ATOM     19  C   UNL     1      -0.650  10.292  22.277  0.00  0.00    +0.000 C 
ATOM     20  O   UNL     1      -0.858  10.458  23.459  0.00  0.00    +0.000 OA
BRANCH  19  21
ATOM     21  O   UNL     1      -0.601  11.311  21.399  0.00  0.00    +0.000 OA
ATOM     22  H   UNL     1       0.289  11.676  21.260  0.00  0.00    +0.000 HD
ENDBRANCH  19  21
ENDBRANCH  18  19
ENDBRANCH  17  18
ENDBRANCH  10  17
ENDBRANCH   1  14
BRANCH   2  23
ATOM     23  C   UNL     1       3.217   3.868  18.920  0.00  0.00    +0.000 C 
ATOM     24  N   UNL     1       3.980   2.769  19.185  0.00  0.00    +0.000 N 
ATOM     25  O   UNL     1       2.086   3.738  18.472  0.00  0.00    +0.000 OA
ATOM     26  H   UNL     1       4.983   2.875  19.255  0.00  0.00    +0.000 HD
ATOM     27  H   UNL     1       3.638   1.919  18.758  0.00  0.00    +0.000 HD
ENDBRANCH   2  23
BRANCH   7  28
ATOM     28  O   UNL     1       6.297   3.454  14.593  0.00  0.00    +0.000 OA
BRANCH  28  29
ATOM     29  C   UNL     1       6.213   3.774  13.231  0.00  0.00    +0.000 C 
ATOM     30  F   UNL     1       6.602   2.764  12.413  0.00  0.00    +0.000 F 
ATOM     31  F   UNL     1       4.917   4.064  12.960  0.00  0.00    +0.000 F 
ATOM     32  F   UNL     1       6.945   4.882  12.960  0.00  0.00    +0.000 F 
ENDBRANCH  28  29
ENDBRANCH   7  28
TORSDOF 8
ENDMDL
MODEL 8
REMARK VINA RESULT:      -8.0      3.836      8.491
REMARK  Name = 
REMARK  9 active torsions:
REMARK  status: ('A' for Active; 'I' for Inactive)
REMARK    1  A    between atoms: C_1  and  C_2
REMARK    2  A    between atoms: C_2  and  C_3
REMARK    3  A    between atoms: C_2  and  C_7
REMARK    4  A    between atoms: C_3  and  C_4
REMARK    5  A    between atoms: C_4  and  O_6
REMARK    6  A    between atoms: C_11  and  N_12
REMARK    7  A    between atoms: C_13  and  C_14
REMARK    8  A    between atoms: C_21  and  O_22
REMARK    9  A    between atoms: O_22  and  C_23
REMARK                            x       y       z     vdW  Elec       q    Type
REMARK                         _______ _______ _______ _____ _____    ______ ____
ROOT
ATOM      1  N   UNL     1       3.605   5.105  18.470  0.00  0.00    +0.000 N 
ATOM      2  C   UNL     1       3.867   3.770  18.766  0.00  0.00    +0.000 A 
ATOM      3  C   UNL     1       5.114   4.001  19.350  0.00  0.00    +0.000 A 
ATOM      4  C   UNL     1       5.756   4.745  18.327  0.00  0.00    +0.000 A 
ATOM      5  C   UNL     1       7.068   4.708  17.859  0.00  0.00    +0.000 A 
ATOM      6  C   UNL     1       7.222   4.892  16.490  0.00  0.00    +0.000 A 
ATOM      7  C   UNL     1       6.149   5.228  15.646  0.00  0.00    +0.000 A 
ATOM      8  C   UNL     1       4.872   5.534  16.182  0.00  0.00    +0.000 A 
ATOM      9  C   UNL     1       4.699   5.341  17.585  0.00  0.00    +0.000 A 
ENDROOT
BRANCH   1  14
ATOM     10  C   UNL     1       1.712   8.159  19.617  0.00  0.00    +0.000 A 
ATOM     11  C   UNL     1       1.135   7.689  20.794  0.00  0.00    +0.000 A 
ATOM     12  C   UNL     1       1.326   6.349  21.207  0.00  0.00    +0.000 A 
ATOM     13  C   UNL     1       2.110   5.426  20.474  0.00  0.00    +0.000 A 
ATOM     14  C   UNL     1       2.696   5.857  19.305  0.00  0.00    +0.000 A 
ATOM     15  C   UNL     1       2.418   7.192  18.876  0.00  0.00    +0.000 A 
BRANCH  10  17
ATOM     16  C   UNL     1       2.099   9.771  17.650  0.00  0.00    +0.000 C 
ATOM     17  C   UNL     1       1.627   9.619  19.106  0.00  0.00    +0.000 C 
BRANCH  17  18
ATOM     18  C   UNL     1       0.175  10.149  19.245  0.00  0.00    +0.000 C 
BRANCH  18  19
ATOM     19  C   UNL     1      -0.113  11.567  18.771  0.00  0.00    +0.000 C 
ATOM     20  O   UNL     1       0.329  12.583  19.264  0.00  0.00    +0.000 OA
BRANCH  19  21
ATOM     21  O   UNL     1      -0.995  11.579  17.754  0.00  0.00    +0.000 OA
ATOM     22  H   UNL     1      -1.135  12.455  17.358  0.00  0.00    +0.000 HD
ENDBRANCH  19  21
ENDBRANCH  18  19
ENDBRANCH  17  18
ENDBRANCH  10  17
ENDBRANCH   1  14
BRANCH   2  23
ATOM     23  C   UNL     1       3.343   2.790  17.837  0.00  0.00    +0.000 C 
ATOM     24  N   UNL     1       4.005   1.597  17.806  0.00  0.00    +0.000 N 
ATOM     25  O   UNL     1       2.443   3.014  17.041  0.00  0.00    +0.000 OA
ATOM     26  H   UNL     1       4.918   1.532  18.236  0.00  0.00    +0.000 HD
ATOM     27  H   UNL     1       3.860   1.069  16.956  0.00  0.00    +0.000 HD
ENDBRANCH   2  23
BRANCH   7  28
ATOM     28  O   UNL     1       6.567   5.200  14.348  0.00  0.00    +0.000 OA
BRANCH  28  29
ATOM     29  C   UNL     1       6.304   4.193  13.408  0.00  0.00    +0.000 C 
ATOM     30  F   UNL     1       6.482   2.940  13.894  0.00  0.00    +0.000 F 
ATOM     31  F   UNL     1       5.010   4.320  13.026  0.00  0.00    +0.000 F 
ATOM     32  F   UNL     1       7.074   4.364  12.305  0.00  0.00    +0.000 F 
ENDBRANCH  28  29
ENDBRANCH   7  28
TORSDOF 8
ENDMDL
MODEL 9
REMARK VINA RESULT:      -7.8      3.937      8.649
REMARK  Name = 
REMARK  9 active torsions:
REMARK  status: ('A' for Active; 'I' for Inactive)
REMARK    1  A    between atoms: C_1  and  C_2
REMARK    2  A    between atoms: C_2  and  C_3
REMARK    3  A    between atoms: C_2  and  C_7
REMARK    4  A    between atoms: C_3  and  C_4
REMARK    5  A    between atoms: C_4  and  O_6
REMARK    6  A    between atoms: C_11  and  N_12
REMARK    7  A    between atoms: C_13  and  C_14
REMARK    8  A    between atoms: C_21  and  O_22
REMARK    9  A    between atoms: O_22  and  C_23
REMARK                            x       y       z     vdW  Elec       q    Type
REMARK                         _______ _______ _______ _____ _____    ______ ____
ROOT
ATOM      1  N   UNL     1       2.941   6.310  18.743  0.00  0.00    +0.000 N 
ATOM      2  C   UNL     1       2.827   4.946  19.002  0.00  0.00    +0.000 A 
ATOM      3  C   UNL     1       3.980   4.857  19.783  0.00  0.00    +0.000 A 
ATOM      4  C   UNL     1       4.939   5.439  18.914  0.00  0.00    +0.000 A 
ATOM      5  C   UNL     1       6.263   5.091  18.652  0.00  0.00    +0.000 A 
ATOM      6  C   UNL     1       6.676   5.254  17.335  0.00  0.00    +0.000 A 
ATOM      7  C   UNL     1       5.866   5.856  16.355  0.00  0.00    +0.000 A 
ATOM      8  C   UNL     1       4.629   6.455  16.705  0.00  0.00    +0.000 A 
ATOM      9  C   UNL     1       4.189   6.286  18.052  0.00  0.00    +0.000 A 
ENDROOT
BRANCH   1  14
ATOM     10  C   UNL     1       0.829   9.401  19.199  0.00  0.00    +0.000 A 
ATOM     11  C   UNL     1       0.609   9.374  20.574  0.00  0.00    +0.000 A 
ATOM     12  C   UNL     1       1.117   8.317  21.366  0.00  0.00    +0.000 A 
ATOM     13  C   UNL     1       1.876   7.251  20.825  0.00  0.00    +0.000 A 
ATOM     14  C   UNL     1       2.114   7.247  19.469  0.00  0.00    +0.000 A 
ATOM     15  C   UNL     1       1.519   8.286  18.688  0.00  0.00    +0.000 A 
BRANCH  10  17
ATOM     16  C   UNL     1      -1.081  10.392  17.790  0.00  0.00    +0.000 C 
ATOM     17  C   UNL     1       0.380  10.540  18.249  0.00  0.00    +0.000 C 
BRANCH  17  18
ATOM     18  C   UNL     1       0.578  11.917  18.936  0.00  0.00    +0.000 C 
BRANCH  18  19
ATOM     19  C   UNL     1       1.977  12.519  18.930  0.00  0.00    +0.000 C 
ATOM     20  O   UNL     1       2.763  12.477  18.008  0.00  0.00    +0.000 OA
BRANCH  19  21
ATOM     21  O   UNL     1       2.286  13.064  20.122  0.00  0.00    +0.000 OA
ATOM     22  H   UNL     1       3.062  13.648  20.105  0.00  0.00    +0.000 HD
ENDBRANCH  19  21
ENDBRANCH  18  19
ENDBRANCH  17  18
ENDBRANCH  10  17
ENDBRANCH   1  14
BRANCH   2  23
ATOM     23  C   UNL     1       2.243   4.138  17.951  0.00  0.00    +0.000 C 
ATOM     24  N   UNL     1       2.962   3.037  17.590  0.00  0.00    +0.000 N 
ATOM     25  O   UNL     1       1.236   4.447  17.330  0.00  0.00    +0.000 OA
ATOM     26  H   UNL     1       3.925   2.960  17.888  0.00  0.00    +0.000 HD
ATOM     27  H   UNL     1       2.738   2.685  16.669  0.00  0.00    +0.000 HD
ENDBRANCH   2  23
BRANCH   7  28
ATOM     28  O   UNL     1       6.471   5.748  15.138  0.00  0.00    +0.000 OA
BRANCH  28  29
ATOM     29  C   UNL     1       6.422   4.642  14.277  0.00  0.00    +0.000 C 
ATOM     30  F   UNL     1       6.755   3.473  14.879  0.00  0.00    +0.000 F 
ATOM     31  F   UNL     1       5.152   4.537  13.820  0.00  0.00    +0.000 F 
ATOM     32  F   UNL     1       7.227   4.843  13.205  0.00  0.00    +0.000 F 
ENDBRANCH  28  29
ENDBRANCH   7  28
TORSDOF 8
ENDMDL
