MODEL 1
REMARK VINA RESULT:      -6.2      0.000      0.000
REMARK  Name = 
REMARK  3 active torsions:
REMARK  status: ('A' for Active; 'I' for Inactive)
REMARK    1  A    between atoms: C_1  and  C_2
REMARK    2  A    between atoms: N_7  and  N_8
REMARK    3  A    between atoms: C_9  and  C_10
REMARK                            x       y       z     vdW  Elec       q    Type
REMARK                         _______ _______ _______ _____ _____    ______ ____
ROOT
ATOM      1  C   UNL     1       7.086   4.186  12.236  0.00  0.00    +0.000 C 
ATOM      2  C   UNL     1       6.912   4.681  13.642  0.00  0.00    +0.000 A 
ATOM      3  N   UNL     1       7.843   5.394  14.194  0.00  0.00    +0.000 NA
ATOM      4  N   UNL     1       7.632   5.821  15.460  0.00  0.00    +0.000 N 
ATOM      5  C   UNL     1       6.536   5.547  16.241  0.00  0.00    +0.000 A 
ATOM      6  S   UNL     1       6.529   6.197  17.794  0.00  0.00    +0.000 S 
ATOM      7  N   UNL     1       5.553   4.736  15.678  0.00  0.00    +0.000 N 
ATOM      8  C   UNL     1       5.630   4.312  14.351  0.00  0.00    +0.000 A 
ATOM      9  O   UNL     1       4.776   3.710  13.709  0.00  0.00    +0.000 OA
ATOM     10  H   UNL     1       8.368   6.395  15.868  0.00  0.00    +0.000 HD
ENDROOT
BRANCH   7  11
ATOM     11  N   UNL     1       4.410   4.519  16.450  0.00  0.00    +0.000 NA
ATOM     12  C   UNL     1       4.266   3.406  17.094  0.00  0.00    +0.000 C 
BRANCH  12  13
ATOM     13  C   UNL     1       3.079   3.194  17.890  0.00  0.00    +0.000 A 
ATOM     14  C   UNL     1       2.532   2.006  18.336  0.00  0.00    +0.000 A 
ATOM     15  C   UNL     1       1.323   2.206  19.067  0.00  0.00    +0.000 A 
ATOM     16  C   UNL     1       0.993   3.541  19.156  0.00  0.00    +0.000 A 
ATOM     17  S   UNL     1       2.140   4.540  18.371  0.00  0.00    +0.000 S 
ENDBRANCH  12  13
ENDBRANCH   7  11
TORSDOF 2
ENDMDL
MODEL 2
REMARK VINA RESULT:      -6.1      1.645      1.868
REMARK  Name = 
REMARK  3 active torsions:
REMARK  status: ('A' for Active; 'I' for Inactive)
REMARK    1  A    between atoms: C_1  and  C_2
REMARK    2  A    between atoms: N_7  and  N_8
REMARK    3  A    between atoms: C_9  and  C_10
REMARK                            x       y       z     vdW  Elec       q    Type
REMARK                         _______ _______ _______ _____ _____    ______ ____
ROOT
ATOM      1  C   UNL     1       6.449   4.113  13.578  0.00  0.00    +0.000 C 
ATOM      2  C   UNL     1       6.560   4.456  15.035  0.00  0.00    +0.000 A 
ATOM      3  N   UNL     1       7.689   4.873  15.515  0.00  0.00    +0.000 NA
ATOM      4  N   UNL     1       7.732   5.175  16.833  0.00  0.00    +0.000 N 
ATOM      5  C   UNL     1       6.701   5.055  17.731  0.00  0.00    +0.000 A 
ATOM      6  S   UNL     1       7.027   5.493  19.323  0.00  0.00    +0.000 S 
ATOM      7  N   UNL     1       5.498   4.556  17.239  0.00  0.00    +0.000 N 
ATOM      8  C   UNL     1       5.318   4.293  15.880  0.00  0.00    +0.000 A 
ATOM      9  O   UNL     1       4.278   3.978  15.312  0.00  0.00    +0.000 OA
ATOM     10  H   UNL     1       8.624   5.518  17.184  0.00  0.00    +0.000 HD
ENDROOT
BRANCH   7  11
ATOM     11  N   UNL     1       4.433   4.501  18.141  0.00  0.00    +0.000 NA
ATOM     12  C   UNL     1       3.926   3.358  18.475  0.00  0.00    +0.000 C 
BRANCH  12  13
ATOM     13  C   UNL     1       2.825   3.315  19.409  0.00  0.00    +0.000 A 
ATOM     14  C   UNL     1       1.561   3.859  19.289  0.00  0.00    +0.000 A 
ATOM     15  C   UNL     1       0.761   3.636  20.449  0.00  0.00    +0.000 A 
ATOM     16  C   UNL     1       1.443   2.926  21.413  0.00  0.00    +0.000 A 
ATOM     17  S   UNL     1       3.029   2.525  20.912  0.00  0.00    +0.000 S 
ENDBRANCH  12  13
ENDBRANCH   7  11
TORSDOF 2
ENDMDL
MODEL 3
REMARK VINA RESULT:      -6.1      1.503      1.503
REMARK  Name = 
REMARK  3 active torsions:
REMARK  status: ('A' for Active; 'I' for Inactive)
REMARK    1  A    between atoms: C_1  and  C_2
REMARK    2  A    between atoms: N_7  and  N_8
REMARK    3  A    between atoms: C_9  and  C_10
REMARK                            x       y       z     vdW  Elec       q    Type
REMARK                         _______ _______ _______ _____ _____    ______ ____
ROOT
ATOM      1  C   UNL     1       6.277   3.821  12.995  0.00  0.00    +0.000 C 
ATOM      2  C   UNL     1       6.478   4.529  14.303  0.00  0.00    +0.000 A 
ATOM      3  N   UNL     1       7.514   5.289  14.471  0.00  0.00    +0.000 NA
ATOM      4  N   UNL     1       7.644   5.910  15.666  0.00  0.00    +0.000 N 
ATOM      5  C   UNL     1       6.799   5.792  16.742  0.00  0.00    +0.000 A 
ATOM      6  S   UNL     1       7.199   6.670  18.121  0.00  0.00    +0.000 S 
ATOM      7  N   UNL     1       5.711   4.935  16.593  0.00  0.00    +0.000 N 
ATOM      8  C   UNL     1       5.436   4.312  15.375  0.00  0.00    +0.000 A 
ATOM      9  O   UNL     1       4.448   3.645  15.084  0.00  0.00    +0.000 OA
ATOM     10  H   UNL     1       8.455   6.517  15.770  0.00  0.00    +0.000 HD
ENDROOT
BRANCH   7  11
ATOM     11  N   UNL     1       4.818   4.872  17.664  0.00  0.00    +0.000 NA
ATOM     12  C   UNL     1       4.750   3.801  18.388  0.00  0.00    +0.000 C 
BRANCH  12  13
ATOM     13  C   UNL     1       3.822   3.750  19.494  0.00  0.00    +0.000 A 
ATOM     14  C   UNL     1       3.480   2.676  20.294  0.00  0.00    +0.000 A 
ATOM     15  C   UNL     1       2.490   3.015  21.263  0.00  0.00    +0.000 A 
ATOM     16  C   UNL     1       2.114   4.337  21.172  0.00  0.00    +0.000 A 
ATOM     17  S   UNL     1       2.959   5.160  19.932  0.00  0.00    +0.000 S 
ENDBRANCH  12  13
ENDBRANCH   7  11
TORSDOF 2
ENDMDL
MODEL 4
REMARK VINA RESULT:      -6.1      0.940      1.154
REMARK  Name = 
REMARK  3 active torsions:
REMARK  status: ('A' for Active; 'I' for Inactive)
REMARK    1  A    between atoms: C_1  and  C_2
REMARK    2  A    between atoms: N_7  and  N_8
REMARK    3  A    between atoms: C_9  and  C_10
REMARK                            x       y       z     vdW  Elec       q    Type
REMARK                         _______ _______ _______ _____ _____    ______ ____
ROOT
ATOM      1  C   UNL     1       7.217   4.607  12.413  0.00  0.00    +0.000 C 
ATOM      2  C   UNL     1       7.051   4.850  13.886  0.00  0.00    +0.000 A 
ATOM      3  N   UNL     1       7.820   5.702  14.488  0.00  0.00    +0.000 NA
ATOM      4  N   UNL     1       7.624   5.889  15.813  0.00  0.00    +0.000 N 
ATOM      5  C   UNL     1       6.705   5.240  16.601  0.00  0.00    +0.000 A 
ATOM      6  S   UNL     1       6.676   5.657  18.232  0.00  0.00    +0.000 S 
ATOM      7  N   UNL     1       5.910   4.283  15.976  0.00  0.00    +0.000 N 
ATOM      8  C   UNL     1       5.971   4.071  14.598  0.00  0.00    +0.000 A 
ATOM      9  O   UNL     1       5.240   3.358  13.919  0.00  0.00    +0.000 OA
ATOM     10  H   UNL     1       8.226   6.576  16.263  0.00  0.00    +0.000 HD
ENDROOT
BRANCH   7  11
ATOM     11  N   UNL     1       4.932   3.676  16.766  0.00  0.00    +0.000 NA
ATOM     12  C   UNL     1       3.752   4.201  16.852  0.00  0.00    +0.000 C 
BRANCH  12  13
ATOM     13  C   UNL     1       2.749   3.562  17.673  0.00  0.00    +0.000 A 
ATOM     14  C   UNL     1       1.537   4.060  18.110  0.00  0.00    +0.000 A 
ATOM     15  C   UNL     1       0.838   3.136  18.941  0.00  0.00    +0.000 A 
ATOM     16  C   UNL     1       1.540   1.962  19.106  0.00  0.00    +0.000 A 
ATOM     17  S   UNL     1       3.024   1.977  18.254  0.00  0.00    +0.000 S 
ENDBRANCH  12  13
ENDBRANCH   7  11
TORSDOF 2
ENDMDL
MODEL 5
REMARK VINA RESULT:      -6.0      1.563      1.745
REMARK  Name = 
REMARK  3 active torsions:
REMARK  status: ('A' for Active; 'I' for Inactive)
REMARK    1  A    between atoms: C_1  and  C_2
REMARK    2  A    between atoms: N_7  and  N_8
REMARK    3  A    between atoms: C_9  and  C_10
REMARK                            x       y       z     vdW  Elec       q    Type
REMARK                         _______ _______ _______ _____ _____    ______ ____
ROOT
ATOM      1  C   UNL     1       6.492   4.187  13.243  0.00  0.00    +0.000 C 
ATOM      2  C   UNL     1       6.648   4.639  14.666  0.00  0.00    +0.000 A 
ATOM      3  N   UNL     1       7.562   5.506  14.970  0.00  0.00    +0.000 NA
ATOM      4  N   UNL     1       7.655   5.885  16.265  0.00  0.00    +0.000 N 
ATOM      5  C   UNL     1       6.894   5.417  17.308  0.00  0.00    +0.000 A 
ATOM      6  S   UNL     1       7.223   6.051  18.832  0.00  0.00    +0.000 S 
ATOM      7  N   UNL     1       5.944   4.444  17.003  0.00  0.00    +0.000 N 
ATOM      8  C   UNL     1       5.707   4.045  15.687  0.00  0.00    +0.000 A 
ATOM      9  O   UNL     1       4.820   3.301  15.281  0.00  0.00    +0.000 OA
ATOM     10  H   UNL     1       8.367   6.580  16.479  0.00  0.00    +0.000 HD
ENDROOT
BRANCH   7  11
ATOM     11  N   UNL     1       5.127   4.023  18.053  0.00  0.00    +0.000 NA
ATOM     12  C   UNL     1       3.900   4.430  18.122  0.00  0.00    +0.000 C 
BRANCH  12  13
ATOM     13  C   UNL     1       3.065   3.986  19.214  0.00  0.00    +0.000 A 
ATOM     14  C   UNL     1       2.760   4.635  20.395  0.00  0.00    +0.000 A 
ATOM     15  C   UNL     1       1.927   3.850  21.246  0.00  0.00    +0.000 A 
ATOM     16  C   UNL     1       1.622   2.631  20.683  0.00  0.00    +0.000 A 
ATOM     17  S   UNL     1       2.329   2.444  19.135  0.00  0.00    +0.000 S 
ENDBRANCH  12  13
ENDBRANCH   7  11
TORSDOF 2
ENDMDL
MODEL 6
REMARK VINA RESULT:      -6.0      2.586      3.348
REMARK  Name = 
REMARK  3 active torsions:
REMARK  status: ('A' for Active; 'I' for Inactive)
REMARK    1  A    between atoms: C_1  and  C_2
REMARK    2  A    between atoms: N_7  and  N_8
REMARK    3  A    between atoms: C_9  and  C_10
REMARK                            x       y       z     vdW  Elec       q    Type
REMARK                         _______ _______ _______ _____ _____    ______ ____
ROOT
ATOM      1  C   UNL     1       8.347   7.622  18.630  0.00  0.00    +0.000 C 
ATOM      2  C   UNL     1       7.566   6.727  17.712  0.00  0.00    +0.000 A 
ATOM      3  N   UNL     1       7.819   6.729  16.441  0.00  0.00    +0.000 NA
ATOM      4  N   UNL     1       7.091   5.898  15.660  0.00  0.00    +0.000 N 
ATOM      5  C   UNL     1       6.079   5.067  16.074  0.00  0.00    +0.000 A 
ATOM      6  S   UNL     1       5.326   4.140  14.889  0.00  0.00    +0.000 S 
ATOM      7  N   UNL     1       5.761   5.097  17.430  0.00  0.00    +0.000 N 
ATOM      8  C   UNL     1       6.504   5.853  18.338  0.00  0.00    +0.000 A 
ATOM      9  O   UNL     1       6.405   5.862  19.560  0.00  0.00    +0.000 OA
ATOM     10  H   UNL     1       7.319   5.902  14.668  0.00  0.00    +0.000 HD
ENDROOT
BRANCH   7  11
ATOM     11  N   UNL     1       4.779   4.201  17.857  0.00  0.00    +0.000 NA
ATOM     12  C   UNL     1       3.668   4.644  18.351  0.00  0.00    +0.000 C 
BRANCH  12  13
ATOM     13  C   UNL     1       2.661   3.706  18.789  0.00  0.00    +0.000 A 
ATOM     14  C   UNL     1       1.641   3.122  18.063  0.00  0.00    +0.000 A 
ATOM     15  C   UNL     1       0.822   2.273  18.863  0.00  0.00    +0.000 A 
ATOM     16  C   UNL     1       1.247   2.235  20.172  0.00  0.00    +0.000 A 
ATOM     17  S   UNL     1       2.631   3.210  20.426  0.00  0.00    +0.000 S 
ENDBRANCH  12  13
ENDBRANCH   7  11
TORSDOF 2
ENDMDL
MODEL 7
REMARK VINA RESULT:      -5.9      2.918      6.319
REMARK  Name = 
REMARK  3 active torsions:
REMARK  status: ('A' for Active; 'I' for Inactive)
REMARK    1  A    between atoms: C_1  and  C_2
REMARK    2  A    between atoms: N_7  and  N_8
REMARK    3  A    between atoms: C_9  and  C_10
REMARK                            x       y       z     vdW  Elec       q    Type
REMARK                         _______ _______ _______ _____ _____    ______ ____
ROOT
ATOM      1  C   UNL     1       1.918   2.571  21.595  0.00  0.00    +0.000 C 
ATOM      2  C   UNL     1       2.172   3.789  20.754  0.00  0.00    +0.000 A 
ATOM      3  N   UNL     1       1.817   4.957  21.189  0.00  0.00    +0.000 NA
ATOM      4  N   UNL     1       2.076   6.022  20.396  0.00  0.00    +0.000 N 
ATOM      5  C   UNL     1       2.653   5.990  19.150  0.00  0.00    +0.000 A 
ATOM      6  S   UNL     1       2.853   7.466  18.368  0.00  0.00    +0.000 S 
ATOM      7  N   UNL     1       2.989   4.734  18.649  0.00  0.00    +0.000 N 
ATOM      8  C   UNL     1       2.844   3.579  19.418  0.00  0.00    +0.000 A 
ATOM      9  O   UNL     1       3.220   2.445  19.140  0.00  0.00    +0.000 OA
ATOM     10  H   UNL     1       1.805   6.932  20.765  0.00  0.00    +0.000 HD
ENDROOT
BRANCH   7  11
ATOM     11  N   UNL     1       3.638   4.713  17.413  0.00  0.00    +0.000 NA
ATOM     12  C   UNL     1       4.912   4.494  17.354  0.00  0.00    +0.000 C 
BRANCH  12  13
ATOM     13  C   UNL     1       5.571   4.474  16.069  0.00  0.00    +0.000 A 
ATOM     14  C   UNL     1       5.192   3.830  14.907  0.00  0.00    +0.000 A 
ATOM     15  C   UNL     1       6.131   4.019  13.851  0.00  0.00    +0.000 A 
ATOM     16  C   UNL     1       7.193   4.804  14.242  0.00  0.00    +0.000 A 
ATOM     17  S   UNL     1       7.046   5.315  15.869  0.00  0.00    +0.000 S 
ENDBRANCH  12  13
ENDBRANCH   7  11
TORSDOF 2
ENDMDL
MODEL 8
REMARK VINA RESULT:      -5.7      4.179      6.661
REMARK  Name = 
REMARK  3 active torsions:
REMARK  status: ('A' for Active; 'I' for Inactive)
REMARK    1  A    between atoms: C_1  and  C_2
REMARK    2  A    between atoms: N_7  and  N_8
REMARK    3  A    between atoms: C_9  and  C_10
REMARK                            x       y       z     vdW  Elec       q    Type
REMARK                         _______ _______ _______ _____ _____    ______ ____
ROOT
ATOM      1  C   UNL     1       0.923  10.395  19.302  0.00  0.00    +0.000 C 
ATOM      2  C   UNL     1       1.381   8.988  19.558  0.00  0.00    +0.000 A 
ATOM      3  N   UNL     1       1.101   8.415  20.687  0.00  0.00    +0.000 NA
ATOM      4  N   UNL     1       1.530   7.145  20.863  0.00  0.00    +0.000 N 
ATOM      5  C   UNL     1       2.265   6.401  19.974  0.00  0.00    +0.000 A 
ATOM      6  S   UNL     1       2.679   4.840  20.449  0.00  0.00    +0.000 S 
ATOM      7  N   UNL     1       2.619   7.025  18.780  0.00  0.00    +0.000 N 
ATOM      8  C   UNL     1       2.157   8.302  18.459  0.00  0.00    +0.000 A 
ATOM      9  O   UNL     1       2.291   8.899  17.396  0.00  0.00    +0.000 OA
ATOM     10  H   UNL     1       1.283   6.708  21.750  0.00  0.00    +0.000 HD
ENDROOT
BRANCH   7  11
ATOM     11  N   UNL     1       3.307   6.242  17.850  0.00  0.00    +0.000 NA
ATOM     12  C   UNL     1       4.589   6.361  17.727  0.00  0.00    +0.000 C 
BRANCH  12  13
ATOM     13  C   UNL     1       5.289   5.545  16.761  0.00  0.00    +0.000 A 
ATOM     14  C   UNL     1       4.796   4.539  15.953  0.00  0.00    +0.000 A 
ATOM     15  C   UNL     1       5.813   3.936  15.156  0.00  0.00    +0.000 A 
ATOM     16  C   UNL     1       7.047   4.506  15.381  0.00  0.00    +0.000 A 
ATOM     17  S   UNL     1       6.970   5.765  16.538  0.00  0.00    +0.000 S 
ENDBRANCH  12  13
ENDBRANCH   7  11
TORSDOF 2
ENDMDL
MODEL 9
REMARK VINA RESULT:      -5.6      3.428      4.213
REMARK  Name = 
REMARK  3 active torsions:
REMARK  status: ('A' for Active; 'I' for Inactive)
REMARK    1  A    between atoms: C_1  and  C_2
REMARK    2  A    between atoms: N_7  and  N_8
REMARK    3  A    between atoms: C_9  and  C_10
REMARK                            x       y       z     vdW  Elec       q    Type
REMARK                         _______ _______ _______ _____ _____    ______ ____
ROOT
ATOM      1  C   UNL     1       6.453   4.733  14.196  0.00  0.00    +0.000 C 
ATOM      2  C   UNL     1       5.780   4.547  15.525  0.00  0.00    +0.000 A 
ATOM      3  N   UNL     1       5.746   3.371  16.070  0.00  0.00    +0.000 NA
ATOM      4  N   UNL     1       5.135   3.260  17.272  0.00  0.00    +0.000 N 
ATOM      5  C   UNL     1       4.512   4.267  17.966  0.00  0.00    +0.000 A 
ATOM      6  S   UNL     1       3.817   3.854  19.442  0.00  0.00    +0.000 S 
ATOM      7  N   UNL     1       4.494   5.524  17.365  0.00  0.00    +0.000 N 
ATOM      8  C   UNL     1       5.168   5.769  16.168  0.00  0.00    +0.000 A 
ATOM      9  O   UNL     1       5.333   6.849  15.612  0.00  0.00    +0.000 OA
ATOM     10  H   UNL     1       5.136   2.332  17.690  0.00  0.00    +0.000 HD
ENDROOT
BRANCH   7  11
ATOM     11  N   UNL     1       3.920   6.559  18.106  0.00  0.00    +0.000 NA
ATOM     12  C   UNL     1       2.644   6.764  18.051  0.00  0.00    +0.000 C 
BRANCH  12  13
ATOM     13  C   UNL     1       2.063   7.839  18.823  0.00  0.00    +0.000 A 
ATOM     14  C   UNL     1       1.725   7.863  20.162  0.00  0.00    +0.000 A 
ATOM     15  C   UNL     1       1.135   9.102  20.550  0.00  0.00    +0.000 A 
ATOM     16  C   UNL     1       1.047   9.982  19.494  0.00  0.00    +0.000 A 
ATOM     17  S   UNL     1       1.683   9.317  18.051  0.00  0.00    +0.000 S 
ENDBRANCH  12  13
ENDBRANCH   7  11
TORSDOF 2
ENDMDL
