MODEL 1
REMARK VINA RESULT:      -7.5      0.000      0.000
REMARK  Name = 
REMARK  13 active torsions:
REMARK  status: ('A' for Active; 'I' for Inactive)
REMARK    1  A    between atoms: C_1  and  C_2
REMARK    2  A    between atoms: C_2  and  C_3
REMARK    3  A    between atoms: C_8  and  O_9
REMARK    4  A    between atoms: O_9  and  C_10
REMARK    5  A    between atoms: C_10  and  C_11
REMARK    6  A    between atoms: C_11  and  O_12
REMARK    7  A    between atoms: C_11  and  C_13
REMARK    8  A    between atoms: C_13  and  N_14
REMARK    9  A    between atoms: N_14  and  C_15
REMARK   10  A    between atoms: C_15  and  C_16
REMARK   11  A    between atoms: C_15  and  C_17
REMARK   12  A    between atoms: C_15  and  C_18
REMARK   13  A    between atoms: C_18  and  C_19
REMARK                            x       y       z     vdW  Elec       q    Type
REMARK                         _______ _______ _______ _____ _____    ______ ____
ROOT
ATOM      1  N   UNL     1       2.809   2.412  19.951  0.00  0.00    +0.000 NA
ATOM      2  H   UNL     1       3.763   2.661  19.674  0.00  0.00    +0.000 HD
ENDROOT
BRANCH   1   3
ATOM      3  C   UNL     1       2.160   3.539  20.677  0.00  0.00    +0.000 C 
ATOM      4  C   UNL     1       0.778   3.850  20.074  0.00  0.00    +0.000 C 
ATOM      5  C   UNL     1       2.010   3.163  22.162  0.00  0.00    +0.000 C 
BRANCH   3   6
ATOM      6  C   UNL     1       3.128   4.762  20.537  0.00  0.00    +0.000 C 
BRANCH   6   7
ATOM      7  C   UNL     1       2.564   6.039  19.972  0.00  0.00    +0.000 A 
ATOM      8  C   UNL     1       2.758   6.624  18.734  0.00  0.00    +0.000 A 
ATOM      9  C   UNL     1       2.170   7.917  18.747  0.00  0.00    +0.000 A 
ATOM     10  C   UNL     1       2.098   8.966  17.810  0.00  0.00    +0.000 A 
ATOM     11  C   UNL     1       1.487  10.171  18.172  0.00  0.00    +0.000 A 
ATOM     12  C   UNL     1       0.946  10.334  19.446  0.00  0.00    +0.000 A 
ATOM     13  C   UNL     1       0.987   9.296  20.387  0.00  0.00    +0.000 A 
ATOM     14  C   UNL     1       1.607   8.096  20.010  0.00  0.00    +0.000 A 
ATOM     15  N   UNL     1       1.817   6.928  20.718  0.00  0.00    +0.000 N 
ATOM     16  H   UNL     1       1.522   6.782  21.674  0.00  0.00    +0.000 HD
ENDBRANCH   6   7
ENDBRANCH   3   6
ENDBRANCH   1   3
BRANCH   1  17
ATOM     17  C   UNL     1       2.107   1.892  18.766  0.00  0.00    +0.000 C 
BRANCH  17  18
ATOM     18  C   UNL     1       3.005   1.955  17.514  0.00  0.00    +0.000 C 
BRANCH  18  19
ATOM     19  O   UNL     1       4.231   1.238  17.758  0.00  0.00    +0.000 OA
ATOM     20  H   UNL     1       4.858   1.472  17.053  0.00  0.00    +0.000 HD
ENDBRANCH  18  19
BRANCH  18  21
ATOM     21  C   UNL     1       3.347   3.404  17.124  0.00  0.00    +0.000 C 
BRANCH  21  22
ATOM     22  O   UNL     1       4.651   3.782  17.553  0.00  0.00    +0.000 OA
BRANCH  22  28
ATOM     23  C   UNL     1       6.578   5.169  16.776  0.00  0.00    +0.000 A 
ATOM     24  C   UNL     1       7.366   5.507  15.648  0.00  0.00    +0.000 A 
ATOM     25  C   UNL     1       7.121   4.960  14.389  0.00  0.00    +0.000 A 
ATOM     26  C   UNL     1       6.086   4.049  14.228  0.00  0.00    +0.000 A 
ATOM     27  C   UNL     1       5.293   3.704  15.325  0.00  0.00    +0.000 A 
ATOM     28  C   UNL     1       5.507   4.271  16.594  0.00  0.00    +0.000 A 
BRANCH  23  30
ATOM     29  C   UNL     1       7.684   7.149  17.948  0.00  0.00    +0.000 C 
ATOM     30  C   UNL     1       6.994   5.794  18.087  0.00  0.00    +0.000 C 
ENDBRANCH  23  30
ENDBRANCH  22  28
ENDBRANCH  21  22
ENDBRANCH  18  21
ENDBRANCH  17  18
ENDBRANCH   1  17
TORSDOF 10
ENDMDL
MODEL 2
REMARK VINA RESULT:      -7.5      4.402      7.414
REMARK  Name = 
REMARK  13 active torsions:
REMARK  status: ('A' for Active; 'I' for Inactive)
REMARK    1  A    between atoms: C_1  and  C_2
REMARK    2  A    between atoms: C_2  and  C_3
REMARK    3  A    between atoms: C_8  and  O_9
REMARK    4  A    between atoms: O_9  and  C_10
REMARK    5  A    between atoms: C_10  and  C_11
REMARK    6  A    between atoms: C_11  and  O_12
REMARK    7  A    between atoms: C_11  and  C_13
REMARK    8  A    between atoms: C_13  and  N_14
REMARK    9  A    between atoms: N_14  and  C_15
REMARK   10  A    between atoms: C_15  and  C_16
REMARK   11  A    between atoms: C_15  and  C_17
REMARK   12  A    between atoms: C_15  and  C_18
REMARK   13  A    between atoms: C_18  and  C_19
REMARK                            x       y       z     vdW  Elec       q    Type
REMARK                         _______ _______ _______ _____ _____    ______ ____
ROOT
ATOM      1  N   UNL     1       7.472   6.490  16.479  0.00  0.00    +0.000 NA
ATOM      2  H   UNL     1       8.160   5.982  17.041  0.00  0.00    +0.000 HD
ENDROOT
BRANCH   1   3
ATOM      3  C   UNL     1       6.281   5.638  16.207  0.00  0.00    +0.000 C 
ATOM      4  C   UNL     1       5.010   6.499  16.095  0.00  0.00    +0.000 C 
ATOM      5  C   UNL     1       6.504   4.862  14.896  0.00  0.00    +0.000 C 
BRANCH   3   6
ATOM      6  C   UNL     1       6.181   4.633  17.404  0.00  0.00    +0.000 C 
BRANCH   6   7
ATOM      7  C   UNL     1       4.849   4.499  18.095  0.00  0.00    +0.000 A 
ATOM      8  C   UNL     1       4.411   5.036  19.292  0.00  0.00    +0.000 A 
ATOM      9  C   UNL     1       3.152   4.463  19.611  0.00  0.00    +0.000 A 
ATOM     10  C   UNL     1       2.272   4.588  20.704  0.00  0.00    +0.000 A 
ATOM     11  C   UNL     1       1.111   3.808  20.743  0.00  0.00    +0.000 A 
ATOM     12  C   UNL     1       0.820   2.920  19.711  0.00  0.00    +0.000 A 
ATOM     13  C   UNL     1       1.670   2.795  18.603  0.00  0.00    +0.000 A 
ATOM     14  C   UNL     1       2.832   3.580  18.580  0.00  0.00    +0.000 A 
ATOM     15  N   UNL     1       3.853   3.654  17.651  0.00  0.00    +0.000 N 
ATOM     16  H   UNL     1       3.888   3.107  16.801  0.00  0.00    +0.000 HD
ENDBRANCH   6   7
ENDBRANCH   3   6
ENDBRANCH   1   3
BRANCH   1  17
ATOM     17  C   UNL     1       7.226   7.793  17.119  0.00  0.00    +0.000 C 
BRANCH  17  18
ATOM     18  C   UNL     1       8.466   8.274  17.898  0.00  0.00    +0.000 C 
BRANCH  18  19
ATOM     19  O   UNL     1       8.622   7.492  19.097  0.00  0.00    +0.000 OA
ATOM     20  H   UNL     1       8.497   6.557  18.862  0.00  0.00    +0.000 HD
ENDBRANCH  18  19
BRANCH  18  21
ATOM     21  C   UNL     1       8.362   9.760  18.285  0.00  0.00    +0.000 C 
BRANCH  21  22
ATOM     22  O   UNL     1       9.149  10.074  19.429  0.00  0.00    +0.000 OA
BRANCH  22  28
ATOM     23  C   UNL     1      10.236  12.145  20.307  0.00  0.00    +0.000 A 
ATOM     24  C   UNL     1      11.182  13.157  20.011  0.00  0.00    +0.000 A 
ATOM     25  C   UNL     1      11.879  13.181  18.803  0.00  0.00    +0.000 A 
ATOM     26  C   UNL     1      11.655  12.185  17.864  0.00  0.00    +0.000 A 
ATOM     27  C   UNL     1      10.723  11.179  18.132  0.00  0.00    +0.000 A 
ATOM     28  C   UNL     1       9.989  11.159  19.331  0.00  0.00    +0.000 A 
BRANCH  23  30
ATOM     29  C   UNL     1       9.290  13.628  22.157  0.00  0.00    +0.000 C 
ATOM     30  C   UNL     1       9.599  12.213  21.675  0.00  0.00    +0.000 C 
ENDBRANCH  23  30
ENDBRANCH  22  28
ENDBRANCH  21  22
ENDBRANCH  18  21
ENDBRANCH  17  18
ENDBRANCH   1  17
TORSDOF 10
ENDMDL
MODEL 3
REMARK VINA RESULT:      -7.3      2.113      5.743
REMARK  Name = 
REMARK  13 active torsions:
REMARK  status: ('A' for Active; 'I' for Inactive)
REMARK    1  A    between atoms: C_1  and  C_2
REMARK    2  A    between atoms: C_2  and  C_3
REMARK    3  A    between atoms: C_8  and  O_9
REMARK    4  A    between atoms: O_9  and  C_10
REMARK    5  A    between atoms: C_10  and  C_11
REMARK    6  A    between atoms: C_11  and  O_12
REMARK    7  A    between atoms: C_11  and  C_13
REMARK    8  A    between atoms: C_13  and  N_14
REMARK    9  A    between atoms: N_14  and  C_15
REMARK   10  A    between atoms: C_15  and  C_16
REMARK   11  A    between atoms: C_15  and  C_17
REMARK   12  A    between atoms: C_15  and  C_18
REMARK   13  A    between atoms: C_18  and  C_19
REMARK                            x       y       z     vdW  Elec       q    Type
REMARK                         _______ _______ _______ _____ _____    ______ ____
ROOT
ATOM      1  N   UNL     1       3.058   3.448  19.272  0.00  0.00    +0.000 NA
ATOM      2  H   UNL     1       3.837   4.112  19.281  0.00  0.00    +0.000 HD
ENDROOT
BRANCH   1   3
ATOM      3  C   UNL     1       3.178   2.509  18.123  0.00  0.00    +0.000 C 
ATOM      4  C   UNL     1       4.078   1.315  18.488  0.00  0.00    +0.000 C 
ATOM      5  C   UNL     1       1.777   2.007  17.731  0.00  0.00    +0.000 C 
BRANCH   3   6
ATOM      6  C   UNL     1       3.790   3.339  16.944  0.00  0.00    +0.000 C 
BRANCH   6   7
ATOM      7  C   UNL     1       4.714   4.476  17.295  0.00  0.00    +0.000 A 
ATOM      8  C   UNL     1       4.882   5.705  16.684  0.00  0.00    +0.000 A 
ATOM      9  C   UNL     1       6.007   6.348  17.264  0.00  0.00    +0.000 A 
ATOM     10  C   UNL     1       6.669   7.568  17.018  0.00  0.00    +0.000 A 
ATOM     11  C   UNL     1       7.823   7.882  17.743  0.00  0.00    +0.000 A 
ATOM     12  C   UNL     1       8.314   7.003  18.706  0.00  0.00    +0.000 A 
ATOM     13  C   UNL     1       7.660   5.795  18.983  0.00  0.00    +0.000 A 
ATOM     14  C   UNL     1       6.507   5.492  18.245  0.00  0.00    +0.000 A 
ATOM     15  N   UNL     1       5.679   4.386  18.277  0.00  0.00    +0.000 N 
ATOM     16  H   UNL     1       5.814   3.593  18.891  0.00  0.00    +0.000 HD
ENDBRANCH   6   7
ENDBRANCH   3   6
ENDBRANCH   1   3
BRANCH   1  17
ATOM     17  C   UNL     1       2.949   2.849  20.613  0.00  0.00    +0.000 C 
BRANCH  17  18
ATOM     18  C   UNL     1       2.029   3.687  21.524  0.00  0.00    +0.000 C 
BRANCH  18  19
ATOM     19  O   UNL     1       0.949   2.867  22.011  0.00  0.00    +0.000 OA
ATOM     20  H   UNL     1       0.560   3.315  22.782  0.00  0.00    +0.000 HD
ENDBRANCH  18  19
BRANCH  18  21
ATOM     21  C   UNL     1       1.436   4.899  20.784  0.00  0.00    +0.000 C 
BRANCH  21  22
ATOM     22  O   UNL     1       2.281   6.042  20.860  0.00  0.00    +0.000 OA
BRANCH  22  28
ATOM     23  C   UNL     1       1.301   8.305  20.463  0.00  0.00    +0.000 A 
ATOM     24  C   UNL     1       1.099   9.311  19.486  0.00  0.00    +0.000 A 
ATOM     25  C   UNL     1       1.545   9.162  18.173  0.00  0.00    +0.000 A 
ATOM     26  C   UNL     1       2.216   8.005  17.806  0.00  0.00    +0.000 A 
ATOM     27  C   UNL     1       2.423   6.996  18.751  0.00  0.00    +0.000 A 
ATOM     28  C   UNL     1       1.951   7.118  20.070  0.00  0.00    +0.000 A 
BRANCH  23  30
ATOM     29  C   UNL     1       0.455  10.094  22.075  0.00  0.00    +0.000 C 
ATOM     30  C   UNL     1       0.815   8.627  21.856  0.00  0.00    +0.000 C 
ENDBRANCH  23  30
ENDBRANCH  22  28
ENDBRANCH  21  22
ENDBRANCH  18  21
ENDBRANCH  17  18
ENDBRANCH   1  17
TORSDOF 10
ENDMDL
MODEL 4
REMARK VINA RESULT:      -7.2      4.021      7.079
REMARK  Name = 
REMARK  13 active torsions:
REMARK  status: ('A' for Active; 'I' for Inactive)
REMARK    1  A    between atoms: C_1  and  C_2
REMARK    2  A    between atoms: C_2  and  C_3
REMARK    3  A    between atoms: C_8  and  O_9
REMARK    4  A    between atoms: O_9  and  C_10
REMARK    5  A    between atoms: C_10  and  C_11
REMARK    6  A    between atoms: C_11  and  O_12
REMARK    7  A    between atoms: C_11  and  C_13
REMARK    8  A    between atoms: C_13  and  N_14
REMARK    9  A    between atoms: N_14  and  C_15
REMARK   10  A    between atoms: C_15  and  C_16
REMARK   11  A    between atoms: C_15  and  C_17
REMARK   12  A    between atoms: C_15  and  C_18
REMARK   13  A    between atoms: C_18  and  C_19
REMARK                            x       y       z     vdW  Elec       q    Type
REMARK                         _______ _______ _______ _____ _____    ______ ____
ROOT
ATOM      1  N   UNL     1       6.674   6.663  16.275  0.00  0.00    +0.000 NA
ATOM      2  H   UNL     1       7.562   6.797  15.783  0.00  0.00    +0.000 HD
ENDROOT
BRANCH   1   3
ATOM      3  C   UNL     1       6.290   5.224  16.288  0.00  0.00    +0.000 C 
ATOM      4  C   UNL     1       6.860   4.498  15.056  0.00  0.00    +0.000 C 
ATOM      5  C   UNL     1       6.826   4.570  17.575  0.00  0.00    +0.000 C 
BRANCH   3   6
ATOM      6  C   UNL     1       4.724   5.190  16.292  0.00  0.00    +0.000 C 
BRANCH   6   7
ATOM      7  C   UNL     1       4.041   4.545  17.469  0.00  0.00    +0.000 A 
ATOM      8  C   UNL     1       3.505   3.276  17.599  0.00  0.00    +0.000 A 
ATOM      9  C   UNL     1       2.799   3.209  18.829  0.00  0.00    +0.000 A 
ATOM     10  C   UNL     1       2.029   2.210  19.458  0.00  0.00    +0.000 A 
ATOM     11  C   UNL     1       1.393   2.495  20.671  0.00  0.00    +0.000 A 
ATOM     12  C   UNL     1       1.522   3.751  21.259  0.00  0.00    +0.000 A 
ATOM     13  C   UNL     1       2.301   4.753  20.662  0.00  0.00    +0.000 A 
ATOM     14  C   UNL     1       2.929   4.453  19.444  0.00  0.00    +0.000 A 
ATOM     15  N   UNL     1       3.724   5.230  18.624  0.00  0.00    +0.000 N 
ATOM     16  H   UNL     1       3.974   6.191  18.819  0.00  0.00    +0.000 HD
ENDBRANCH   6   7
ENDBRANCH   3   6
ENDBRANCH   1   3
BRANCH   1  17
ATOM     17  C   UNL     1       6.762   7.341  17.579  0.00  0.00    +0.000 C 
BRANCH  17  18
ATOM     18  C   UNL     1       8.174   7.913  17.815  0.00  0.00    +0.000 C 
BRANCH  18  19
ATOM     19  O   UNL     1       8.625   7.566  19.139  0.00  0.00    +0.000 OA
ATOM     20  H   UNL     1       9.560   7.820  19.211  0.00  0.00    +0.000 HD
ENDBRANCH  18  19
BRANCH  18  21
ATOM     21  C   UNL     1       8.206   9.444  17.665  0.00  0.00    +0.000 C 
BRANCH  21  22
ATOM     22  O   UNL     1       8.341  10.104  18.919  0.00  0.00    +0.000 OA
BRANCH  22  28
ATOM     23  C   UNL     1       9.957  11.400  20.315  0.00  0.00    +0.000 A 
ATOM     24  C   UNL     1      11.171  12.131  20.284  0.00  0.00    +0.000 A 
ATOM     25  C   UNL     1      11.887  12.315  19.102  0.00  0.00    +0.000 A 
ATOM     26  C   UNL     1      11.414  11.760  17.921  0.00  0.00    +0.000 A 
ATOM     27  C   UNL     1      10.218  11.039  17.928  0.00  0.00    +0.000 A 
ATOM     28  C   UNL     1       9.467  10.872  19.104  0.00  0.00    +0.000 A 
BRANCH  23  30
ATOM     29  C   UNL     1       8.748  12.521  22.264  0.00  0.00    +0.000 C 
ATOM     30  C   UNL     1       9.319  11.234  21.675  0.00  0.00    +0.000 C 
ENDBRANCH  23  30
ENDBRANCH  22  28
ENDBRANCH  21  22
ENDBRANCH  18  21
ENDBRANCH  17  18
ENDBRANCH   1  17
TORSDOF 10
ENDMDL
MODEL 5
REMARK VINA RESULT:      -7.2      0.850      1.949
REMARK  Name = 
REMARK  13 active torsions:
REMARK  status: ('A' for Active; 'I' for Inactive)
REMARK    1  A    between atoms: C_1  and  C_2
REMARK    2  A    between atoms: C_2  and  C_3
REMARK    3  A    between atoms: C_8  and  O_9
REMARK    4  A    between atoms: O_9  and  C_10
REMARK    5  A    between atoms: C_10  and  C_11
REMARK    6  A    between atoms: C_11  and  O_12
REMARK    7  A    between atoms: C_11  and  C_13
REMARK    8  A    between atoms: C_13  and  N_14
REMARK    9  A    between atoms: N_14  and  C_15
REMARK   10  A    between atoms: C_15  and  C_16
REMARK   11  A    between atoms: C_15  and  C_17
REMARK   12  A    between atoms: C_15  and  C_18
REMARK   13  A    between atoms: C_18  and  C_19
REMARK                            x       y       z     vdW  Elec       q    Type
REMARK                         _______ _______ _______ _____ _____    ______ ____
ROOT
ATOM      1  N   UNL     1       2.822   2.999  19.918  0.00  0.00    +0.000 NA
ATOM      2  H   UNL     1       3.252   3.741  19.360  0.00  0.00    +0.000 HD
ENDROOT
BRANCH   1   3
ATOM      3  C   UNL     1       1.762   3.553  20.805  0.00  0.00    +0.000 C 
ATOM      4  C   UNL     1       0.443   3.728  20.031  0.00  0.00    +0.000 C 
ATOM      5  C   UNL     1       1.548   2.600  21.995  0.00  0.00    +0.000 C 
BRANCH   3   6
ATOM      6  C   UNL     1       2.302   4.930  21.322  0.00  0.00    +0.000 C 
BRANCH   6   7
ATOM      7  C   UNL     1       2.042   6.146  20.473  0.00  0.00    +0.000 A 
ATOM      8  C   UNL     1       2.507   6.463  19.209  0.00  0.00    +0.000 A 
ATOM      9  C   UNL     1       2.142   7.804  18.917  0.00  0.00    +0.000 A 
ATOM     10  C   UNL     1       2.380   8.664  17.826  0.00  0.00    +0.000 A 
ATOM     11  C   UNL     1       1.928   9.986  17.883  0.00  0.00    +0.000 A 
ATOM     12  C   UNL     1       1.242  10.452  19.003  0.00  0.00    +0.000 A 
ATOM     13  C   UNL     1       0.975   9.608  20.090  0.00  0.00    +0.000 A 
ATOM     14  C   UNL     1       1.439   8.286  20.020  0.00  0.00    +0.000 A 
ATOM     15  N   UNL     1       1.351   7.250  20.929  0.00  0.00    +0.000 N 
ATOM     16  H   UNL     1       0.900   7.323  21.832  0.00  0.00    +0.000 HD
ENDBRANCH   6   7
ENDBRANCH   3   6
ENDBRANCH   1   3
BRANCH   1  17
ATOM     17  C   UNL     1       2.428   1.909  19.011  0.00  0.00    +0.000 C 
BRANCH  17  18
ATOM     18  C   UNL     1       3.659   1.285  18.323  0.00  0.00    +0.000 C 
BRANCH  18  19
ATOM     19  O   UNL     1       4.709   1.088  19.289  0.00  0.00    +0.000 OA
ATOM     20  H   UNL     1       4.397   0.436  19.940  0.00  0.00    +0.000 HD
ENDBRANCH  18  19
BRANCH  18  21
ATOM     21  C   UNL     1       4.193   2.173  17.185  0.00  0.00    +0.000 C 
BRANCH  21  22
ATOM     22  O   UNL     1       4.062   3.560  17.478  0.00  0.00    +0.000 OA
BRANCH  22  28
ATOM     23  C   UNL     1       6.008   4.753  16.464  0.00  0.00    +0.000 A 
ATOM     24  C   UNL     1       7.146   5.545  16.757  0.00  0.00    +0.000 A 
ATOM     25  C   UNL     1       7.482   5.894  18.064  0.00  0.00    +0.000 A 
ATOM     26  C   UNL     1       6.679   5.471  19.114  0.00  0.00    +0.000 A 
ATOM     27  C   UNL     1       5.555   4.686  18.850  0.00  0.00    +0.000 A 
ATOM     28  C   UNL     1       5.220   4.298  17.541  0.00  0.00    +0.000 A 
BRANCH  23  30
ATOM     29  C   UNL     1       6.900   4.840  14.074  0.00  0.00    +0.000 C 
ATOM     30  C   UNL     1       5.736   4.500  15.000  0.00  0.00    +0.000 C 
ENDBRANCH  23  30
ENDBRANCH  22  28
ENDBRANCH  21  22
ENDBRANCH  18  21
ENDBRANCH  17  18
ENDBRANCH   1  17
TORSDOF 10
ENDMDL
MODEL 6
REMARK VINA RESULT:      -7.1      2.196      6.689
REMARK  Name = 
REMARK  13 active torsions:
REMARK  status: ('A' for Active; 'I' for Inactive)
REMARK    1  A    between atoms: C_1  and  C_2
REMARK    2  A    between atoms: C_2  and  C_3
REMARK    3  A    between atoms: C_8  and  O_9
REMARK    4  A    between atoms: O_9  and  C_10
REMARK    5  A    between atoms: C_10  and  C_11
REMARK    6  A    between atoms: C_11  and  O_12
REMARK    7  A    between atoms: C_11  and  C_13
REMARK    8  A    between atoms: C_13  and  N_14
REMARK    9  A    between atoms: N_14  and  C_15
REMARK   10  A    between atoms: C_15  and  C_16
REMARK   11  A    between atoms: C_15  and  C_17
REMARK   12  A    between atoms: C_15  and  C_18
REMARK   13  A    between atoms: C_18  and  C_19
REMARK                            x       y       z     vdW  Elec       q    Type
REMARK                         _______ _______ _______ _____ _____    ______ ____
ROOT
ATOM      1  N   UNL     1       5.562   3.815  18.882  0.00  0.00    +0.000 NA
ATOM      2  H   UNL     1       6.194   3.053  19.144  0.00  0.00    +0.000 HD
ENDROOT
BRANCH   1   3
ATOM      3  C   UNL     1       6.333   5.012  18.445  0.00  0.00    +0.000 C 
ATOM      4  C   UNL     1       5.406   6.038  17.768  0.00  0.00    +0.000 C 
ATOM      5  C   UNL     1       7.014   5.650  19.669  0.00  0.00    +0.000 C 
BRANCH   3   6
ATOM      6  C   UNL     1       7.422   4.489  17.448  0.00  0.00    +0.000 C 
BRANCH   6   7
ATOM      7  C   UNL     1       7.078   4.474  15.981  0.00  0.00    +0.000 A 
ATOM      8  C   UNL     1       6.228   3.640  15.277  0.00  0.00    +0.000 A 
ATOM      9  C   UNL     1       6.390   3.898  13.890  0.00  0.00    +0.000 A 
ATOM     10  C   UNL     1       5.838   3.335  12.722  0.00  0.00    +0.000 A 
ATOM     11  C   UNL     1       6.274   3.784  11.471  0.00  0.00    +0.000 A 
ATOM     12  C   UNL     1       7.239   4.783  11.375  0.00  0.00    +0.000 A 
ATOM     13  C   UNL     1       7.786   5.373  12.523  0.00  0.00    +0.000 A 
ATOM     14  C   UNL     1       7.342   4.910  13.770  0.00  0.00    +0.000 A 
ATOM     15  N   UNL     1       7.709   5.274  15.051  0.00  0.00    +0.000 N 
ATOM     16  H   UNL     1       8.400   5.982  15.265  0.00  0.00    +0.000 HD
ENDBRANCH   6   7
ENDBRANCH   3   6
ENDBRANCH   1   3
BRANCH   1  17
ATOM     17  C   UNL     1       4.565   3.283  17.938  0.00  0.00    +0.000 C 
BRANCH  17  18
ATOM     18  C   UNL     1       3.679   2.214  18.608  0.00  0.00    +0.000 C 
BRANCH  18  19
ATOM     19  O   UNL     1       4.290   0.917  18.465  0.00  0.00    +0.000 OA
ATOM     20  H   UNL     1       5.034   1.004  17.846  0.00  0.00    +0.000 HD
ENDBRANCH  18  19
BRANCH  18  21
ATOM     21  C   UNL     1       2.269   2.169  17.993  0.00  0.00    +0.000 C 
BRANCH  21  22
ATOM     22  O   UNL     1       1.319   2.888  18.772  0.00  0.00    +0.000 OA
BRANCH  22  28
ATOM     23  C   UNL     1       2.039   4.693  20.341  0.00  0.00    +0.000 A 
ATOM     24  C   UNL     1       2.355   6.071  20.436  0.00  0.00    +0.000 A 
ATOM     25  C   UNL     1       2.290   6.918  19.330  0.00  0.00    +0.000 A 
ATOM     26  C   UNL     1       1.920   6.404  18.096  0.00  0.00    +0.000 A 
ATOM     27  C   UNL     1       1.600   5.049  17.979  0.00  0.00    +0.000 A 
ATOM     28  C   UNL     1       1.629   4.190  19.091  0.00  0.00    +0.000 A 
BRANCH  23  30
ATOM     29  C   UNL     1       1.404   2.590  21.641  0.00  0.00    +0.000 C 
ATOM     30  C   UNL     1       2.208   3.887  21.607  0.00  0.00    +0.000 C 
ENDBRANCH  23  30
ENDBRANCH  22  28
ENDBRANCH  21  22
ENDBRANCH  18  21
ENDBRANCH  17  18
ENDBRANCH   1  17
TORSDOF 10
ENDMDL
MODEL 7
REMARK VINA RESULT:      -7.1      2.146      7.194
REMARK  Name = 
REMARK  13 active torsions:
REMARK  status: ('A' for Active; 'I' for Inactive)
REMARK    1  A    between atoms: C_1  and  C_2
REMARK    2  A    between atoms: C_2  and  C_3
REMARK    3  A    between atoms: C_8  and  O_9
REMARK    4  A    between atoms: O_9  and  C_10
REMARK    5  A    between atoms: C_10  and  C_11
REMARK    6  A    between atoms: C_11  and  O_12
REMARK    7  A    between atoms: C_11  and  C_13
REMARK    8  A    between atoms: C_13  and  N_14
REMARK    9  A    between atoms: N_14  and  C_15
REMARK   10  A    between atoms: C_15  and  C_16
REMARK   11  A    between atoms: C_15  and  C_17
REMARK   12  A    between atoms: C_15  and  C_18
REMARK   13  A    between atoms: C_18  and  C_19
REMARK                            x       y       z     vdW  Elec       q    Type
REMARK                         _______ _______ _______ _____ _____    ______ ____
ROOT
ATOM      1  N   UNL     1       4.969   5.714  17.559  0.00  0.00    +0.000 NA
ATOM      2  H   UNL     1       4.300   5.113  18.048  0.00  0.00    +0.000 HD
ENDROOT
BRANCH   1   3
ATOM      3  C   UNL     1       5.698   4.948  16.510  0.00  0.00    +0.000 C 
ATOM      4  C   UNL     1       5.589   5.655  15.147  0.00  0.00    +0.000 C 
ATOM      5  C   UNL     1       7.177   4.818  16.915  0.00  0.00    +0.000 C 
BRANCH   3   6
ATOM      6  C   UNL     1       5.035   3.530  16.467  0.00  0.00    +0.000 C 
BRANCH   6   7
ATOM      7  C   UNL     1       4.049   3.185  17.552  0.00  0.00    +0.000 A 
ATOM      8  C   UNL     1       2.666   3.165  17.522  0.00  0.00    +0.000 A 
ATOM      9  C   UNL     1       2.188   2.969  18.844  0.00  0.00    +0.000 A 
ATOM     10  C   UNL     1       0.903   2.912  19.419  0.00  0.00    +0.000 A 
ATOM     11  C   UNL     1       0.775   2.771  20.805  0.00  0.00    +0.000 A 
ATOM     12  C   UNL     1       1.906   2.679  21.613  0.00  0.00    +0.000 A 
ATOM     13  C   UNL     1       3.194   2.711  21.061  0.00  0.00    +0.000 A 
ATOM     14  C   UNL     1       3.306   2.858  19.671  0.00  0.00    +0.000 A 
ATOM     15  N   UNL     1       4.421   2.945  18.859  0.00  0.00    +0.000 N 
ATOM     16  H   UNL     1       5.373   2.908  19.197  0.00  0.00    +0.000 HD
ENDBRANCH   6   7
ENDBRANCH   3   6
ENDBRANCH   1   3
BRANCH   1  17
ATOM     17  C   UNL     1       4.265   6.932  17.126  0.00  0.00    +0.000 C 
BRANCH  17  18
ATOM     18  C   UNL     1       3.148   7.312  18.119  0.00  0.00    +0.000 C 
BRANCH  18  19
ATOM     19  O   UNL     1       2.107   6.315  18.084  0.00  0.00    +0.000 OA
ATOM     20  H   UNL     1       2.526   5.452  17.932  0.00  0.00    +0.000 HD
ENDBRANCH  18  19
BRANCH  18  21
ATOM     21  C   UNL     1       2.531   8.684  17.793  0.00  0.00    +0.000 C 
BRANCH  21  22
ATOM     22  O   UNL     1       1.259   8.861  18.408  0.00  0.00    +0.000 OA
BRANCH  22  28
ATOM     23  C   UNL     1       0.584  10.072  20.485  0.00  0.00    +0.000 A 
ATOM     24  C   UNL     1       0.533  11.346  21.105  0.00  0.00    +0.000 A 
ATOM     25  C   UNL     1       0.985  12.496  20.460  0.00  0.00    +0.000 A 
ATOM     26  C   UNL     1       1.512  12.400  19.180  0.00  0.00    +0.000 A 
ATOM     27  C   UNL     1       1.568  11.156  18.547  0.00  0.00    +0.000 A 
ATOM     28  C   UNL     1       1.086   9.992  19.171  0.00  0.00    +0.000 A 
BRANCH  23  30
ATOM     29  C   UNL     1      -0.362   9.290  22.724  0.00  0.00    +0.000 C 
ATOM     30  C   UNL     1       0.112   8.908  21.324  0.00  0.00    +0.000 C 
ENDBRANCH  23  30
ENDBRANCH  22  28
ENDBRANCH  21  22
ENDBRANCH  18  21
ENDBRANCH  17  18
ENDBRANCH   1  17
TORSDOF 10
ENDMDL
MODEL 8
REMARK VINA RESULT:      -7.1      4.160      7.183
REMARK  Name = 
REMARK  13 active torsions:
REMARK  status: ('A' for Active; 'I' for Inactive)
REMARK    1  A    between atoms: C_1  and  C_2
REMARK    2  A    between atoms: C_2  and  C_3
REMARK    3  A    between atoms: C_8  and  O_9
REMARK    4  A    between atoms: O_9  and  C_10
REMARK    5  A    between atoms: C_10  and  C_11
REMARK    6  A    between atoms: C_11  and  O_12
REMARK    7  A    between atoms: C_11  and  C_13
REMARK    8  A    between atoms: C_13  and  N_14
REMARK    9  A    between atoms: N_14  and  C_15
REMARK   10  A    between atoms: C_15  and  C_16
REMARK   11  A    between atoms: C_15  and  C_17
REMARK   12  A    between atoms: C_15  and  C_18
REMARK   13  A    between atoms: C_18  and  C_19
REMARK                            x       y       z     vdW  Elec       q    Type
REMARK                         _______ _______ _______ _____ _____    ______ ____
ROOT
ATOM      1  N   UNL     1       7.447   6.349  16.469  0.00  0.00    +0.000 NA
ATOM      2  H   UNL     1       8.277   6.003  15.980  0.00  0.00    +0.000 HD
ENDROOT
BRANCH   1   3
ATOM      3  C   UNL     1       6.317   5.387  16.336  0.00  0.00    +0.000 C 
ATOM      4  C   UNL     1       4.978   6.136  16.211  0.00  0.00    +0.000 C 
ATOM      5  C   UNL     1       6.544   4.510  15.092  0.00  0.00    +0.000 C 
BRANCH   3   6
ATOM      6  C   UNL     1       6.350   4.497  17.624  0.00  0.00    +0.000 C 
BRANCH   6   7
ATOM      7  C   UNL     1       5.031   4.067  18.211  0.00  0.00    +0.000 A 
ATOM      8  C   UNL     1       4.092   3.173  17.727  0.00  0.00    +0.000 A 
ATOM      9  C   UNL     1       2.931   3.255  18.539  0.00  0.00    +0.000 A 
ATOM     10  C   UNL     1       1.667   2.633  18.500  0.00  0.00    +0.000 A 
ATOM     11  C   UNL     1       0.693   2.995  19.436  0.00  0.00    +0.000 A 
ATOM     12  C   UNL     1       0.967   3.958  20.405  0.00  0.00    +0.000 A 
ATOM     13  C   UNL     1       2.225   4.574  20.477  0.00  0.00    +0.000 A 
ATOM     14  C   UNL     1       3.189   4.203  19.529  0.00  0.00    +0.000 A 
ATOM     15  N   UNL     1       4.484   4.646  19.337  0.00  0.00    +0.000 N 
ATOM     16  H   UNL     1       4.933   5.351  19.907  0.00  0.00    +0.000 HD
ENDBRANCH   6   7
ENDBRANCH   3   6
ENDBRANCH   1   3
BRANCH   1  17
ATOM     17  C   UNL     1       7.841   6.728  17.836  0.00  0.00    +0.000 C 
BRANCH  17  18
ATOM     18  C   UNL     1       7.557   8.219  18.104  0.00  0.00    +0.000 C 
BRANCH  18  19
ATOM     19  O   UNL     1       7.068   8.845  16.902  0.00  0.00    +0.000 OA
ATOM     20  H   UNL     1       7.800   8.879  16.264  0.00  0.00    +0.000 HD
ENDBRANCH  18  19
BRANCH  18  21
ATOM     21  C   UNL     1       8.815   8.969  18.576  0.00  0.00    +0.000 C 
BRANCH  21  22
ATOM     22  O   UNL     1       8.688  10.379  18.429  0.00  0.00    +0.000 OA
BRANCH  22  28
ATOM     23  C   UNL     1      10.061  11.570  20.143  0.00  0.00    +0.000 A 
ATOM     24  C   UNL     1      11.243  12.325  20.342  0.00  0.00    +0.000 A 
ATOM     25  C   UNL     1      12.104  12.633  19.290  0.00  0.00    +0.000 A 
ATOM     26  C   UNL     1      11.811  12.183  18.011  0.00  0.00    +0.000 A 
ATOM     27  C   UNL     1      10.648  11.441  17.790  0.00  0.00    +0.000 A 
ATOM     28  C   UNL     1       9.754  11.149  18.834  0.00  0.00    +0.000 A 
BRANCH  23  30
ATOM     29  C   UNL     1       8.594  12.482  22.023  0.00  0.00    +0.000 C 
ATOM     30  C   UNL     1       9.254  11.264  21.383  0.00  0.00    +0.000 C 
ENDBRANCH  23  30
ENDBRANCH  22  28
ENDBRANCH  21  22
ENDBRANCH  18  21
ENDBRANCH  17  18
ENDBRANCH   1  17
TORSDOF 10
ENDMDL
MODEL 9
REMARK VINA RESULT:      -7.0      1.092      1.215
REMARK  Name = 
REMARK  13 active torsions:
REMARK  status: ('A' for Active; 'I' for Inactive)
REMARK    1  A    between atoms: C_1  and  C_2
REMARK    2  A    between atoms: C_2  and  C_3
REMARK    3  A    between atoms: C_8  and  O_9
REMARK    4  A    between atoms: O_9  and  C_10
REMARK    5  A    between atoms: C_10  and  C_11
REMARK    6  A    between atoms: C_11  and  O_12
REMARK    7  A    between atoms: C_11  and  C_13
REMARK    8  A    between atoms: C_13  and  N_14
REMARK    9  A    between atoms: N_14  and  C_15
REMARK   10  A    between atoms: C_15  and  C_16
REMARK   11  A    between atoms: C_15  and  C_17
REMARK   12  A    between atoms: C_15  and  C_18
REMARK   13  A    between atoms: C_18  and  C_19
REMARK                            x       y       z     vdW  Elec       q    Type
REMARK                         _______ _______ _______ _____ _____    ______ ____
ROOT
ATOM      1  N   UNL     1       2.812   2.539  19.696  0.00  0.00    +0.000 NA
ATOM      2  H   UNL     1       2.521   1.559  19.647  0.00  0.00    +0.000 HD
ENDROOT
BRANCH   1   3
ATOM      3  C   UNL     1       1.877   3.325  20.548  0.00  0.00    +0.000 C 
ATOM      4  C   UNL     1       0.583   3.648  19.779  0.00  0.00    +0.000 C 
ATOM      5  C   UNL     1       1.545   2.516  21.814  0.00  0.00    +0.000 C 
BRANCH   3   6
ATOM      6  C   UNL     1       2.642   4.634  20.942  0.00  0.00    +0.000 C 
BRANCH   6   7
ATOM      7  C   UNL     1       2.254   5.909  20.241  0.00  0.00    +0.000 A 
ATOM      8  C   UNL     1       2.586   6.365  18.978  0.00  0.00    +0.000 A 
ATOM      9  C   UNL     1       2.140   7.707  18.851  0.00  0.00    +0.000 A 
ATOM     10  C   UNL     1       2.240   8.675  17.832  0.00  0.00    +0.000 A 
ATOM     11  C   UNL     1       1.741   9.962  18.056  0.00  0.00    +0.000 A 
ATOM     12  C   UNL     1       1.143  10.287  19.272  0.00  0.00    +0.000 A 
ATOM     13  C   UNL     1       1.014   9.334  20.291  0.00  0.00    +0.000 A 
ATOM     14  C   UNL     1       1.523   8.049  20.053  0.00  0.00    +0.000 A 
ATOM     15  N   UNL     1       1.563   6.930  20.862  0.00  0.00    +0.000 N 
ATOM     16  H   UNL     1       1.196   6.896  21.804  0.00  0.00    +0.000 HD
ENDBRANCH   6   7
ENDBRANCH   3   6
ENDBRANCH   1   3
BRANCH   1  17
ATOM     17  C   UNL     1       4.238   2.578  20.062  0.00  0.00    +0.000 C 
BRANCH  17  18
ATOM     18  C   UNL     1       5.085   3.209  18.938  0.00  0.00    +0.000 C 
BRANCH  18  19
ATOM     19  O   UNL     1       5.695   4.425  19.412  0.00  0.00    +0.000 OA
ATOM     20  H   UNL     1       6.034   4.909  18.640  0.00  0.00    +0.000 HD
ENDBRANCH  18  19
BRANCH  18  21
ATOM     21  C   UNL     1       4.239   3.531  17.693  0.00  0.00    +0.000 C 
BRANCH  21  22
ATOM     22  O   UNL     1       4.572   4.794  17.129  0.00  0.00    +0.000 OA
BRANCH  22  28
ATOM     23  C   UNL     1       6.742   5.345  16.020  0.00  0.00    +0.000 A 
ATOM     24  C   UNL     1       7.492   5.190  14.828  0.00  0.00    +0.000 A 
ATOM     25  C   UNL     1       6.990   4.495  13.729  0.00  0.00    +0.000 A 
ATOM     26  C   UNL     1       5.727   3.925  13.798  0.00  0.00    +0.000 A 
ATOM     27  C   UNL     1       4.967   4.069  14.962  0.00  0.00    +0.000 A 
ATOM     28  C   UNL     1       5.446   4.794  16.067  0.00  0.00    +0.000 A 
BRANCH  23  30
ATOM     29  C   UNL     1       6.891   7.473  17.423  0.00  0.00    +0.000 C 
ATOM     30  C   UNL     1       7.434   6.073  17.149  0.00  0.00    +0.000 C 
ENDBRANCH  23  30
ENDBRANCH  22  28
ENDBRANCH  21  22
ENDBRANCH  18  21
ENDBRANCH  17  18
ENDBRANCH   1  17
TORSDOF 10
ENDMDL
