MODEL 1
REMARK VINA RESULT:      -9.5      0.000      0.000
REMARK  Name = 
REMARK  5 active torsions:
REMARK  status: ('A' for Active; 'I' for Inactive)
REMARK    1  A    between atoms: C_1  and  N_2
REMARK    2  A    between atoms: C_5  and  C_6
REMARK    3  A    between atoms: C_6  and  O_7
REMARK    4  A    between atoms: O_7  and  C_8
REMARK    5  A    between atoms: C_11  and  C_12
REMARK                            x       y       z     vdW  Elec       q    Type
REMARK                         _______ _______ _______ _____ _____    ______ ____
ROOT
ATOM      1  C   UNL     1       3.020   6.129  18.761  0.00  0.00    +0.000 A 
ATOM      2  N   UNL     1       3.891   6.295  17.802  0.00  0.00    +0.000 NA
ATOM      3  N   UNL     1       4.701   5.154  17.670  0.00  0.00    +0.000 N 
ATOM      4  C   UNL     1       5.971   5.010  17.115  0.00  0.00    +0.000 A 
ATOM      5  N   UNL     1       6.730   4.587  18.125  0.00  0.00    +0.000 NA
ATOM      6  N   UNL     1       5.913   3.840  18.937  0.00  0.00    +0.000 NA
ATOM      7  C   UNL     1       4.676   4.094  18.560  0.00  0.00    +0.000 A 
ATOM      8  C   UNL     1       3.451   3.802  19.158  0.00  0.00    +0.000 A 
ATOM      9  C   UNL     1       2.691   4.871  19.460  0.00  0.00    +0.000 A 
ATOM     10  C   UNL     1       1.573   4.594  20.435  0.00  0.00    +0.000 C 
ATOM     11  C   UNL     1       0.621   3.602  19.745  0.00  0.00    +0.000 C 
ATOM     12  C   UNL     1       1.425   2.377  19.247  0.00  0.00    +0.000 C 
ATOM     13  C   UNL     1       2.919   2.487  19.676  0.00  0.00    +0.000 C 
ATOM     14  C   UNL     1       2.975   2.590  21.203  0.00  0.00    +0.000 C 
ATOM     15  C   UNL     1       2.210   3.860  21.658  0.00  0.00    +0.000 C 
ENDROOT
BRANCH   4  16
ATOM     16  C   UNL     1       6.342   4.633  15.742  0.00  0.00    +0.000 A 
ATOM     17  C   UNL     1       7.444   5.167  15.062  0.00  0.00    +0.000 A 
ATOM     18  C   UNL     1       7.587   4.969  13.679  0.00  0.00    +0.000 A 
ATOM     19  C   UNL     1       6.636   4.239  12.962  0.00  0.00    +0.000 A 
ATOM     20  C   UNL     1       5.528   3.719  13.620  0.00  0.00    +0.000 A 
ATOM     21  C   UNL     1       5.385   3.916  14.994  0.00  0.00    +0.000 A 
ENDBRANCH   4  16
BRANCH   1  22
ATOM     22  O   UNL     1       2.233   7.096  19.286  0.00  0.00    +0.000 OA
BRANCH  22  23
ATOM     23  C   UNL     1       2.100   8.341  18.583  0.00  0.00    +0.000 C 
BRANCH  23  28
ATOM     24  C   UNL     1      -0.465  10.757  21.905  0.00  0.00    +0.000 C 
ATOM     25  N   UNL     1       0.038  10.271  20.649  0.00  0.00    +0.000 N 
ATOM     26  N   UNL     1      -0.355  10.795  19.478  0.00  0.00    +0.000 NA
ATOM     27  N   UNL     1       0.339  10.135  18.568  0.00  0.00    +0.000 NA
ATOM     28  C   UNL     1       1.141   9.245  19.256  0.00  0.00    +0.000 A 
ATOM     29  N   UNL     1       0.951   9.284  20.592  0.00  0.00    +0.000 NA
ENDBRANCH  23  28
ENDBRANCH  22  23
ENDBRANCH   1  22
TORSDOF 4
ENDMDL
MODEL 2
REMARK VINA RESULT:      -9.4      1.027      1.248
REMARK  Name = 
REMARK  5 active torsions:
REMARK  status: ('A' for Active; 'I' for Inactive)
REMARK    1  A    between atoms: C_1  and  N_2
REMARK    2  A    between atoms: C_5  and  C_6
REMARK    3  A    between atoms: C_6  and  O_7
REMARK    4  A    between atoms: O_7  and  C_8
REMARK    5  A    between atoms: C_11  and  C_12
REMARK                            x       y       z     vdW  Elec       q    Type
REMARK                         _______ _______ _______ _____ _____    ______ ____
ROOT
ATOM      1  C   UNL     1       3.182   6.005  17.920  0.00  0.00    +0.000 A 
ATOM      2  N   UNL     1       4.034   6.220  16.955  0.00  0.00    +0.000 NA
ATOM      3  N   UNL     1       4.965   5.171  16.877  0.00  0.00    +0.000 N 
ATOM      4  C   UNL     1       6.246   5.141  16.330  0.00  0.00    +0.000 A 
ATOM      5  N   UNL     1       7.042   4.853  17.359  0.00  0.00    +0.000 NA
ATOM      6  N   UNL     1       6.308   4.059  18.205  0.00  0.00    +0.000 NA
ATOM      7  C   UNL     1       5.052   4.158  17.817  0.00  0.00    +0.000 A 
ATOM      8  C   UNL     1       3.864   3.761  18.428  0.00  0.00    +0.000 A 
ATOM      9  C   UNL     1       2.989   4.752  18.678  0.00  0.00    +0.000 A 
ATOM     10  C   UNL     1       1.904   4.401  19.666  0.00  0.00    +0.000 C 
ATOM     11  C   UNL     1       1.070   3.278  19.025  0.00  0.00    +0.000 C 
ATOM     12  C   UNL     1       2.007   2.127  18.585  0.00  0.00    +0.000 C 
ATOM     13  C   UNL     1       3.477   2.421  19.009  0.00  0.00    +0.000 C 
ATOM     14  C   UNL     1       3.513   2.603  20.528  0.00  0.00    +0.000 C 
ATOM     15  C   UNL     1       2.611   3.800  20.922  0.00  0.00    +0.000 C 
ENDROOT
BRANCH   4  16
ATOM     16  C   UNL     1       6.663   4.742  14.976  0.00  0.00    +0.000 A 
ATOM     17  C   UNL     1       7.654   5.408  14.242  0.00  0.00    +0.000 A 
ATOM     18  C   UNL     1       7.816   5.146  12.871  0.00  0.00    +0.000 A 
ATOM     19  C   UNL     1       6.996   4.222  12.221  0.00  0.00    +0.000 A 
ATOM     20  C   UNL     1       5.996   3.568  12.932  0.00  0.00    +0.000 A 
ATOM     21  C   UNL     1       5.835   3.828  14.294  0.00  0.00    +0.000 A 
ENDBRANCH   4  16
BRANCH   1  22
ATOM     22  O   UNL     1       2.290   6.903  18.398  0.00  0.00    +0.000 OA
BRANCH  22  23
ATOM     23  C   UNL     1       2.496   8.298  18.128  0.00  0.00    +0.000 C 
BRANCH  23  28
ATOM     24  C   UNL     1      -1.454  11.069  18.537  0.00  0.00    +0.000 C 
ATOM     25  N   UNL     1      -0.276  10.307  18.851  0.00  0.00    +0.000 N 
ATOM     26  N   UNL     1       0.097  10.067  20.118  0.00  0.00    +0.000 NA
ATOM     27  N   UNL     1       1.177   9.316  20.011  0.00  0.00    +0.000 NA
ATOM     28  C   UNL     1       1.389   9.124  18.660  0.00  0.00    +0.000 A 
ATOM     29  N   UNL     1       0.493   9.772  17.885  0.00  0.00    +0.000 NA
ENDBRANCH  23  28
ENDBRANCH  22  23
ENDBRANCH   1  22
TORSDOF 4
ENDMDL
MODEL 3
REMARK VINA RESULT:      -9.3      0.619      1.111
REMARK  Name = 
REMARK  5 active torsions:
REMARK  status: ('A' for Active; 'I' for Inactive)
REMARK    1  A    between atoms: C_1  and  N_2
REMARK    2  A    between atoms: C_5  and  C_6
REMARK    3  A    between atoms: C_6  and  O_7
REMARK    4  A    between atoms: O_7  and  C_8
REMARK    5  A    between atoms: C_11  and  C_12
REMARK                            x       y       z     vdW  Elec       q    Type
REMARK                         _______ _______ _______ _____ _____    ______ ____
ROOT
ATOM      1  C   UNL     1       2.950   6.160  19.198  0.00  0.00    +0.000 A 
ATOM      2  N   UNL     1       3.748   6.423  18.199  0.00  0.00    +0.000 NA
ATOM      3  N   UNL     1       4.496   5.285  17.854  0.00  0.00    +0.000 N 
ATOM      4  C   UNL     1       5.711   5.176  17.180  0.00  0.00    +0.000 A 
ATOM      5  N   UNL     1       6.530   4.601  18.060  0.00  0.00    +0.000 NA
ATOM      6  N   UNL     1       5.750   3.779  18.835  0.00  0.00    +0.000 NA
ATOM      7  C   UNL     1       4.497   4.119  18.599  0.00  0.00    +0.000 A 
ATOM      8  C   UNL     1       3.313   3.789  19.256  0.00  0.00    +0.000 A 
ATOM      9  C   UNL     1       2.625   4.831  19.755  0.00  0.00    +0.000 A 
ATOM     10  C   UNL     1       1.577   4.463  20.777  0.00  0.00    +0.000 C 
ATOM     11  C   UNL     1       0.532   3.601  20.048  0.00  0.00    +0.000 C 
ATOM     12  C   UNL     1       1.243   2.427  19.330  0.00  0.00    +0.000 C 
ATOM     13  C   UNL     1       2.770   2.434  19.643  0.00  0.00    +0.000 C 
ATOM     14  C   UNL     1       2.950   2.334  21.160  0.00  0.00    +0.000 C 
ATOM     15  C   UNL     1       2.277   3.556  21.837  0.00  0.00    +0.000 C 
ENDROOT
BRANCH   4  16
ATOM     16  C   UNL     1       5.956   4.971  15.743  0.00  0.00    +0.000 A 
ATOM     17  C   UNL     1       5.146   4.173  14.925  0.00  0.00    +0.000 A 
ATOM     18  C   UNL     1       5.579   3.809  13.640  0.00  0.00    +0.000 A 
ATOM     19  C   UNL     1       6.819   4.234  13.159  0.00  0.00    +0.000 A 
ATOM     20  C   UNL     1       7.641   5.011  13.966  0.00  0.00    +0.000 A 
ATOM     21  C   UNL     1       7.212   5.373  15.244  0.00  0.00    +0.000 A 
ENDBRANCH   4  16
BRANCH   1  22
ATOM     22  O   UNL     1       2.247   7.074  19.907  0.00  0.00    +0.000 OA
BRANCH  22  23
ATOM     23  C   UNL     1       1.848   8.293  19.264  0.00  0.00    +0.000 C 
BRANCH  23  28
ATOM     24  C   UNL     1      -0.619  10.025  23.055  0.00  0.00    +0.000 C 
ATOM     25  N   UNL     1       0.025   9.912  21.775  0.00  0.00    +0.000 N 
ATOM     26  N   UNL     1       0.152  10.964  20.950  0.00  0.00    +0.000 NA
ATOM     27  N   UNL     1       0.820  10.494  19.912  0.00  0.00    +0.000 NA
ATOM     28  C   UNL     1       1.081   9.165  20.182  0.00  0.00    +0.000 A 
ATOM     29  N   UNL     1       0.557   8.750  21.356  0.00  0.00    +0.000 NA
ENDBRANCH  23  28
ENDBRANCH  22  23
ENDBRANCH   1  22
TORSDOF 4
ENDMDL
MODEL 4
REMARK VINA RESULT:      -9.3      0.703      1.157
REMARK  Name = 
REMARK  5 active torsions:
REMARK  status: ('A' for Active; 'I' for Inactive)
REMARK    1  A    between atoms: C_1  and  N_2
REMARK    2  A    between atoms: C_5  and  C_6
REMARK    3  A    between atoms: C_6  and  O_7
REMARK    4  A    between atoms: O_7  and  C_8
REMARK    5  A    between atoms: C_11  and  C_12
REMARK                            x       y       z     vdW  Elec       q    Type
REMARK                         _______ _______ _______ _____ _____    ______ ____
ROOT
ATOM      1  C   UNL     1       3.146   6.206  18.167  0.00  0.00    +0.000 A 
ATOM      2  N   UNL     1       3.908   6.431  17.131  0.00  0.00    +0.000 NA
ATOM      3  N   UNL     1       4.723   5.318  16.866  0.00  0.00    +0.000 N 
ATOM      4  C   UNL     1       5.931   5.228  16.177  0.00  0.00    +0.000 A 
ATOM      5  N   UNL     1       6.800   4.784  17.083  0.00  0.00    +0.000 NA
ATOM      6  N   UNL     1       6.089   3.984  17.943  0.00  0.00    +0.000 NA
ATOM      7  C   UNL     1       4.813   4.223  17.708  0.00  0.00    +0.000 A 
ATOM      8  C   UNL     1       3.665   3.876  18.417  0.00  0.00    +0.000 A 
ATOM      9  C   UNL     1       2.919   4.912  18.842  0.00  0.00    +0.000 A 
ATOM     10  C   UNL     1       1.915   4.568  19.916  0.00  0.00    +0.000 C 
ATOM     11  C   UNL     1       0.916   3.581  19.287  0.00  0.00    +0.000 C 
ATOM     12  C   UNL     1       1.689   2.397  18.656  0.00  0.00    +0.000 C 
ATOM     13  C   UNL     1       3.218   2.528  18.932  0.00  0.00    +0.000 C 
ATOM     14  C   UNL     1       3.431   2.571  20.447  0.00  0.00    +0.000 C 
ATOM     15  C   UNL     1       2.692   3.802  21.033  0.00  0.00    +0.000 C 
ENDROOT
BRANCH   4  16
ATOM     16  C   UNL     1       6.163   4.916  14.757  0.00  0.00    +0.000 A 
ATOM     17  C   UNL     1       5.423   3.965  14.042  0.00  0.00    +0.000 A 
ATOM     18  C   UNL     1       5.863   3.528  12.781  0.00  0.00    +0.000 A 
ATOM     19  C   UNL     1       7.039   4.032  12.223  0.00  0.00    +0.000 A 
ATOM     20  C   UNL     1       7.793   4.963  12.930  0.00  0.00    +0.000 A 
ATOM     21  C   UNL     1       7.357   5.396  14.183  0.00  0.00    +0.000 A 
ENDBRANCH   4  16
BRANCH   1  22
ATOM     22  O   UNL     1       2.398   7.131  18.812  0.00  0.00    +0.000 OA
BRANCH  22  23
ATOM     23  C   UNL     1       2.236   8.428  18.218  0.00  0.00    +0.000 C 
BRANCH  23  28
ATOM     24  C   UNL     1      -0.438  10.595  21.625  0.00  0.00    +0.000 C 
ATOM     25  N   UNL     1       0.055  10.140  20.354  0.00  0.00    +0.000 N 
ATOM     26  N   UNL     1      -0.464  10.574  19.194  0.00  0.00    +0.000 NA
ATOM     27  N   UNL     1       0.259   9.980  18.262  0.00  0.00    +0.000 NA
ATOM     28  C   UNL     1       1.205   9.222  18.924  0.00  0.00    +0.000 A 
ATOM     29  N   UNL     1       1.083   9.277  20.268  0.00  0.00    +0.000 NA
ENDBRANCH  23  28
ENDBRANCH  22  23
ENDBRANCH   1  22
TORSDOF 4
ENDMDL
MODEL 5
REMARK VINA RESULT:      -9.0      2.263      6.809
REMARK  Name = 
REMARK  5 active torsions:
REMARK  status: ('A' for Active; 'I' for Inactive)
REMARK    1  A    between atoms: C_1  and  N_2
REMARK    2  A    between atoms: C_5  and  C_6
REMARK    3  A    between atoms: C_6  and  O_7
REMARK    4  A    between atoms: O_7  and  C_8
REMARK    5  A    between atoms: C_11  and  C_12
REMARK                            x       y       z     vdW  Elec       q    Type
REMARK                         _______ _______ _______ _____ _____    ______ ____
ROOT
ATOM      1  C   UNL     1       4.906   4.919  19.137  0.00  0.00    +0.000 A 
ATOM      2  N   UNL     1       4.600   6.186  19.065  0.00  0.00    +0.000 NA
ATOM      3  N   UNL     1       3.208   6.353  18.972  0.00  0.00    +0.000 N 
ATOM      4  C   UNL     1       2.458   7.417  18.474  0.00  0.00    +0.000 A 
ATOM      5  N   UNL     1       1.772   6.895  17.459  0.00  0.00    +0.000 NA
ATOM      6  N   UNL     1       1.533   5.584  17.786  0.00  0.00    +0.000 NA
ATOM      7  C   UNL     1       2.324   5.300  18.802  0.00  0.00    +0.000 A 
ATOM      8  C   UNL     1       2.669   4.086  19.391  0.00  0.00    +0.000 A 
ATOM      9  C   UNL     1       3.982   3.790  19.368  0.00  0.00    +0.000 A 
ATOM     10  C   UNL     1       4.307   2.342  19.642  0.00  0.00    +0.000 C 
ATOM     11  C   UNL     1       3.852   2.053  21.083  0.00  0.00    +0.000 C 
ATOM     12  C   UNL     1       2.372   2.475  21.252  0.00  0.00    +0.000 C 
ATOM     13  C   UNL     1       1.784   2.972  19.897  0.00  0.00    +0.000 C 
ATOM     14  C   UNL     1       1.914   1.841  18.872  0.00  0.00    +0.000 C 
ATOM     15  C   UNL     1       3.413   1.489  18.688  0.00  0.00    +0.000 C 
ENDROOT
BRANCH   4  16
ATOM     16  C   UNL     1       1.892   8.567  19.199  0.00  0.00    +0.000 A 
ATOM     17  C   UNL     1       1.458   8.507  20.530  0.00  0.00    +0.000 A 
ATOM     18  C   UNL     1       0.693   9.552  21.072  0.00  0.00    +0.000 A 
ATOM     19  C   UNL     1       0.352  10.662  20.297  0.00  0.00    +0.000 A 
ATOM     20  C   UNL     1       0.760  10.726  18.969  0.00  0.00    +0.000 A 
ATOM     21  C   UNL     1       1.520   9.688  18.430  0.00  0.00    +0.000 A 
ENDBRANCH   4  16
BRANCH   1  22
ATOM     22  O   UNL     1       6.151   4.401  19.030  0.00  0.00    +0.000 OA
BRANCH  22  23
ATOM     23  C   UNL     1       7.170   5.174  18.378  0.00  0.00    +0.000 C 
BRANCH  23  28
ATOM     24  C   UNL     1       6.149   3.665  13.891  0.00  0.00    +0.000 C 
ATOM     25  N   UNL     1       6.674   4.417  14.997  0.00  0.00    +0.000 N 
ATOM     26  N   UNL     1       7.337   5.571  14.819  0.00  0.00    +0.000 NA
ATOM     27  N   UNL     1       7.622   5.983  16.041  0.00  0.00    +0.000 NA
ATOM     28  C   UNL     1       7.089   5.048  16.905  0.00  0.00    +0.000 A 
ATOM     29  N   UNL     1       6.500   4.012  16.269  0.00  0.00    +0.000 NA
ENDBRANCH  23  28
ENDBRANCH  22  23
ENDBRANCH   1  22
TORSDOF 4
ENDMDL
MODEL 6
REMARK VINA RESULT:      -9.0      0.819      1.127
REMARK  Name = 
REMARK  5 active torsions:
REMARK  status: ('A' for Active; 'I' for Inactive)
REMARK    1  A    between atoms: C_1  and  N_2
REMARK    2  A    between atoms: C_5  and  C_6
REMARK    3  A    between atoms: C_6  and  O_7
REMARK    4  A    between atoms: O_7  and  C_8
REMARK    5  A    between atoms: C_11  and  C_12
REMARK                            x       y       z     vdW  Elec       q    Type
REMARK                         _______ _______ _______ _____ _____    ______ ____
ROOT
ATOM      1  C   UNL     1       2.750   5.997  18.865  0.00  0.00    +0.000 A 
ATOM      2  N   UNL     1       3.638   6.224  17.936  0.00  0.00    +0.000 NA
ATOM      3  N   UNL     1       4.528   5.142  17.830  0.00  0.00    +0.000 N 
ATOM      4  C   UNL     1       5.823   5.086  17.318  0.00  0.00    +0.000 A 
ATOM      5  N   UNL     1       6.575   4.713  18.352  0.00  0.00    +0.000 NA
ATOM      6  N   UNL     1       5.785   3.910  19.137  0.00  0.00    +0.000 NA
ATOM      7  C   UNL     1       4.546   4.080  18.719  0.00  0.00    +0.000 A 
ATOM      8  C   UNL     1       3.325   3.704  19.277  0.00  0.00    +0.000 A 
ATOM      9  C   UNL     1       2.484   4.718  19.553  0.00  0.00    +0.000 A 
ATOM     10  C   UNL     1       1.356   4.363  20.491  0.00  0.00    +0.000 C 
ATOM     11  C   UNL     1       0.497   3.310  19.770  0.00  0.00    +0.000 C 
ATOM     12  C   UNL     1       1.399   2.143  19.298  0.00  0.00    +0.000 C 
ATOM     13  C   UNL     1       2.867   2.354  19.777  0.00  0.00    +0.000 C 
ATOM     14  C   UNL     1       2.865   2.458  21.304  0.00  0.00    +0.000 C 
ATOM     15  C   UNL     1       2.001   3.671  21.733  0.00  0.00    +0.000 C 
ENDROOT
BRANCH   4  16
ATOM     16  C   UNL     1       6.263   4.738  15.957  0.00  0.00    +0.000 A 
ATOM     17  C   UNL     1       7.382   5.308  15.335  0.00  0.00    +0.000 A 
ATOM     18  C   UNL     1       7.591   5.134  13.957  0.00  0.00    +0.000 A 
ATOM     19  C   UNL     1       6.691   4.393  13.189  0.00  0.00    +0.000 A 
ATOM     20  C   UNL     1       5.567   3.837  13.789  0.00  0.00    +0.000 A 
ATOM     21  C   UNL     1       5.358   4.011  15.158  0.00  0.00    +0.000 A 
ENDBRANCH   4  16
BRANCH   1  22
ATOM     22  O   UNL     1       1.881   6.907  19.364  0.00  0.00    +0.000 OA
BRANCH  22  23
ATOM     23  C   UNL     1       2.040   7.346  20.721  0.00  0.00    +0.000 C 
BRANCH  23  28
ATOM     24  C   UNL     1      -0.524  11.420  20.187  0.00  0.00    +0.000 C 
ATOM     25  N   UNL     1       0.329  10.399  20.732  0.00  0.00    +0.000 N 
ATOM     26  N   UNL     1       0.776  10.449  21.996  0.00  0.00    +0.000 NA
ATOM     27  N   UNL     1       1.481   9.342  22.144  0.00  0.00    +0.000 NA
ATOM     28  C   UNL     1       1.402   8.663  20.944  0.00  0.00    +0.000 A 
ATOM     29  N   UNL     1       0.696   9.329  20.004  0.00  0.00    +0.000 NA
ENDBRANCH  23  28
ENDBRANCH  22  23
ENDBRANCH   1  22
TORSDOF 4
ENDMDL
MODEL 7
REMARK VINA RESULT:      -8.5      1.018      1.468
REMARK  Name = 
REMARK  5 active torsions:
REMARK  status: ('A' for Active; 'I' for Inactive)
REMARK    1  A    between atoms: C_1  and  N_2
REMARK    2  A    between atoms: C_5  and  C_6
REMARK    3  A    between atoms: C_6  and  O_7
REMARK    4  A    between atoms: O_7  and  C_8
REMARK    5  A    between atoms: C_11  and  C_12
REMARK                            x       y       z     vdW  Elec       q    Type
REMARK                         _______ _______ _______ _____ _____    ______ ____
ROOT
ATOM      1  C   UNL     1       3.049   6.330  18.995  0.00  0.00    +0.000 A 
ATOM      2  N   UNL     1       3.830   6.540  17.970  0.00  0.00    +0.000 NA
ATOM      3  N   UNL     1       4.544   5.373  17.648  0.00  0.00    +0.000 N 
ATOM      4  C   UNL     1       5.741   5.212  16.952  0.00  0.00    +0.000 A 
ATOM      5  N   UNL     1       6.565   4.648  17.833  0.00  0.00    +0.000 NA
ATOM      6  N   UNL     1       5.784   3.871  18.653  0.00  0.00    +0.000 NA
ATOM      7  C   UNL     1       4.535   4.233  18.434  0.00  0.00    +0.000 A 
ATOM      8  C   UNL     1       3.359   3.954  19.127  0.00  0.00    +0.000 A 
ATOM      9  C   UNL     1       2.707   5.029  19.605  0.00  0.00    +0.000 A 
ATOM     10  C   UNL     1       1.674   4.722  20.663  0.00  0.00    +0.000 C 
ATOM     11  C   UNL     1       0.594   3.860  19.987  0.00  0.00    +0.000 C 
ATOM     12  C   UNL     1       1.260   2.646  19.295  0.00  0.00    +0.000 C 
ATOM     13  C   UNL     1       2.793   2.627  19.574  0.00  0.00    +0.000 C 
ATOM     14  C   UNL     1       3.007   2.574  21.089  0.00  0.00    +0.000 C 
ATOM     15  C   UNL     1       2.378   3.835  21.738  0.00  0.00    +0.000 C 
ENDROOT
BRANCH   4  16
ATOM     16  C   UNL     1       5.947   4.952  15.518  0.00  0.00    +0.000 A 
ATOM     17  C   UNL     1       5.141   4.092  14.762  0.00  0.00    +0.000 A 
ATOM     18  C   UNL     1       5.546   3.686  13.480  0.00  0.00    +0.000 A 
ATOM     19  C   UNL     1       6.754   4.132  12.941  0.00  0.00    +0.000 A 
ATOM     20  C   UNL     1       7.574   4.971  13.687  0.00  0.00    +0.000 A 
ATOM     21  C   UNL     1       7.172   5.374  14.961  0.00  0.00    +0.000 A 
ENDBRANCH   4  16
BRANCH   1  22
ATOM     22  O   UNL     1       2.384   7.284  19.688  0.00  0.00    +0.000 OA
BRANCH  22  23
ATOM     23  C   UNL     1       1.243   7.911  19.084  0.00  0.00    +0.000 C 
BRANCH  23  28
ATOM     24  C   UNL     1       1.377  12.739  19.436  0.00  0.00    +0.000 C 
ATOM     25  N   UNL     1       1.544  11.395  18.954  0.00  0.00    +0.000 N 
ATOM     26  N   UNL     1       2.265  11.120  17.856  0.00  0.00    +0.000 NA
ATOM     27  N   UNL     1       2.226   9.804  17.753  0.00  0.00    +0.000 NA
ATOM     28  C   UNL     1       1.486   9.348  18.826  0.00  0.00    +0.000 A 
ATOM     29  N   UNL     1       1.006  10.345  19.601  0.00  0.00    +0.000 NA
ENDBRANCH  23  28
ENDBRANCH  22  23
ENDBRANCH   1  22
TORSDOF 4
ENDMDL
MODEL 8
REMARK VINA RESULT:      -8.5      2.847      6.380
REMARK  Name = 
REMARK  5 active torsions:
REMARK  status: ('A' for Active; 'I' for Inactive)
REMARK    1  A    between atoms: C_1  and  N_2
REMARK    2  A    between atoms: C_5  and  C_6
REMARK    3  A    between atoms: C_6  and  O_7
REMARK    4  A    between atoms: O_7  and  C_8
REMARK    5  A    between atoms: C_11  and  C_12
REMARK                            x       y       z     vdW  Elec       q    Type
REMARK                         _______ _______ _______ _____ _____    ______ ____
ROOT
ATOM      1  C   UNL     1       4.931   4.943  19.281  0.00  0.00    +0.000 A 
ATOM      2  N   UNL     1       4.606   6.206  19.223  0.00  0.00    +0.000 NA
ATOM      3  N   UNL     1       3.218   6.351  19.055  0.00  0.00    +0.000 N 
ATOM      4  C   UNL     1       2.478   7.414  18.542  0.00  0.00    +0.000 A 
ATOM      5  N   UNL     1       1.860   6.907  17.476  0.00  0.00    +0.000 NA
ATOM      6  N   UNL     1       1.628   5.584  17.756  0.00  0.00    +0.000 NA
ATOM      7  C   UNL     1       2.366   5.288  18.808  0.00  0.00    +0.000 A 
ATOM      8  C   UNL     1       2.700   4.064  19.386  0.00  0.00    +0.000 A 
ATOM      9  C   UNL     1       4.017   3.793  19.431  0.00  0.00    +0.000 A 
ATOM     10  C   UNL     1       4.353   2.343  19.687  0.00  0.00    +0.000 C 
ATOM     11  C   UNL     1       3.823   2.009  21.092  0.00  0.00    +0.000 C 
ATOM     12  C   UNL     1       2.328   2.401  21.186  0.00  0.00    +0.000 C 
ATOM     13  C   UNL     1       1.808   2.922  19.812  0.00  0.00    +0.000 C 
ATOM     14  C   UNL     1       2.018   1.822  18.769  0.00  0.00    +0.000 C 
ATOM     15  C   UNL     1       3.531   1.500  18.662  0.00  0.00    +0.000 C 
ENDROOT
BRANCH   4  16
ATOM     16  C   UNL     1       1.850   8.535  19.261  0.00  0.00    +0.000 A 
ATOM     17  C   UNL     1       1.402   8.451  20.586  0.00  0.00    +0.000 A 
ATOM     18  C   UNL     1       0.582   9.458  21.120  0.00  0.00    +0.000 A 
ATOM     19  C   UNL     1       0.202  10.554  20.343  0.00  0.00    +0.000 A 
ATOM     20  C   UNL     1       0.624  10.641  19.022  0.00  0.00    +0.000 A 
ATOM     21  C   UNL     1       1.438   9.640  18.490  0.00  0.00    +0.000 A 
ENDBRANCH   4  16
BRANCH   1  22
ATOM     22  O   UNL     1       6.190   4.450  19.232  0.00  0.00    +0.000 OA
BRANCH  22  23
ATOM     23  C   UNL     1       6.972   4.660  18.047  0.00  0.00    +0.000 C 
BRANCH  23  28
ATOM     24  C   UNL     1       8.812   9.099  18.645  0.00  0.00    +0.000 C 
ATOM     25  N   UNL     1       8.087   7.976  18.116  0.00  0.00    +0.000 N 
ATOM     26  N   UNL     1       7.461   8.031  16.930  0.00  0.00    +0.000 NA
ATOM     27  N   UNL     1       6.953   6.823  16.766  0.00  0.00    +0.000 NA
ATOM     28  C   UNL     1       7.324   6.087  17.874  0.00  0.00    +0.000 A 
ATOM     29  N   UNL     1       8.026   6.806  18.777  0.00  0.00    +0.000 NA
ENDBRANCH  23  28
ENDBRANCH  22  23
ENDBRANCH   1  22
TORSDOF 4
ENDMDL
