MODEL 1
REMARK VINA RESULT:      -8.4      0.000      0.000
REMARK  Name = 
REMARK  9 active torsions:
REMARK  status: ('A' for Active; 'I' for Inactive)
REMARK    1  A    between atoms: C_1  and  O_2
REMARK    2  A    between atoms: O_2  and  C_3
REMARK    3  A    between atoms: C_8  and  N_9
REMARK    4  A    between atoms: N_9  and  S_10
REMARK    5  A    between atoms: S_10  and  C_13
REMARK    6  A    between atoms: C_15  and  C_16
REMARK    7  A    between atoms: C_17  and  C_18
REMARK    8  A    between atoms: C_31  and  O_32
REMARK    9  A    between atoms: O_32  and  C_33
REMARK                            x       y       z     vdW  Elec       q    Type
REMARK                         _______ _______ _______ _____ _____    ______ ____
ROOT
ATOM      1  C   UNL     1       1.309   9.000  20.059  0.00  0.00    +0.000 A 
ATOM      2  C   UNL     1       1.961   7.755  20.127  0.00  0.00    +0.000 A 
ATOM      3  C   UNL     1       2.610   7.202  19.001  0.00  0.00    +0.000 A 
ATOM      4  C   UNL     1       2.535   7.881  17.781  0.00  0.00    +0.000 A 
ATOM      5  C   UNL     1       1.964   9.157  17.734  0.00  0.00    +0.000 A 
ATOM      6  C   UNL     1       1.376   9.737  18.861  0.00  0.00    +0.000 A 
ENDROOT
BRANCH   3   7
ATOM      7  C   UNL     1       3.430   5.993  19.098  0.00  0.00    +0.000 A 
ATOM      8  C   UNL     1       4.714   5.694  18.577  0.00  0.00    +0.000 A 
ATOM      9  C   UNL     1       5.647   6.562  17.814  0.00  0.00    +0.000 C 
ATOM     10  N   UNL     1       5.062   4.424  18.807  0.00  0.00    +0.000 NA
ATOM     11  N   UNL     1       4.038   3.891  19.525  0.00  0.00    +0.000 N 
ATOM     12  C   UNL     1       2.974   4.779  19.616  0.00  0.00    +0.000 A 
ATOM     13  N   UNL     1       1.672   4.494  20.018  0.00  0.00    +0.000 N 
ATOM     14  C   UNL     1       1.096   3.270  20.144  0.00  0.00    +0.000 C 
ATOM     15  O   UNL     1      -0.095   3.164  19.837  0.00  0.00    +0.000 OA
ATOM     16  C   UNL     1       1.833   2.075  20.686  0.00  0.00    +0.000 C 
ATOM     17  C   UNL     1       3.227   2.326  21.198  0.00  0.00    +0.000 C 
ATOM     18  C   UNL     1       4.178   2.608  20.076  0.00  0.00    +0.000 C 
ATOM     19  O   UNL     1       5.054   1.837  19.700  0.00  0.00    +0.000 OA
ATOM     20  H   UNL     1       0.979   5.199  19.781  0.00  0.00    +0.000 HD
ENDBRANCH   3   7
BRANCH   1  21
ATOM     21  S   UNL     1       0.464   9.639  21.506  0.00  0.00    +0.000 S 
ATOM     22  O   UNL     1       1.442   9.630  22.575  0.00  0.00    +0.000 OA
ATOM     23  O   UNL     1      -0.792   8.931  21.597  0.00  0.00    +0.000 OA
BRANCH  21  24
ATOM     24  N   UNL     1       0.155  11.313  21.241  0.00  0.00    +0.000 N 
ATOM     25  H   UNL     1       0.818  11.796  21.860  0.00  0.00    +0.000 HD
BRANCH  24  31
ATOM     26  C   UNL     1      -2.142  12.134  20.634  0.00  0.00    +0.000 A 
ATOM     27  C   UNL     1      -3.348  12.704  21.069  0.00  0.00    +0.000 A 
ATOM     28  C   UNL     1      -3.653  12.768  22.428  0.00  0.00    +0.000 A 
ATOM     29  C   UNL     1      -2.744  12.288  23.364  0.00  0.00    +0.000 A 
ATOM     30  C   UNL     1      -1.508  11.790  22.952  0.00  0.00    +0.000 A 
ATOM     31  C   UNL     1      -1.190  11.719  21.591  0.00  0.00    +0.000 A 
BRANCH  26  33
ATOM     32  C   UNL     1      -2.962  11.507  18.506  0.00  0.00    +0.000 C 
ATOM     33  O   UNL     1      -1.849  11.938  19.303  0.00  0.00    +0.000 OA
ENDBRANCH  26  33
ENDBRANCH  24  31
ENDBRANCH  21  24
ENDBRANCH   1  21
BRANCH   6  34
ATOM     34  O   UNL     1       1.124  11.063  18.647  0.00  0.00    +0.000 OA
ATOM     35  C   UNL     1       2.192  11.929  18.310  0.00  0.00    +0.000 C 
ENDBRANCH   6  34
TORSDOF 6
ENDMDL
MODEL 2
REMARK VINA RESULT:      -8.2      1.179      1.789
REMARK  Name = 
REMARK  9 active torsions:
REMARK  status: ('A' for Active; 'I' for Inactive)
REMARK    1  A    between atoms: C_1  and  O_2
REMARK    2  A    between atoms: O_2  and  C_3
REMARK    3  A    between atoms: C_8  and  N_9
REMARK    4  A    between atoms: N_9  and  S_10
REMARK    5  A    between atoms: S_10  and  C_13
REMARK    6  A    between atoms: C_15  and  C_16
REMARK    7  A    between atoms: C_17  and  C_18
REMARK    8  A    between atoms: C_31  and  O_32
REMARK    9  A    between atoms: O_32  and  C_33
REMARK                            x       y       z     vdW  Elec       q    Type
REMARK                         _______ _______ _______ _____ _____    ______ ____
ROOT
ATOM      1  C   UNL     1       1.187   9.041  19.989  0.00  0.00    +0.000 A 
ATOM      2  C   UNL     1       1.837   7.797  20.096  0.00  0.00    +0.000 A 
ATOM      3  C   UNL     1       2.542   7.240  19.006  0.00  0.00    +0.000 A 
ATOM      4  C   UNL     1       2.527   7.911  17.780  0.00  0.00    +0.000 A 
ATOM      5  C   UNL     1       1.956   9.185  17.698  0.00  0.00    +0.000 A 
ATOM      6  C   UNL     1       1.312   9.770  18.791  0.00  0.00    +0.000 A 
ENDROOT
BRANCH   3   7
ATOM      7  C   UNL     1       3.359   6.033  19.152  0.00  0.00    +0.000 A 
ATOM      8  C   UNL     1       4.666   5.731  18.691  0.00  0.00    +0.000 A 
ATOM      9  C   UNL     1       5.631   6.594  17.963  0.00  0.00    +0.000 C 
ATOM     10  N   UNL     1       5.005   4.464  18.948  0.00  0.00    +0.000 NA
ATOM     11  N   UNL     1       3.951   3.936  19.625  0.00  0.00    +0.000 N 
ATOM     12  C   UNL     1       2.882   4.823  19.659  0.00  0.00    +0.000 A 
ATOM     13  N   UNL     1       1.564   4.539  20.005  0.00  0.00    +0.000 N 
ATOM     14  C   UNL     1       0.985   3.315  20.117  0.00  0.00    +0.000 C 
ATOM     15  O   UNL     1      -0.191   3.204  19.759  0.00  0.00    +0.000 OA
ATOM     16  C   UNL     1       1.699   2.127  20.703  0.00  0.00    +0.000 C 
ATOM     17  C   UNL     1       3.068   2.385  21.274  0.00  0.00    +0.000 C 
ATOM     18  C   UNL     1       4.067   2.658  20.193  0.00  0.00    +0.000 C 
ATOM     19  O   UNL     1       4.960   1.885  19.863  0.00  0.00    +0.000 OA
ATOM     20  H   UNL     1       0.881   5.241  19.731  0.00  0.00    +0.000 HD
ENDBRANCH   3   7
BRANCH   1  21
ATOM     21  S   UNL     1       0.270   9.686  21.388  0.00  0.00    +0.000 S 
ATOM     22  O   UNL     1       1.252  10.301  22.258  0.00  0.00    +0.000 OA
ATOM     23  O   UNL     1      -0.605   8.626  21.832  0.00  0.00    +0.000 OA
BRANCH  21  24
ATOM     24  N   UNL     1      -0.678  11.012  20.831  0.00  0.00    +0.000 N 
ATOM     25  H   UNL     1      -0.352  11.174  19.871  0.00  0.00    +0.000 HD
BRANCH  24  31
ATOM     26  C   UNL     1      -1.283  12.562  22.716  0.00  0.00    +0.000 A 
ATOM     27  C   UNL     1      -1.171  13.844  23.276  0.00  0.00    +0.000 A 
ATOM     28  C   UNL     1      -0.214  14.743  22.806  0.00  0.00    +0.000 A 
ATOM     29  C   UNL     1       0.619  14.378  21.754  0.00  0.00    +0.000 A 
ATOM     30  C   UNL     1       0.468  13.137  21.135  0.00  0.00    +0.000 A 
ATOM     31  C   UNL     1      -0.488  12.226  21.598  0.00  0.00    +0.000 A 
BRANCH  26  33
ATOM     32  C   UNL     1      -3.371  12.104  23.729  0.00  0.00    +0.000 C 
ATOM     33  O   UNL     1      -2.126  11.599  23.223  0.00  0.00    +0.000 OA
ENDBRANCH  26  33
ENDBRANCH  24  31
ENDBRANCH  21  24
ENDBRANCH   1  21
BRANCH   6  34
ATOM     34  O   UNL     1       1.068  11.095  18.557  0.00  0.00    +0.000 OA
ATOM     35  C   UNL     1       2.147  11.957  18.246  0.00  0.00    +0.000 C 
ENDBRANCH   6  34
TORSDOF 6
ENDMDL
MODEL 3
REMARK VINA RESULT:      -8.2      1.065      1.273
REMARK  Name = 
REMARK  9 active torsions:
REMARK  status: ('A' for Active; 'I' for Inactive)
REMARK    1  A    between atoms: C_1  and  O_2
REMARK    2  A    between atoms: O_2  and  C_3
REMARK    3  A    between atoms: C_8  and  N_9
REMARK    4  A    between atoms: N_9  and  S_10
REMARK    5  A    between atoms: S_10  and  C_13
REMARK    6  A    between atoms: C_15  and  C_16
REMARK    7  A    between atoms: C_17  and  C_18
REMARK    8  A    between atoms: C_31  and  O_32
REMARK    9  A    between atoms: O_32  and  C_33
REMARK                            x       y       z     vdW  Elec       q    Type
REMARK                         _______ _______ _______ _____ _____    ______ ____
ROOT
ATOM      1  C   UNL     1       1.231   9.051  19.884  0.00  0.00    +0.000 A 
ATOM      2  C   UNL     1       1.870   7.807  20.038  0.00  0.00    +0.000 A 
ATOM      3  C   UNL     1       2.585   7.211  18.975  0.00  0.00    +0.000 A 
ATOM      4  C   UNL     1       2.590   7.844  17.729  0.00  0.00    +0.000 A 
ATOM      5  C   UNL     1       2.031   9.119  17.600  0.00  0.00    +0.000 A 
ATOM      6  C   UNL     1       1.377   9.743  18.666  0.00  0.00    +0.000 A 
ENDROOT
BRANCH   3   7
ATOM      7  C   UNL     1       3.390   6.003  19.168  0.00  0.00    +0.000 A 
ATOM      8  C   UNL     1       4.706   5.684  18.748  0.00  0.00    +0.000 A 
ATOM      9  C   UNL     1       5.695   6.525  18.027  0.00  0.00    +0.000 C 
ATOM     10  N   UNL     1       5.030   4.421  19.041  0.00  0.00    +0.000 NA
ATOM     11  N   UNL     1       3.956   3.914  19.702  0.00  0.00    +0.000 N 
ATOM     12  C   UNL     1       2.892   4.807  19.689  0.00  0.00    +0.000 A 
ATOM     13  N   UNL     1       1.564   4.538  20.007  0.00  0.00    +0.000 N 
ATOM     14  C   UNL     1       0.974   3.320  20.130  0.00  0.00    +0.000 C 
ATOM     15  O   UNL     1      -0.192   3.208  19.744  0.00  0.00    +0.000 OA
ATOM     16  C   UNL     1       1.666   2.141  20.761  0.00  0.00    +0.000 C 
ATOM     17  C   UNL     1       3.021   2.404  21.361  0.00  0.00    +0.000 C 
ATOM     18  C   UNL     1       4.050   2.648  20.301  0.00  0.00    +0.000 C 
ATOM     19  O   UNL     1       4.946   1.863  20.011  0.00  0.00    +0.000 OA
ATOM     20  H   UNL     1       0.892   5.238  19.700  0.00  0.00    +0.000 HD
ENDBRANCH   3   7
BRANCH   1  21
ATOM     21  S   UNL     1       0.302   9.746  21.251  0.00  0.00    +0.000 S 
ATOM     22  O   UNL     1       1.258  10.493  22.043  0.00  0.00    +0.000 OA
ATOM     23  O   UNL     1      -0.490   8.671  21.800  0.00  0.00    +0.000 OA
BRANCH  21  24
ATOM     24  N   UNL     1      -0.746  10.957  20.615  0.00  0.00    +0.000 N 
ATOM     25  H   UNL     1      -0.227  11.352  19.821  0.00  0.00    +0.000 HD
BRANCH  24  31
ATOM     26  C   UNL     1      -0.416  13.285  21.504  0.00  0.00    +0.000 A 
ATOM     27  C   UNL     1      -0.605  14.185  22.565  0.00  0.00    +0.000 A 
ATOM     28  C   UNL     1      -1.481  13.880  23.606  0.00  0.00    +0.000 A 
ATOM     29  C   UNL     1      -2.154  12.664  23.610  0.00  0.00    +0.000 A 
ATOM     30  C   UNL     1      -1.918  11.726  22.604  0.00  0.00    +0.000 A 
ATOM     31  C   UNL     1      -1.043  12.020  21.553  0.00  0.00    +0.000 A 
BRANCH  26  33
ATOM     32  C   UNL     1      -0.338  14.384  19.411  0.00  0.00    +0.000 C 
ATOM     33  O   UNL     1       0.341  13.590  20.395  0.00  0.00    +0.000 OA
ENDBRANCH  26  33
ENDBRANCH  24  31
ENDBRANCH  21  24
ENDBRANCH   1  21
BRANCH   6  34
ATOM     34  O   UNL     1       1.147  11.061  18.389  0.00  0.00    +0.000 OA
ATOM     35  C   UNL     1       2.245  11.933  18.193  0.00  0.00    +0.000 C 
ENDBRANCH   6  34
TORSDOF 6
ENDMDL
MODEL 4
REMARK VINA RESULT:      -8.1      1.697      3.006
REMARK  Name = 
REMARK  9 active torsions:
REMARK  status: ('A' for Active; 'I' for Inactive)
REMARK    1  A    between atoms: C_1  and  O_2
REMARK    2  A    between atoms: O_2  and  C_3
REMARK    3  A    between atoms: C_8  and  N_9
REMARK    4  A    between atoms: N_9  and  S_10
REMARK    5  A    between atoms: S_10  and  C_13
REMARK    6  A    between atoms: C_15  and  C_16
REMARK    7  A    between atoms: C_17  and  C_18
REMARK    8  A    between atoms: C_31  and  O_32
REMARK    9  A    between atoms: O_32  and  C_33
REMARK                            x       y       z     vdW  Elec       q    Type
REMARK                         _______ _______ _______ _____ _____    ______ ____
ROOT
ATOM      1  C   UNL     1       1.192   9.343  20.250  0.00  0.00    +0.000 A 
ATOM      2  C   UNL     1       1.509   7.994  20.004  0.00  0.00    +0.000 A 
ATOM      3  C   UNL     1       2.019   7.575  18.755  0.00  0.00    +0.000 A 
ATOM      4  C   UNL     1       2.138   8.514  17.727  0.00  0.00    +0.000 A 
ATOM      5  C   UNL     1       1.907   9.866  17.997  0.00  0.00    +0.000 A 
ATOM      6  C   UNL     1       1.463  10.297  19.250  0.00  0.00    +0.000 A 
ENDROOT
BRANCH   3   7
ATOM      7  C   UNL     1       2.508   6.211  18.539  0.00  0.00    +0.000 A 
ATOM      8  C   UNL     1       2.147   4.985  19.153  0.00  0.00    +0.000 A 
ATOM      9  C   UNL     1       1.102   4.712  20.172  0.00  0.00    +0.000 C 
ATOM     10  N   UNL     1       2.918   3.974  18.738  0.00  0.00    +0.000 NA
ATOM     11  N   UNL     1       3.755   4.513  17.812  0.00  0.00    +0.000 N 
ATOM     12  C   UNL     1       3.618   5.894  17.755  0.00  0.00    +0.000 A 
ATOM     13  N   UNL     1       4.483   6.800  17.148  0.00  0.00    +0.000 N 
ATOM     14  C   UNL     1       5.755   6.575  16.728  0.00  0.00    +0.000 C 
ATOM     15  O   UNL     1       6.571   7.491  16.859  0.00  0.00    +0.000 OA
ATOM     16  C   UNL     1       6.179   5.289  16.071  0.00  0.00    +0.000 C 
ATOM     17  C   UNL     1       5.087   4.290  15.792  0.00  0.00    +0.000 C 
ATOM     18  C   UNL     1       4.582   3.667  17.056  0.00  0.00    +0.000 C 
ATOM     19  O   UNL     1       4.794   2.506  17.390  0.00  0.00    +0.000 OA
ATOM     20  H   UNL     1       4.357   7.772  17.423  0.00  0.00    +0.000 HD
ENDBRANCH   3   7
BRANCH   1  21
ATOM     21  S   UNL     1       0.509   9.818  21.838  0.00  0.00    +0.000 S 
ATOM     22  O   UNL     1       1.599   9.715  22.788  0.00  0.00    +0.000 OA
ATOM     23  O   UNL     1      -0.726   9.085  21.992  0.00  0.00    +0.000 OA
BRANCH  21  24
ATOM     24  N   UNL     1       0.166  11.505  21.782  0.00  0.00    +0.000 N 
ATOM     25  H   UNL     1       0.673  11.896  22.587  0.00  0.00    +0.000 HD
BRANCH  24  31
ATOM     26  C   UNL     1      -2.063  12.173  20.830  0.00  0.00    +0.000 A 
ATOM     27  C   UNL     1      -3.357  12.658  21.075  0.00  0.00    +0.000 A 
ATOM     28  C   UNL     1      -3.868  12.693  22.372  0.00  0.00    +0.000 A 
ATOM     29  C   UNL     1      -3.081  12.270  23.437  0.00  0.00    +0.000 A 
ATOM     30  C   UNL     1      -1.765  11.859  23.219  0.00  0.00    +0.000 A 
ATOM     31  C   UNL     1      -1.241  11.818  21.923  0.00  0.00    +0.000 A 
BRANCH  26  33
ATOM     32  C   UNL     1      -2.549  11.719  18.560  0.00  0.00    +0.000 C 
ATOM     33  O   UNL     1      -1.559  12.004  19.560  0.00  0.00    +0.000 OA
ENDBRANCH  26  33
ENDBRANCH  24  31
ENDBRANCH  21  24
ENDBRANCH   1  21
BRANCH   6  34
ATOM     34  O   UNL     1       1.555  11.656  19.356  0.00  0.00    +0.000 OA
ATOM     35  C   UNL     1       2.182  12.394  18.324  0.00  0.00    +0.000 C 
ENDBRANCH   6  34
TORSDOF 6
ENDMDL
MODEL 5
REMARK VINA RESULT:      -8.1      2.856      4.756
REMARK  Name = 
REMARK  9 active torsions:
REMARK  status: ('A' for Active; 'I' for Inactive)
REMARK    1  A    between atoms: C_1  and  O_2
REMARK    2  A    between atoms: O_2  and  C_3
REMARK    3  A    between atoms: C_8  and  N_9
REMARK    4  A    between atoms: N_9  and  S_10
REMARK    5  A    between atoms: S_10  and  C_13
REMARK    6  A    between atoms: C_15  and  C_16
REMARK    7  A    between atoms: C_17  and  C_18
REMARK    8  A    between atoms: C_31  and  O_32
REMARK    9  A    between atoms: O_32  and  C_33
REMARK                            x       y       z     vdW  Elec       q    Type
REMARK                         _______ _______ _______ _____ _____    ______ ____
ROOT
ATOM      1  C   UNL     1       1.525   8.895  19.274  0.00  0.00    +0.000 A 
ATOM      2  C   UNL     1       2.194   7.971  18.449  0.00  0.00    +0.000 A 
ATOM      3  C   UNL     1       2.562   6.693  18.924  0.00  0.00    +0.000 A 
ATOM      4  C   UNL     1       2.316   6.376  20.262  0.00  0.00    +0.000 A 
ATOM      5  C   UNL     1       1.575   7.256  21.056  0.00  0.00    +0.000 A 
ATOM      6  C   UNL     1       1.152   8.497  20.573  0.00  0.00    +0.000 A 
ENDROOT
BRANCH   3   7
ATOM      7  C   UNL     1       3.107   5.666  18.033  0.00  0.00    +0.000 A 
ATOM      8  C   UNL     1       2.628   4.374  17.697  0.00  0.00    +0.000 A 
ATOM      9  C   UNL     1       1.374   3.697  18.114  0.00  0.00    +0.000 C 
ATOM     10  N   UNL     1       3.489   3.709  16.921  0.00  0.00    +0.000 NA
ATOM     11  N   UNL     1       4.515   4.572  16.695  0.00  0.00    +0.000 N 
ATOM     12  C   UNL     1       4.377   5.727  17.455  0.00  0.00    +0.000 A 
ATOM     13  N   UNL     1       5.348   6.692  17.703  0.00  0.00    +0.000 N 
ATOM     14  C   UNL     1       6.687   6.590  17.495  0.00  0.00    +0.000 C 
ATOM     15  O   UNL     1       7.435   7.136  18.310  0.00  0.00    +0.000 OA
ATOM     16  C   UNL     1       7.273   5.893  16.297  0.00  0.00    +0.000 C 
ATOM     17  C   UNL     1       6.293   5.404  15.263  0.00  0.00    +0.000 C 
ATOM     18  C   UNL     1       5.510   4.231  15.765  0.00  0.00    +0.000 C 
ATOM     19  O   UNL     1       5.652   3.080  15.367  0.00  0.00    +0.000 OA
ATOM     20  H   UNL     1       5.147   7.323  18.476  0.00  0.00    +0.000 HD
ENDBRANCH   3   7
BRANCH   1  21
ATOM     21  S   UNL     1       1.116  10.520  18.637  0.00  0.00    +0.000 S 
ATOM     22  O   UNL     1      -0.148  10.370  17.945  0.00  0.00    +0.000 OA
ATOM     23  O   UNL     1       2.304  11.018  17.984  0.00  0.00    +0.000 OA
BRANCH  21  24
ATOM     24  N   UNL     1       0.738  11.533  19.979  0.00  0.00    +0.000 N 
ATOM     25  H   UNL     1      -0.242  11.310  20.198  0.00  0.00    +0.000 HD
BRANCH  24  31
ATOM     26  C   UNL     1       1.782  13.795  20.308  0.00  0.00    +0.000 A 
ATOM     27  C   UNL     1       1.682  15.183  20.124  0.00  0.00    +0.000 A 
ATOM     28  C   UNL     1       0.729  15.717  19.258  0.00  0.00    +0.000 A 
ATOM     29  C   UNL     1      -0.149  14.872  18.589  0.00  0.00    +0.000 A 
ATOM     30  C   UNL     1      -0.113  13.496  18.820  0.00  0.00    +0.000 A 
ATOM     31  C   UNL     1       0.839  12.948  19.686  0.00  0.00    +0.000 A 
BRANCH  26  33
ATOM     32  C   UNL     1       3.823  14.115  21.459  0.00  0.00    +0.000 C 
ATOM     33  O   UNL     1       2.782  13.214  21.055  0.00  0.00    +0.000 OA
ENDBRANCH  26  33
ENDBRANCH  24  31
ENDBRANCH  21  24
ENDBRANCH   1  21
BRANCH   6  34
ATOM     34  O   UNL     1       0.241   9.062  21.420  0.00  0.00    +0.000 OA
ATOM     35  C   UNL     1       0.606   9.323  22.763  0.00  0.00    +0.000 C 
ENDBRANCH   6  34
TORSDOF 6
ENDMDL
MODEL 6
REMARK VINA RESULT:      -8.0      2.465      4.530
REMARK  Name = 
REMARK  9 active torsions:
REMARK  status: ('A' for Active; 'I' for Inactive)
REMARK    1  A    between atoms: C_1  and  O_2
REMARK    2  A    between atoms: O_2  and  C_3
REMARK    3  A    between atoms: C_8  and  N_9
REMARK    4  A    between atoms: N_9  and  S_10
REMARK    5  A    between atoms: S_10  and  C_13
REMARK    6  A    between atoms: C_15  and  C_16
REMARK    7  A    between atoms: C_17  and  C_18
REMARK    8  A    between atoms: C_31  and  O_32
REMARK    9  A    between atoms: O_32  and  C_33
REMARK                            x       y       z     vdW  Elec       q    Type
REMARK                         _______ _______ _______ _____ _____    ______ ____
ROOT
ATOM      1  C   UNL     1       1.536   8.837  19.290  0.00  0.00    +0.000 A 
ATOM      2  C   UNL     1       2.208   7.914  18.467  0.00  0.00    +0.000 A 
ATOM      3  C   UNL     1       2.553   6.627  18.935  0.00  0.00    +0.000 A 
ATOM      4  C   UNL     1       2.281   6.300  20.267  0.00  0.00    +0.000 A 
ATOM      5  C   UNL     1       1.538   7.181  21.057  0.00  0.00    +0.000 A 
ATOM      6  C   UNL     1       1.137   8.432  20.579  0.00  0.00    +0.000 A 
ENDROOT
BRANCH   3   7
ATOM      7  C   UNL     1       3.101   5.603  18.043  0.00  0.00    +0.000 A 
ATOM      8  C   UNL     1       2.630   4.307  17.714  0.00  0.00    +0.000 A 
ATOM      9  C   UNL     1       1.384   3.620  18.139  0.00  0.00    +0.000 C 
ATOM     10  N   UNL     1       3.492   3.647  16.934  0.00  0.00    +0.000 NA
ATOM     11  N   UNL     1       4.510   4.517  16.700  0.00  0.00    +0.000 N 
ATOM     12  C   UNL     1       4.367   5.672  17.458  0.00  0.00    +0.000 A 
ATOM     13  N   UNL     1       5.332   6.646  17.699  0.00  0.00    +0.000 N 
ATOM     14  C   UNL     1       6.670   6.554  17.483  0.00  0.00    +0.000 C 
ATOM     15  O   UNL     1       7.419   7.108  18.292  0.00  0.00    +0.000 OA
ATOM     16  C   UNL     1       7.255   5.859  16.283  0.00  0.00    +0.000 C 
ATOM     17  C   UNL     1       6.273   5.360  15.255  0.00  0.00    +0.000 C 
ATOM     18  C   UNL     1       5.502   4.182  15.765  0.00  0.00    +0.000 C 
ATOM     19  O   UNL     1       5.651   3.032  15.368  0.00  0.00    +0.000 OA
ATOM     20  H   UNL     1       5.131   7.277  18.471  0.00  0.00    +0.000 HD
ENDBRANCH   3   7
BRANCH   1  21
ATOM     21  S   UNL     1       1.156  10.473  18.663  0.00  0.00    +0.000 S 
ATOM     22  O   UNL     1      -0.173  10.383  18.093  0.00  0.00    +0.000 OA
ATOM     23  O   UNL     1       2.303  10.896  17.894  0.00  0.00    +0.000 OA
BRANCH  21  24
ATOM     24  N   UNL     1       0.957  11.524  20.014  0.00  0.00    +0.000 N 
ATOM     25  H   UNL     1       0.015  11.312  20.366  0.00  0.00    +0.000 HD
BRANCH  24  31
ATOM     26  C   UNL     1      -0.108  13.671  19.257  0.00  0.00    +0.000 A 
ATOM     27  C   UNL     1       0.072  14.967  18.749  0.00  0.00    +0.000 A 
ATOM     28  C   UNL     1       1.334  15.559  18.747  0.00  0.00    +0.000 A 
ATOM     29  C   UNL     1       2.431  14.852  19.226  0.00  0.00    +0.000 A 
ATOM     30  C   UNL     1       2.282  13.535  19.663  0.00  0.00    +0.000 A 
ATOM     31  C   UNL     1       1.020  12.930  19.672  0.00  0.00    +0.000 A 
BRANCH  26  33
ATOM     32  C   UNL     1      -2.055  13.469  20.585  0.00  0.00    +0.000 C 
ATOM     33  O   UNL     1      -1.349  13.091  19.394  0.00  0.00    +0.000 OA
ENDBRANCH  26  33
ENDBRANCH  24  31
ENDBRANCH  21  24
ENDBRANCH   1  21
BRANCH   6  34
ATOM     34  O   UNL     1       0.218   8.999  21.416  0.00  0.00    +0.000 OA
ATOM     35  C   UNL     1       0.586   9.304  22.749  0.00  0.00    +0.000 C 
ENDBRANCH   6  34
TORSDOF 6
ENDMDL
MODEL 7
REMARK VINA RESULT:      -8.0      0.925      1.619
REMARK  Name = 
REMARK  9 active torsions:
REMARK  status: ('A' for Active; 'I' for Inactive)
REMARK    1  A    between atoms: C_1  and  O_2
REMARK    2  A    between atoms: O_2  and  C_3
REMARK    3  A    between atoms: C_8  and  N_9
REMARK    4  A    between atoms: N_9  and  S_10
REMARK    5  A    between atoms: S_10  and  C_13
REMARK    6  A    between atoms: C_15  and  C_16
REMARK    7  A    between atoms: C_17  and  C_18
REMARK    8  A    between atoms: C_31  and  O_32
REMARK    9  A    between atoms: O_32  and  C_33
REMARK                            x       y       z     vdW  Elec       q    Type
REMARK                         _______ _______ _______ _____ _____    ______ ____
ROOT
ATOM      1  C   UNL     1       1.339   9.121  19.953  0.00  0.00    +0.000 A 
ATOM      2  C   UNL     1       1.963   7.866  20.085  0.00  0.00    +0.000 A 
ATOM      3  C   UNL     1       2.601   7.243  18.990  0.00  0.00    +0.000 A 
ATOM      4  C   UNL     1       2.542   7.860  17.737  0.00  0.00    +0.000 A 
ATOM      5  C   UNL     1       2.000   9.144  17.624  0.00  0.00    +0.000 A 
ATOM      6  C   UNL     1       1.424   9.793  18.718  0.00  0.00    +0.000 A 
ENDROOT
BRANCH   3   7
ATOM      7  C   UNL     1       3.394   6.022  19.151  0.00  0.00    +0.000 A 
ATOM      8  C   UNL     1       4.695   5.690  18.697  0.00  0.00    +0.000 A 
ATOM      9  C   UNL     1       5.679   6.526  17.962  0.00  0.00    +0.000 C 
ATOM     10  N   UNL     1       5.009   4.420  18.969  0.00  0.00    +0.000 NA
ATOM     11  N   UNL     1       3.943   3.920  19.649  0.00  0.00    +0.000 N 
ATOM     12  C   UNL     1       2.892   4.827  19.671  0.00  0.00    +0.000 A 
ATOM     13  N   UNL     1       1.568   4.572  20.016  0.00  0.00    +0.000 N 
ATOM     14  C   UNL     1       0.965   3.361  20.140  0.00  0.00    +0.000 C 
ATOM     15  O   UNL     1      -0.212   3.269  19.780  0.00  0.00    +0.000 OA
ATOM     16  C   UNL     1       1.654   2.167  20.741  0.00  0.00    +0.000 C 
ATOM     17  C   UNL     1       3.027   2.405  21.313  0.00  0.00    +0.000 C 
ATOM     18  C   UNL     1       4.034   2.646  20.232  0.00  0.00    +0.000 C 
ATOM     19  O   UNL     1       4.913   1.853  19.913  0.00  0.00    +0.000 OA
ATOM     20  H   UNL     1       0.899   5.285  19.732  0.00  0.00    +0.000 HD
ENDBRANCH   3   7
BRANCH   1  21
ATOM     21  S   UNL     1       0.507   9.851  21.363  0.00  0.00    +0.000 S 
ATOM     22  O   UNL     1       1.439   9.757  22.468  0.00  0.00    +0.000 OA
ATOM     23  O   UNL     1      -0.814   9.268  21.410  0.00  0.00    +0.000 OA
BRANCH  21  24
ATOM     24  N   UNL     1       0.372  11.545  21.078  0.00  0.00    +0.000 N 
ATOM     25  H   UNL     1       0.800  11.978  21.905  0.00  0.00    +0.000 HD
BRANCH  24  31
ATOM     26  C   UNL     1      -1.739  12.484  22.068  0.00  0.00    +0.000 A 
ATOM     27  C   UNL     1      -3.115  12.719  21.916  0.00  0.00    +0.000 A 
ATOM     28  C   UNL     1      -3.724  12.587  20.669  0.00  0.00    +0.000 A 
ATOM     29  C   UNL     1      -2.971  12.191  19.570  0.00  0.00    +0.000 A 
ATOM     30  C   UNL     1      -1.619  11.877  19.720  0.00  0.00    +0.000 A 
ATOM     31  C   UNL     1      -0.996  12.008  20.965  0.00  0.00    +0.000 A 
BRANCH  26  33
ATOM     32  C   UNL     1      -1.191  14.060  23.744  0.00  0.00    +0.000 C 
ATOM     33  O   UNL     1      -1.069  12.719  23.247  0.00  0.00    +0.000 OA
ENDBRANCH  26  33
ENDBRANCH  24  31
ENDBRANCH  21  24
ENDBRANCH   1  21
BRANCH   6  34
ATOM     34  O   UNL     1       1.202  11.112  18.437  0.00  0.00    +0.000 OA
ATOM     35  C   UNL     1       2.299  11.955  18.138  0.00  0.00    +0.000 C 
ENDBRANCH   6  34
TORSDOF 6
ENDMDL
MODEL 8
REMARK VINA RESULT:      -7.8      2.653      8.541
REMARK  Name = 
REMARK  9 active torsions:
REMARK  status: ('A' for Active; 'I' for Inactive)
REMARK    1  A    between atoms: C_1  and  O_2
REMARK    2  A    between atoms: O_2  and  C_3
REMARK    3  A    between atoms: C_8  and  N_9
REMARK    4  A    between atoms: N_9  and  S_10
REMARK    5  A    between atoms: S_10  and  C_13
REMARK    6  A    between atoms: C_15  and  C_16
REMARK    7  A    between atoms: C_17  and  C_18
REMARK    8  A    between atoms: C_31  and  O_32
REMARK    9  A    between atoms: O_32  and  C_33
REMARK                            x       y       z     vdW  Elec       q    Type
REMARK                         _______ _______ _______ _____ _____    ______ ____
ROOT
ATOM      1  C   UNL     1       2.442   4.206  18.962  0.00  0.00    +0.000 A 
ATOM      2  C   UNL     1       2.252   5.515  18.480  0.00  0.00    +0.000 A 
ATOM      3  C   UNL     1       1.969   6.586  19.355  0.00  0.00    +0.000 A 
ATOM      4  C   UNL     1       1.806   6.318  20.717  0.00  0.00    +0.000 A 
ATOM      5  C   UNL     1       2.079   5.037  21.207  0.00  0.00    +0.000 A 
ATOM      6  C   UNL     1       2.422   3.986  20.353  0.00  0.00    +0.000 A 
ENDROOT
BRANCH   3   7
ATOM      7  C   UNL     1       1.934   7.975  18.890  0.00  0.00    +0.000 A 
ATOM      8  C   UNL     1       2.621   8.619  17.830  0.00  0.00    +0.000 A 
ATOM      9  C   UNL     1       3.550   8.046  16.822  0.00  0.00    +0.000 C 
ATOM     10  N   UNL     1       2.384   9.934  17.809  0.00  0.00    +0.000 NA
ATOM     11  N   UNL     1       1.501  10.160  18.818  0.00  0.00    +0.000 N 
ATOM     12  C   UNL     1       1.300   9.013  19.575  0.00  0.00    +0.000 A 
ATOM     13  N   UNL     1       0.702   8.927  20.829  0.00  0.00    +0.000 N 
ATOM     14  C   UNL     1       0.437   9.944  21.689  0.00  0.00    +0.000 C 
ATOM     15  O   UNL     1       0.564   9.719  22.896  0.00  0.00    +0.000 OA
ATOM     16  C   UNL     1      -0.049  11.292  21.231  0.00  0.00    +0.000 C 
ATOM     17  C   UNL     1      -0.342  11.432  19.760  0.00  0.00    +0.000 C 
ATOM     18  C   UNL     1       0.917  11.429  18.950  0.00  0.00    +0.000 C 
ATOM     19  O   UNL     1       1.379  12.414  18.384  0.00  0.00    +0.000 OA
ATOM     20  H   UNL     1       0.870   8.058  21.332  0.00  0.00    +0.000 HD
ENDBRANCH   3   7
BRANCH   1  21
ATOM     21  S   UNL     1       2.757   2.872  17.806  0.00  0.00    +0.000 S 
ATOM     22  O   UNL     1       2.359   3.370  16.505  0.00  0.00    +0.000 OA
ATOM     23  O   UNL     1       2.188   1.679  18.388  0.00  0.00    +0.000 OA
BRANCH  21  24
ATOM     24  N   UNL     1       4.465   2.682  17.673  0.00  0.00    +0.000 N 
ATOM     25  H   UNL     1       4.725   2.130  18.500  0.00  0.00    +0.000 HD
BRANCH  24  31
ATOM     26  C   UNL     1       5.609   4.606  16.530  0.00  0.00    +0.000 A 
ATOM     27  C   UNL     1       6.483   5.699  16.642  0.00  0.00    +0.000 A 
ATOM     28  C   UNL     1       6.856   6.184  17.895  0.00  0.00    +0.000 A 
ATOM     29  C   UNL     1       6.382   5.564  19.046  0.00  0.00    +0.000 A 
ATOM     30  C   UNL     1       5.575   4.429  18.951  0.00  0.00    +0.000 A 
ATOM     31  C   UNL     1       5.193   3.934  17.700  0.00  0.00    +0.000 A 
BRANCH  26  33
ATOM     32  C   UNL     1       6.083   4.133  14.262  0.00  0.00    +0.000 C 
ATOM     33  O   UNL     1       5.116   4.168  15.322  0.00  0.00    +0.000 OA
ENDBRANCH  26  33
ENDBRANCH  24  31
ENDBRANCH  21  24
ENDBRANCH   1  21
BRANCH   6  34
ATOM     34  O   UNL     1       2.890   2.917  21.064  0.00  0.00    +0.000 OA
ATOM     35  C   UNL     1       2.002   2.190  21.894  0.00  0.00    +0.000 C 
ENDBRANCH   6  34
TORSDOF 6
ENDMDL
MODEL 9
REMARK VINA RESULT:      -7.6      2.428      4.236
REMARK  Name = 
REMARK  9 active torsions:
REMARK  status: ('A' for Active; 'I' for Inactive)
REMARK    1  A    between atoms: C_1  and  O_2
REMARK    2  A    between atoms: O_2  and  C_3
REMARK    3  A    between atoms: C_8  and  N_9
REMARK    4  A    between atoms: N_9  and  S_10
REMARK    5  A    between atoms: S_10  and  C_13
REMARK    6  A    between atoms: C_15  and  C_16
REMARK    7  A    between atoms: C_17  and  C_18
REMARK    8  A    between atoms: C_31  and  O_32
REMARK    9  A    between atoms: O_32  and  C_33
REMARK                            x       y       z     vdW  Elec       q    Type
REMARK                         _______ _______ _______ _____ _____    ______ ____
ROOT
ATOM      1  C   UNL     1       1.567   8.912  19.352  0.00  0.00    +0.000 A 
ATOM      2  C   UNL     1       2.230   7.987  18.523  0.00  0.00    +0.000 A 
ATOM      3  C   UNL     1       2.531   6.682  18.971  0.00  0.00    +0.000 A 
ATOM      4  C   UNL     1       2.226   6.336  20.290  0.00  0.00    +0.000 A 
ATOM      5  C   UNL     1       1.491   7.222  21.084  0.00  0.00    +0.000 A 
ATOM      6  C   UNL     1       1.133   8.492  20.624  0.00  0.00    +0.000 A 
ENDROOT
BRANCH   3   7
ATOM      7  C   UNL     1       3.068   5.661  18.069  0.00  0.00    +0.000 A 
ATOM      8  C   UNL     1       2.584   4.373  17.726  0.00  0.00    +0.000 A 
ATOM      9  C   UNL     1       1.331   3.695  18.145  0.00  0.00    +0.000 C 
ATOM     10  N   UNL     1       3.439   3.712  16.940  0.00  0.00    +0.000 NA
ATOM     11  N   UNL     1       4.466   4.574  16.714  0.00  0.00    +0.000 N 
ATOM     12  C   UNL     1       4.335   5.723  17.484  0.00  0.00    +0.000 A 
ATOM     13  N   UNL     1       5.310   6.684  17.734  0.00  0.00    +0.000 N 
ATOM     14  C   UNL     1       6.647   6.580  17.517  0.00  0.00    +0.000 C 
ATOM     15  O   UNL     1       7.402   7.118  18.332  0.00  0.00    +0.000 OA
ATOM     16  C   UNL     1       7.224   5.891  16.310  0.00  0.00    +0.000 C 
ATOM     17  C   UNL     1       6.237   5.412  15.278  0.00  0.00    +0.000 C 
ATOM     18  C   UNL     1       5.454   4.238  15.776  0.00  0.00    +0.000 C 
ATOM     19  O   UNL     1       5.592   3.090  15.368  0.00  0.00    +0.000 OA
ATOM     20  H   UNL     1       5.115   7.309  18.513  0.00  0.00    +0.000 HD
ENDBRANCH   3   7
BRANCH   1  21
ATOM     21  S   UNL     1       1.243  10.569  18.750  0.00  0.00    +0.000 S 
ATOM     22  O   UNL     1      -0.129  10.564  18.287  0.00  0.00    +0.000 OA
ATOM     23  O   UNL     1       2.351  10.920  17.893  0.00  0.00    +0.000 OA
BRANCH  21  24
ATOM     24  N   UNL     1       1.218  11.628  20.110  0.00  0.00    +0.000 N 
ATOM     25  H   UNL     1       1.194  11.000  20.922  0.00  0.00    +0.000 HD
BRANCH  24  31
ATOM     26  C   UNL     1       0.109  13.870  19.854  0.00  0.00    +0.000 A 
ATOM     27  C   UNL     1      -1.012  14.672  20.117  0.00  0.00    +0.000 A 
ATOM     28  C   UNL     1      -2.201  14.104  20.571  0.00  0.00    +0.000 A 
ATOM     29  C   UNL     1      -2.272  12.733  20.792  0.00  0.00    +0.000 A 
ATOM     30  C   UNL     1      -1.144  11.932  20.610  0.00  0.00    +0.000 A 
ATOM     31  C   UNL     1       0.055  12.490  20.153  0.00  0.00    +0.000 A 
BRANCH  26  33
ATOM     32  C   UNL     1       1.130  15.672  18.713  0.00  0.00    +0.000 C 
ATOM     33  O   UNL     1       1.263  14.365  19.290  0.00  0.00    +0.000 OA
ENDBRANCH  26  33
ENDBRANCH  24  31
ENDBRANCH  21  24
ENDBRANCH   1  21
BRANCH   6  34
ATOM     34  O   UNL     1       0.214   9.068  21.456  0.00  0.00    +0.000 OA
ATOM     35  C   UNL     1       0.550   9.298  22.812  0.00  0.00    +0.000 C 
ENDBRANCH   6  34
TORSDOF 6
ENDMDL
