MODEL 1
REMARK VINA RESULT:      -7.4      0.000      0.000
REMARK  Name = 
REMARK  3 active torsions:
REMARK  status: ('A' for Active; 'I' for Inactive)
REMARK    1  A    between atoms: C_1  and  C_2
REMARK    2  A    between atoms: N_4  and  C_5
REMARK    3  A    between atoms: C_9  and  C_10
REMARK                            x       y       z     vdW  Elec       q    Type
REMARK                         _______ _______ _______ _____ _____    ______ ____
ROOT
ATOM      1  C   UNL     1       5.941   4.142  14.520  0.00  0.00    +0.000 A 
ATOM      2  C   UNL     1       6.170   5.500  14.322  0.00  0.00    +0.000 A 
ATOM      3  C   UNL     1       5.730   6.429  15.258  0.00  0.00    +0.000 A 
ATOM      4  C   UNL     1       5.009   6.006  16.375  0.00  0.00    +0.000 A 
ATOM      5  C   UNL     1       4.749   4.641  16.577  0.00  0.00    +0.000 A 
ATOM      6  C   UNL     1       5.249   3.712  15.650  0.00  0.00    +0.000 A 
ENDROOT
BRANCH   5   7
ATOM      7  C   UNL     1       3.920   4.160  17.683  0.00  0.00    +0.000 A 
ATOM      8  C   UNL     1       4.308   3.428  18.786  0.00  0.00    +0.000 A 
ATOM      9  N   UNL     1       3.276   3.223  19.672  0.00  0.00    +0.000 N 
ATOM     10  C   UNL     1       3.448   2.505  20.974  0.00  0.00    +0.000 A 
ATOM     11  C   UNL     1       2.322   2.385  21.775  0.00  0.00    +0.000 A 
ATOM     12  C   UNL     1       1.102   2.915  21.360  0.00  0.00    +0.000 A 
ATOM     13  C   UNL     1       0.966   3.583  20.137  0.00  0.00    +0.000 A 
ATOM     14  C   UNL     1       2.097   3.719  19.319  0.00  0.00    +0.000 A 
ATOM     15  S   UNL     1       2.238   4.502  17.786  0.00  0.00    +0.000 S 
ENDBRANCH   5   7
BRANCH   1  19
ATOM     16  C   UNL     1       6.323   1.995  11.476  0.00  0.00    +0.000 C 
ATOM     17  C   UNL     1       5.667   3.040  12.338  0.00  0.00    +0.000 C 
ATOM     18  O   UNL     1       4.613   3.588  12.004  0.00  0.00    +0.000 OA
ATOM     19  N   UNL     1       6.337   3.248  13.516  0.00  0.00    +0.000 N 
ATOM     20  H   UNL     1       7.104   2.613  13.764  0.00  0.00    +0.000 HD
ENDBRANCH   1  19
TORSDOF 2
ENDMDL
MODEL 2
REMARK VINA RESULT:      -7.2      1.179      1.234
REMARK  Name = 
REMARK  3 active torsions:
REMARK  status: ('A' for Active; 'I' for Inactive)
REMARK    1  A    between atoms: C_1  and  C_2
REMARK    2  A    between atoms: N_4  and  C_5
REMARK    3  A    between atoms: C_9  and  C_10
REMARK                            x       y       z     vdW  Elec       q    Type
REMARK                         _______ _______ _______ _____ _____    ______ ____
ROOT
ATOM      1  C   UNL     1       6.354   3.920  14.234  0.00  0.00    +0.000 A 
ATOM      2  C   UNL     1       7.126   5.078  14.209  0.00  0.00    +0.000 A 
ATOM      3  C   UNL     1       7.014   6.017  15.228  0.00  0.00    +0.000 A 
ATOM      4  C   UNL     1       6.089   5.825  16.254  0.00  0.00    +0.000 A 
ATOM      5  C   UNL     1       5.286   4.674  16.281  0.00  0.00    +0.000 A 
ATOM      6  C   UNL     1       5.451   3.710  15.274  0.00  0.00    +0.000 A 
ENDROOT
BRANCH   5   7
ATOM      7  C   UNL     1       4.239   4.475  17.285  0.00  0.00    +0.000 A 
ATOM      8  C   UNL     1       3.525   3.327  17.558  0.00  0.00    +0.000 A 
ATOM      9  N   UNL     1       2.677   3.477  18.631  0.00  0.00    +0.000 N 
ATOM     10  C   UNL     1       1.831   2.363  19.165  0.00  0.00    +0.000 A 
ATOM     11  C   UNL     1       1.033   2.656  20.262  0.00  0.00    +0.000 A 
ATOM     12  C   UNL     1       1.038   3.934  20.815  0.00  0.00    +0.000 A 
ATOM     13  C   UNL     1       1.838   4.960  20.298  0.00  0.00    +0.000 A 
ATOM     14  C   UNL     1       2.656   4.678  19.193  0.00  0.00    +0.000 A 
ATOM     15  S   UNL     1       3.753   5.723  18.363  0.00  0.00    +0.000 S 
ENDBRANCH   5   7
BRANCH   1  19
ATOM     16  C   UNL     1       5.894   1.884  11.125  0.00  0.00    +0.000 C 
ATOM     17  C   UNL     1       5.537   2.950  12.127  0.00  0.00    +0.000 C 
ATOM     18  O   UNL     1       4.501   3.613  12.027  0.00  0.00    +0.000 OA
ATOM     19  N   UNL     1       6.446   3.038  13.149  0.00  0.00    +0.000 N 
ATOM     20  H   UNL     1       7.176   2.320  13.221  0.00  0.00    +0.000 HD
ENDBRANCH   1  19
TORSDOF 2
ENDMDL
MODEL 3
REMARK VINA RESULT:      -7.2      2.866      3.989
REMARK  Name = 
REMARK  3 active torsions:
REMARK  status: ('A' for Active; 'I' for Inactive)
REMARK    1  A    between atoms: C_1  and  C_2
REMARK    2  A    between atoms: N_4  and  C_5
REMARK    3  A    between atoms: C_9  and  C_10
REMARK                            x       y       z     vdW  Elec       q    Type
REMARK                         _______ _______ _______ _____ _____    ______ ____
ROOT
ATOM      1  C   UNL     1       6.706   6.400  16.551  0.00  0.00    +0.000 A 
ATOM      2  C   UNL     1       7.259   5.637  15.527  0.00  0.00    +0.000 A 
ATOM      3  C   UNL     1       6.751   4.374  15.241  0.00  0.00    +0.000 A 
ATOM      4  C   UNL     1       5.718   3.846  16.015  0.00  0.00    +0.000 A 
ATOM      5  C   UNL     1       5.165   4.593  17.067  0.00  0.00    +0.000 A 
ATOM      6  C   UNL     1       5.652   5.888  17.307  0.00  0.00    +0.000 A 
ENDROOT
BRANCH   5   7
ATOM      7  C   UNL     1       4.145   4.045  17.963  0.00  0.00    +0.000 A 
ATOM      8  C   UNL     1       4.265   3.724  19.299  0.00  0.00    +0.000 A 
ATOM      9  N   UNL     1       3.074   3.312  19.851  0.00  0.00    +0.000 N 
ATOM     10  C   UNL     1       2.923   2.958  21.297  0.00  0.00    +0.000 A 
ATOM     11  C   UNL     1       1.659   2.573  21.717  0.00  0.00    +0.000 A 
ATOM     12  C   UNL     1       0.600   2.524  20.813  0.00  0.00    +0.000 A 
ATOM     13  C   UNL     1       0.766   2.860  19.463  0.00  0.00    +0.000 A 
ATOM     14  C   UNL     1       2.037   3.258  19.024  0.00  0.00    +0.000 A 
ATOM     15  S   UNL     1       2.534   3.746  17.444  0.00  0.00    +0.000 S 
ENDBRANCH   5   7
BRANCH   1  19
ATOM     16  C   UNL     1       8.514   9.326  18.030  0.00  0.00    +0.000 C 
ATOM     17  C   UNL     1       8.041   7.898  17.972  0.00  0.00    +0.000 C 
ATOM     18  O   UNL     1       8.280   7.099  18.882  0.00  0.00    +0.000 OA
ATOM     19  N   UNL     1       7.295   7.634  16.853  0.00  0.00    +0.000 N 
ATOM     20  H   UNL     1       7.017   8.418  16.252  0.00  0.00    +0.000 HD
ENDBRANCH   1  19
TORSDOF 2
ENDMDL
MODEL 4
REMARK VINA RESULT:      -7.0      0.937      1.413
REMARK  Name = 
REMARK  3 active torsions:
REMARK  status: ('A' for Active; 'I' for Inactive)
REMARK    1  A    between atoms: C_1  and  C_2
REMARK    2  A    between atoms: N_4  and  C_5
REMARK    3  A    between atoms: C_9  and  C_10
REMARK                            x       y       z     vdW  Elec       q    Type
REMARK                         _______ _______ _______ _____ _____    ______ ____
ROOT
ATOM      1  C   UNL     1       6.041   4.060  14.476  0.00  0.00    +0.000 A 
ATOM      2  C   UNL     1       6.349   5.398  14.246  0.00  0.00    +0.000 A 
ATOM      3  C   UNL     1       6.020   6.365  15.189  0.00  0.00    +0.000 A 
ATOM      4  C   UNL     1       5.332   6.005  16.347  0.00  0.00    +0.000 A 
ATOM      5  C   UNL     1       4.991   4.663  16.583  0.00  0.00    +0.000 A 
ATOM      6  C   UNL     1       5.380   3.692  15.647  0.00  0.00    +0.000 A 
ENDROOT
BRANCH   5   7
ATOM      7  C   UNL     1       4.190   4.252  17.737  0.00  0.00    +0.000 A 
ATOM      8  C   UNL     1       2.816   4.215  17.853  0.00  0.00    +0.000 A 
ATOM      9  N   UNL     1       2.403   3.690  19.055  0.00  0.00    +0.000 N 
ATOM     10  C   UNL     1       0.962   3.491  19.408  0.00  0.00    +0.000 A 
ATOM     11  C   UNL     1       0.693   2.937  20.650  0.00  0.00    +0.000 A 
ATOM     12  C   UNL     1       1.735   2.595  21.510  0.00  0.00    +0.000 A 
ATOM     13  C   UNL     1       3.077   2.791  21.158  0.00  0.00    +0.000 A 
ATOM     14  C   UNL     1       3.365   3.343  19.901  0.00  0.00    +0.000 A 
ATOM     15  S   UNL     1       4.904   3.677  19.191  0.00  0.00    +0.000 S 
ENDBRANCH   5   7
BRANCH   1  19
ATOM     16  C   UNL     1       6.136   1.873  11.439  0.00  0.00    +0.000 C 
ATOM     17  C   UNL     1       5.602   2.977  12.313  0.00  0.00    +0.000 C 
ATOM     18  O   UNL     1       4.591   3.613  12.007  0.00  0.00    +0.000 OA
ATOM     19  N   UNL     1       6.325   3.130  13.468  0.00  0.00    +0.000 N 
ATOM     20  H   UNL     1       7.041   2.431  13.697  0.00  0.00    +0.000 HD
ENDBRANCH   1  19
TORSDOF 2
ENDMDL
MODEL 5
REMARK VINA RESULT:      -7.0      1.186      1.418
REMARK  Name = 
REMARK  3 active torsions:
REMARK  status: ('A' for Active; 'I' for Inactive)
REMARK    1  A    between atoms: C_1  and  C_2
REMARK    2  A    between atoms: N_4  and  C_5
REMARK    3  A    between atoms: C_9  and  C_10
REMARK                            x       y       z     vdW  Elec       q    Type
REMARK                         _______ _______ _______ _____ _____    ______ ____
ROOT
ATOM      1  C   UNL     1       6.386   3.886  14.229  0.00  0.00    +0.000 A 
ATOM      2  C   UNL     1       7.063   5.101  14.194  0.00  0.00    +0.000 A 
ATOM      3  C   UNL     1       6.929   6.009  15.240  0.00  0.00    +0.000 A 
ATOM      4  C   UNL     1       6.073   5.726  16.303  0.00  0.00    +0.000 A 
ATOM      5  C   UNL     1       5.363   4.515  16.342  0.00  0.00    +0.000 A 
ATOM      6  C   UNL     1       5.553   3.586  15.306  0.00  0.00    +0.000 A 
ENDROOT
BRANCH   5   7
ATOM      7  C   UNL     1       4.385   4.215  17.389  0.00  0.00    +0.000 A 
ATOM      8  C   UNL     1       3.766   5.091  18.256  0.00  0.00    +0.000 A 
ATOM      9  N   UNL     1       2.833   4.472  19.055  0.00  0.00    +0.000 N 
ATOM     10  C   UNL     1       1.986   5.209  20.043  0.00  0.00    +0.000 A 
ATOM     11  C   UNL     1       1.075   4.456  20.770  0.00  0.00    +0.000 A 
ATOM     12  C   UNL     1       0.981   3.081  20.571  0.00  0.00    +0.000 A 
ATOM     13  C   UNL     1       1.785   2.412  19.639  0.00  0.00    +0.000 A 
ATOM     14  C   UNL     1       2.705   3.161  18.891  0.00  0.00    +0.000 A 
ATOM     15  S   UNL     1       3.801   2.623  17.669  0.00  0.00    +0.000 S 
ENDBRANCH   5   7
BRANCH   1  19
ATOM     16  C   UNL     1       5.946   1.904  11.083  0.00  0.00    +0.000 C 
ATOM     17  C   UNL     1       5.564   2.928  12.119  0.00  0.00    +0.000 C 
ATOM     18  O   UNL     1       4.496   3.544  12.059  0.00  0.00    +0.000 OA
ATOM     19  N   UNL     1       6.492   3.035  13.122  0.00  0.00    +0.000 N 
ATOM     20  H   UNL     1       7.256   2.351  13.159  0.00  0.00    +0.000 HD
ENDBRANCH   1  19
TORSDOF 2
ENDMDL
MODEL 6
REMARK VINA RESULT:      -6.9      4.925      6.076
REMARK  Name = 
REMARK  3 active torsions:
REMARK  status: ('A' for Active; 'I' for Inactive)
REMARK    1  A    between atoms: C_1  and  C_2
REMARK    2  A    between atoms: N_4  and  C_5
REMARK    3  A    between atoms: C_9  and  C_10
REMARK                            x       y       z     vdW  Elec       q    Type
REMARK                         _______ _______ _______ _____ _____    ______ ____
ROOT
ATOM      1  C   UNL     1       3.386   5.019  17.990  0.00  0.00    +0.000 A 
ATOM      2  C   UNL     1       4.243   5.538  17.025  0.00  0.00    +0.000 A 
ATOM      3  C   UNL     1       4.381   6.914  16.876  0.00  0.00    +0.000 A 
ATOM      4  C   UNL     1       3.620   7.780  17.661  0.00  0.00    +0.000 A 
ATOM      5  C   UNL     1       2.733   7.272  18.624  0.00  0.00    +0.000 A 
ATOM      6  C   UNL     1       2.647   5.882  18.798  0.00  0.00    +0.000 A 
ENDROOT
BRANCH   5   7
ATOM      7  C   UNL     1       1.848   8.138  19.405  0.00  0.00    +0.000 A 
ATOM      8  C   UNL     1       1.475   8.010  20.726  0.00  0.00    +0.000 A 
ATOM      9  N   UNL     1       0.697   9.058  21.159  0.00  0.00    +0.000 N 
ATOM     10  C   UNL     1       0.207   9.185  22.567  0.00  0.00    +0.000 A 
ATOM     11  C   UNL     1      -0.557  10.304  22.865  0.00  0.00    +0.000 A 
ATOM     12  C   UNL     1      -0.842  11.245  21.878  0.00  0.00    +0.000 A 
ATOM     13  C   UNL     1      -0.372  11.105  20.566  0.00  0.00    +0.000 A 
ATOM     14  C   UNL     1       0.409   9.983  20.251  0.00  0.00    +0.000 A 
ATOM     15  S   UNL     1       1.137   9.558  18.744  0.00  0.00    +0.000 S 
ENDBRANCH   5   7
BRANCH   1  19
ATOM     16  C   UNL     1       3.585   1.340  18.653  0.00  0.00    +0.000 C 
ATOM     17  C   UNL     1       3.982   2.783  18.820  0.00  0.00    +0.000 C 
ATOM     18  O   UNL     1       4.928   3.115  19.538  0.00  0.00    +0.000 OA
ATOM     19  N   UNL     1       3.223   3.630  18.055  0.00  0.00    +0.000 N 
ATOM     20  H   UNL     1       2.578   3.226  17.366  0.00  0.00    +0.000 HD
ENDBRANCH   1  19
TORSDOF 2
ENDMDL
MODEL 7
REMARK VINA RESULT:      -6.8      5.078      6.317
REMARK  Name = 
REMARK  3 active torsions:
REMARK  status: ('A' for Active; 'I' for Inactive)
REMARK    1  A    between atoms: C_1  and  C_2
REMARK    2  A    between atoms: N_4  and  C_5
REMARK    3  A    between atoms: C_9  and  C_10
REMARK                            x       y       z     vdW  Elec       q    Type
REMARK                         _______ _______ _______ _____ _____    ______ ____
ROOT
ATOM      1  C   UNL     1       3.408   5.334  18.497  0.00  0.00    +0.000 A 
ATOM      2  C   UNL     1       4.060   5.823  17.369  0.00  0.00    +0.000 A 
ATOM      3  C   UNL     1       3.970   7.170  17.036  0.00  0.00    +0.000 A 
ATOM      4  C   UNL     1       3.181   8.027  17.803  0.00  0.00    +0.000 A 
ATOM      5  C   UNL     1       2.498   7.545  18.930  0.00  0.00    +0.000 A 
ATOM      6  C   UNL     1       2.644   6.194  19.284  0.00  0.00    +0.000 A 
ENDROOT
BRANCH   5   7
ATOM      7  C   UNL     1       1.587   8.385  19.710  0.00  0.00    +0.000 A 
ATOM      8  C   UNL     1       1.197   8.230  21.024  0.00  0.00    +0.000 A 
ATOM      9  N   UNL     1       0.395   9.259  21.460  0.00  0.00    +0.000 N 
ATOM     10  C   UNL     1      -0.118   9.357  22.863  0.00  0.00    +0.000 A 
ATOM     11  C   UNL     1      -0.905  10.459  23.164  0.00  0.00    +0.000 A 
ATOM     12  C   UNL     1      -1.190  11.410  22.187  0.00  0.00    +0.000 A 
ATOM     13  C   UNL     1      -0.699  11.297  20.881  0.00  0.00    +0.000 A 
ATOM     14  C   UNL     1       0.105  10.192  20.562  0.00  0.00    +0.000 A 
ATOM     15  S   UNL     1       0.862   9.802  19.059  0.00  0.00    +0.000 S 
ENDBRANCH   5   7
BRANCH   1  19
ATOM     16  C   UNL     1       2.892   1.634  18.742  0.00  0.00    +0.000 C 
ATOM     17  C   UNL     1       2.586   3.028  18.263  0.00  0.00    +0.000 C 
ATOM     18  O   UNL     1       1.609   3.269  17.550  0.00  0.00    +0.000 OA
ATOM     19  N   UNL     1       3.466   3.958  18.754  0.00  0.00    +0.000 N 
ATOM     20  H   UNL     1       4.136   3.669  19.476  0.00  0.00    +0.000 HD
ENDBRANCH   1  19
TORSDOF 2
ENDMDL
MODEL 8
REMARK VINA RESULT:      -6.8      6.624      8.400
REMARK  Name = 
REMARK  3 active torsions:
REMARK  status: ('A' for Active; 'I' for Inactive)
REMARK    1  A    between atoms: C_1  and  C_2
REMARK    2  A    between atoms: N_4  and  C_5
REMARK    3  A    between atoms: C_9  and  C_10
REMARK                            x       y       z     vdW  Elec       q    Type
REMARK                         _______ _______ _______ _____ _____    ______ ____
ROOT
ATOM      1  C   UNL     1       2.483   6.464  19.956  0.00  0.00    +0.000 A 
ATOM      2  C   UNL     1       2.913   6.595  18.639  0.00  0.00    +0.000 A 
ATOM      3  C   UNL     1       2.632   7.753  17.921  0.00  0.00    +0.000 A 
ATOM      4  C   UNL     1       1.871   8.766  18.503  0.00  0.00    +0.000 A 
ATOM      5  C   UNL     1       1.409   8.640  19.823  0.00  0.00    +0.000 A 
ATOM      6  C   UNL     1       1.749   7.489  20.551  0.00  0.00    +0.000 A 
ENDROOT
BRANCH   5   7
ATOM      7  C   UNL     1       0.531   9.634  20.443  0.00  0.00    +0.000 A 
ATOM      8  C   UNL     1      -0.263  10.577  19.824  0.00  0.00    +0.000 A 
ATOM      9  N   UNL     1      -1.026  11.292  20.717  0.00  0.00    +0.000 N 
ATOM     10  C   UNL     1      -2.011  12.338  20.297  0.00  0.00    +0.000 A 
ATOM     11  C   UNL     1      -2.722  12.968  21.307  0.00  0.00    +0.000 A 
ATOM     12  C   UNL     1      -2.505  12.626  22.640  0.00  0.00    +0.000 A 
ATOM     13  C   UNL     1      -1.578  11.644  23.009  0.00  0.00    +0.000 A 
ATOM     14  C   UNL     1      -0.856  10.992  21.999  0.00  0.00    +0.000 A 
ATOM     15  S   UNL     1       0.324   9.740  22.146  0.00  0.00    +0.000 S 
ENDBRANCH   5   7
BRANCH   1  19
ATOM     16  C   UNL     1       2.370   3.063  21.517  0.00  0.00    +0.000 C 
ATOM     17  C   UNL     1       1.829   4.220  20.720  0.00  0.00    +0.000 C 
ATOM     18  O   UNL     1       0.680   4.218  20.272  0.00  0.00    +0.000 OA
ATOM     19  N   UNL     1       2.725   5.253  20.616  0.00  0.00    +0.000 N 
ATOM     20  H   UNL     1       3.586   5.215  21.174  0.00  0.00    +0.000 HD
ENDBRANCH   1  19
TORSDOF 2
ENDMDL
MODEL 9
REMARK VINA RESULT:      -6.8      5.281      6.768
REMARK  Name = 
REMARK  3 active torsions:
REMARK  status: ('A' for Active; 'I' for Inactive)
REMARK    1  A    between atoms: C_1  and  C_2
REMARK    2  A    between atoms: N_4  and  C_5
REMARK    3  A    between atoms: C_9  and  C_10
REMARK                            x       y       z     vdW  Elec       q    Type
REMARK                         _______ _______ _______ _____ _____    ______ ____
ROOT
ATOM      1  C   UNL     1       4.072   5.029  18.912  0.00  0.00    +0.000 A 
ATOM      2  C   UNL     1       3.599   4.026  19.753  0.00  0.00    +0.000 A 
ATOM      3  C   UNL     1       2.479   4.247  20.547  0.00  0.00    +0.000 A 
ATOM      4  C   UNL     1       1.856   5.495  20.541  0.00  0.00    +0.000 A 
ATOM      5  C   UNL     1       2.335   6.525  19.717  0.00  0.00    +0.000 A 
ATOM      6  C   UNL     1       3.433   6.267  18.881  0.00  0.00    +0.000 A 
ENDROOT
BRANCH   5   7
ATOM      7  C   UNL     1       1.772   7.876  19.747  0.00  0.00    +0.000 A 
ATOM      8  C   UNL     1       1.207   8.542  20.814  0.00  0.00    +0.000 A 
ATOM      9  N   UNL     1       0.859   9.836  20.502  0.00  0.00    +0.000 N 
ATOM     10  C   UNL     1       0.277  10.789  21.500  0.00  0.00    +0.000 A 
ATOM     11  C   UNL     1      -0.012  12.068  21.048  0.00  0.00    +0.000 A 
ATOM     12  C   UNL     1       0.235  12.419  19.722  0.00  0.00    +0.000 A 
ATOM     13  C   UNL     1       0.780  11.510  18.807  0.00  0.00    +0.000 A 
ATOM     14  C   UNL     1       1.085  10.215  19.250  0.00  0.00    +0.000 A 
ATOM     15  S   UNL     1       1.777   8.902  18.367  0.00  0.00    +0.000 S 
ENDBRANCH   5   7
BRANCH   1  19
ATOM     16  C   UNL     1       7.572   4.641  17.641  0.00  0.00    +0.000 C 
ATOM     17  C   UNL     1       6.518   4.949  18.671  0.00  0.00    +0.000 C 
ATOM     18  O   UNL     1       6.812   5.349  19.800  0.00  0.00    +0.000 OA
ATOM     19  N   UNL     1       5.246   4.788  18.186  0.00  0.00    +0.000 N 
ATOM     20  H   UNL     1       5.120   4.618  17.182  0.00  0.00    +0.000 HD
ENDBRANCH   1  19
TORSDOF 2
ENDMDL
