MODEL 1
REMARK VINA RESULT:      -7.9      0.000      0.000
REMARK  Name = 
REMARK  11 active torsions:
REMARK  status: ('A' for Active; 'I' for Inactive)
REMARK    1  A    between atoms: C_1  and  O_2
REMARK    2  A    between atoms: O_2  and  C_3
REMARK    3  A    between atoms: C_4  and  C_5
REMARK    4  A    between atoms: C_5  and  N_6
REMARK    5  A    between atoms: N_6  and  C_7
REMARK    6  A    between atoms: N_6  and  S_14
REMARK    7  A    between atoms: C_7  and  C_8
REMARK    8  A    between atoms: S_14  and  C_17
REMARK    9  A    between atoms: C_20  and  C_21
REMARK   10  A    between atoms: C_29  and  C_30
REMARK   11  A    between atoms: C_29  and  C_31
REMARK                            x       y       z     vdW  Elec       q    Type
REMARK                         _______ _______ _______ _____ _____    ______ ____
ROOT
ATOM      1  N   UNL     1       0.065  10.273  19.594  0.00  0.00    +0.000 NA
ENDROOT
BRANCH   1   2
ATOM      2  S   UNL     1       0.371  11.839  20.247  0.00  0.00    +0.000 S 
ATOM      3  O   UNL     1       1.535  11.741  21.107  0.00  0.00    +0.000 OA
ATOM      4  O   UNL     1       0.336  12.822  19.189  0.00  0.00    +0.000 OA
BRANCH   2   5
ATOM      5  C   UNL     1      -1.010  12.154  21.330  0.00  0.00    +0.000 A 
ATOM      6  C   UNL     1      -1.121  11.471  22.543  0.00  0.00    +0.000 A 
ATOM      7  C   UNL     1      -2.216  11.707  23.377  0.00  0.00    +0.000 A 
ATOM      8  C   UNL     1      -3.180  12.659  23.025  0.00  0.00    +0.000 A 
ATOM      9  C   UNL     1      -4.350  12.931  23.925  0.00  0.00    +0.000 C 
ATOM     10  C   UNL     1      -3.037  13.372  21.827  0.00  0.00    +0.000 A 
ATOM     11  C   UNL     1      -1.958  13.119  20.977  0.00  0.00    +0.000 A 
ENDBRANCH   2   5
ENDBRANCH   1   2
BRANCH   1  12
ATOM     12  C   UNL     1       0.950   9.220  20.208  0.00  0.00    +0.000 C 
BRANCH  12  14
ATOM     13  C   UNL     1       2.267   7.099  19.620  0.00  0.00    +0.000 A 
ATOM     14  C   UNL     1       1.846   8.404  19.292  0.00  0.00    +0.000 A 
ATOM     15  C   UNL     1       2.250   8.969  18.068  0.00  0.00    +0.000 A 
ATOM     16  C   UNL     1       3.086   8.271  17.201  0.00  0.00    +0.000 A 
ATOM     17  C   UNL     1       3.604   7.033  17.583  0.00  0.00    +0.000 A 
ATOM     18  C   UNL     1       3.242   6.473  18.819  0.00  0.00    +0.000 A 
ATOM     19  O   UNL     1       3.849   5.331  19.278  0.00  0.00    +0.000 OA
ATOM     20  C   UNL     1       5.086   4.914  18.655  0.00  0.00    +0.000 C 
ATOM     21  C   UNL     1       6.285   5.526  19.396  0.00  0.00    +0.000 C 
ATOM     22  C   UNL     1       5.123   3.392  18.828  0.00  0.00    +0.000 C 
ATOM     23  C   UNL     1       5.189   5.287  17.195  0.00  0.00    +0.000 C 
ATOM     24  C   UNL     1       4.498   6.311  16.686  0.00  0.00    +0.000 C 
BRANCH  13  26
ATOM     25  C   UNL     1       1.155   5.248  20.647  0.00  0.00    +0.000 C 
ATOM     26  O   UNL     1       1.684   6.568  20.742  0.00  0.00    +0.000 OA
ENDBRANCH  13  26
ENDBRANCH  12  14
ENDBRANCH   1  12
BRANCH   1  27
ATOM     27  C   UNL     1      -1.345   9.833  19.371  0.00  0.00    +0.000 C 
BRANCH  27  28
ATOM     28  C   UNL     1      -2.126  10.303  18.160  0.00  0.00    +0.000 A 
ATOM     29  C   UNL     1      -3.141  11.263  18.218  0.00  0.00    +0.000 A 
ATOM     30  C   UNL     1      -3.922  11.542  17.091  0.00  0.00    +0.000 A 
ATOM     31  C   UNL     1      -3.639  10.934  15.870  0.00  0.00    +0.000 A 
ATOM     32  C   UNL     1      -2.541  10.088  15.764  0.00  0.00    +0.000 A 
ATOM     33  C   UNL     1      -1.789   9.780  16.898  0.00  0.00    +0.000 A 
ENDBRANCH  27  28
ENDBRANCH   1  27
TORSDOF 7
ENDMDL
MODEL 2
REMARK VINA RESULT:      -7.7      0.177      1.195
REMARK  Name = 
REMARK  11 active torsions:
REMARK  status: ('A' for Active; 'I' for Inactive)
REMARK    1  A    between atoms: C_1  and  O_2
REMARK    2  A    between atoms: O_2  and  C_3
REMARK    3  A    between atoms: C_4  and  C_5
REMARK    4  A    between atoms: C_5  and  N_6
REMARK    5  A    between atoms: N_6  and  C_7
REMARK    6  A    between atoms: N_6  and  S_14
REMARK    7  A    between atoms: C_7  and  C_8
REMARK    8  A    between atoms: S_14  and  C_17
REMARK    9  A    between atoms: C_20  and  C_21
REMARK   10  A    between atoms: C_29  and  C_30
REMARK   11  A    between atoms: C_29  and  C_31
REMARK                            x       y       z     vdW  Elec       q    Type
REMARK                         _______ _______ _______ _____ _____    ______ ____
ROOT
ATOM      1  N   UNL     1       0.012  10.359  19.553  0.00  0.00    +0.000 NA
ENDROOT
BRANCH   1   2
ATOM      2  S   UNL     1       0.246  11.962  20.146  0.00  0.00    +0.000 S 
ATOM      3  O   UNL     1       1.438  11.957  20.974  0.00  0.00    +0.000 OA
ATOM      4  O   UNL     1       0.125  12.905  19.060  0.00  0.00    +0.000 OA
BRANCH   2   5
ATOM      5  C   UNL     1      -1.120  12.234  21.260  0.00  0.00    +0.000 A 
ATOM      6  C   UNL     1      -2.162  13.090  20.896  0.00  0.00    +0.000 A 
ATOM      7  C   UNL     1      -3.219  13.314  21.781  0.00  0.00    +0.000 A 
ATOM      8  C   UNL     1      -3.262  12.650  23.013  0.00  0.00    +0.000 A 
ATOM      9  C   UNL     1      -4.404  12.873  23.961  0.00  0.00    +0.000 C 
ATOM     10  C   UNL     1      -2.236  11.758  23.350  0.00  0.00    +0.000 A 
ATOM     11  C   UNL     1      -1.163  11.553  22.479  0.00  0.00    +0.000 A 
ENDBRANCH   2   5
ENDBRANCH   1   2
BRANCH   1  12
ATOM     12  C   UNL     1       0.959   9.376  20.187  0.00  0.00    +0.000 C 
BRANCH  12  14
ATOM     13  C   UNL     1       2.195   7.202  19.616  0.00  0.00    +0.000 A 
ATOM     14  C   UNL     1       1.829   8.522  19.281  0.00  0.00    +0.000 A 
ATOM     15  C   UNL     1       2.266   9.066  18.059  0.00  0.00    +0.000 A 
ATOM     16  C   UNL     1       3.080   8.332  17.201  0.00  0.00    +0.000 A 
ATOM     17  C   UNL     1       3.544   7.076  17.591  0.00  0.00    +0.000 A 
ATOM     18  C   UNL     1       3.150   6.534  18.825  0.00  0.00    +0.000 A 
ATOM     19  O   UNL     1       3.707   5.370  19.292  0.00  0.00    +0.000 OA
ATOM     20  C   UNL     1       4.931   4.902  18.680  0.00  0.00    +0.000 C 
ATOM     21  C   UNL     1       6.148   5.468  19.430  0.00  0.00    +0.000 C 
ATOM     22  C   UNL     1       4.905   3.380  18.859  0.00  0.00    +0.000 C 
ATOM     23  C   UNL     1       5.061   5.266  17.221  0.00  0.00    +0.000 C 
ATOM     24  C   UNL     1       4.416   6.316  16.703  0.00  0.00    +0.000 C 
BRANCH  13  26
ATOM     25  C   UNL     1       1.386   5.288  20.800  0.00  0.00    +0.000 C 
ATOM     26  O   UNL     1       1.581   6.698  20.735  0.00  0.00    +0.000 OA
ENDBRANCH  13  26
ENDBRANCH  12  14
ENDBRANCH   1  12
BRANCH   1  27
ATOM     27  C   UNL     1      -1.376   9.841  19.369  0.00  0.00    +0.000 C 
BRANCH  27  28
ATOM     28  C   UNL     1      -2.189  10.204  18.141  0.00  0.00    +0.000 A 
ATOM     29  C   UNL     1      -1.845   9.817  16.843  0.00  0.00    +0.000 A 
ATOM     30  C   UNL     1      -2.554  10.310  15.742  0.00  0.00    +0.000 A 
ATOM     31  C   UNL     1      -3.671  11.120  15.929  0.00  0.00    +0.000 A 
ATOM     32  C   UNL     1      -4.112  11.393  17.220  0.00  0.00    +0.000 A 
ATOM     33  C   UNL     1      -3.379  10.934  18.315  0.00  0.00    +0.000 A 
ENDBRANCH  27  28
ENDBRANCH   1  27
TORSDOF 7
ENDMDL
MODEL 3
REMARK VINA RESULT:      -7.7      3.117      9.251
REMARK  Name = 
REMARK  11 active torsions:
REMARK  status: ('A' for Active; 'I' for Inactive)
REMARK    1  A    between atoms: C_1  and  O_2
REMARK    2  A    between atoms: O_2  and  C_3
REMARK    3  A    between atoms: C_4  and  C_5
REMARK    4  A    between atoms: C_5  and  N_6
REMARK    5  A    between atoms: N_6  and  C_7
REMARK    6  A    between atoms: N_6  and  S_14
REMARK    7  A    between atoms: C_7  and  C_8
REMARK    8  A    between atoms: S_14  and  C_17
REMARK    9  A    between atoms: C_20  and  C_21
REMARK   10  A    between atoms: C_29  and  C_30
REMARK   11  A    between atoms: C_29  and  C_31
REMARK                            x       y       z     vdW  Elec       q    Type
REMARK                         _______ _______ _______ _____ _____    ______ ____
ROOT
ATOM      1  N   UNL     1       3.858   6.290  18.341  0.00  0.00    +0.000 NA
ENDROOT
BRANCH   1   2
ATOM      2  S   UNL     1       5.552   6.294  18.018  0.00  0.00    +0.000 S 
ATOM      3  O   UNL     1       5.951   7.666  17.765  0.00  0.00    +0.000 OA
ATOM      4  O   UNL     1       6.240   5.516  19.021  0.00  0.00    +0.000 OA
BRANCH   2   5
ATOM      5  C   UNL     1       5.716   5.443  16.459  0.00  0.00    +0.000 A 
ATOM      6  C   UNL     1       6.180   4.126  16.424  0.00  0.00    +0.000 A 
ATOM      7  C   UNL     1       6.325   3.472  15.199  0.00  0.00    +0.000 A 
ATOM      8  C   UNL     1       5.965   4.114  14.008  0.00  0.00    +0.000 A 
ATOM      9  C   UNL     1       6.101   3.411  12.689  0.00  0.00    +0.000 C 
ATOM     10  C   UNL     1       5.457   5.419  14.057  0.00  0.00    +0.000 A 
ATOM     11  C   UNL     1       5.337   6.086  15.278  0.00  0.00    +0.000 A 
ENDBRANCH   2   5
ENDBRANCH   1   2
BRANCH   1  12
ATOM     12  C   UNL     1       3.225   7.627  18.063  0.00  0.00    +0.000 C 
BRANCH  12  14
ATOM     13  C   UNL     1       1.474   9.345  18.814  0.00  0.00    +0.000 A 
ATOM     14  C   UNL     1       2.208   8.166  19.055  0.00  0.00    +0.000 A 
ATOM     15  C   UNL     1       1.985   7.450  20.246  0.00  0.00    +0.000 A 
ATOM     16  C   UNL     1       1.078   7.911  21.196  0.00  0.00    +0.000 A 
ATOM     17  C   UNL     1       0.447   9.141  21.014  0.00  0.00    +0.000 A 
ATOM     18  C   UNL     1       0.690   9.888  19.850  0.00  0.00    +0.000 A 
ATOM     19  O   UNL     1       0.195  11.161  19.716  0.00  0.00    +0.000 OA
ATOM     20  C   UNL     1      -0.270  11.845  20.903  0.00  0.00    +0.000 C 
ATOM     21  C   UNL     1       0.878  12.647  21.536  0.00  0.00    +0.000 C 
ATOM     22  C   UNL     1      -1.338  12.823  20.402  0.00  0.00    +0.000 C 
ATOM     23  C   UNL     1      -0.842  10.922  21.952  0.00  0.00    +0.000 C 
ATOM     24  C   UNL     1      -0.484   9.636  22.020  0.00  0.00    +0.000 C 
BRANCH  13  26
ATOM     25  C   UNL     1       2.338  11.108  17.447  0.00  0.00    +0.000 C 
ATOM     26  O   UNL     1       1.629   9.876  17.558  0.00  0.00    +0.000 OA
ENDBRANCH  13  26
ENDBRANCH  12  14
ENDBRANCH   1  12
BRANCH   1  27
ATOM     27  C   UNL     1       3.032   5.121  17.913  0.00  0.00    +0.000 C 
BRANCH  27  28
ATOM     28  C   UNL     1       2.397   4.199  18.935  0.00  0.00    +0.000 A 
ATOM     29  C   UNL     1       1.259   3.428  18.680  0.00  0.00    +0.000 A 
ATOM     30  C   UNL     1       0.637   2.713  19.710  0.00  0.00    +0.000 A 
ATOM     31  C   UNL     1       1.198   2.686  20.985  0.00  0.00    +0.000 A 
ATOM     32  C   UNL     1       2.408   3.329  21.216  0.00  0.00    +0.000 A 
ATOM     33  C   UNL     1       3.005   4.074  20.197  0.00  0.00    +0.000 A 
ENDBRANCH  27  28
ENDBRANCH   1  27
TORSDOF 7
ENDMDL
MODEL 4
REMARK VINA RESULT:      -7.7      1.258      2.656
REMARK  Name = 
REMARK  11 active torsions:
REMARK  status: ('A' for Active; 'I' for Inactive)
REMARK    1  A    between atoms: C_1  and  O_2
REMARK    2  A    between atoms: O_2  and  C_3
REMARK    3  A    between atoms: C_4  and  C_5
REMARK    4  A    between atoms: C_5  and  N_6
REMARK    5  A    between atoms: N_6  and  C_7
REMARK    6  A    between atoms: N_6  and  S_14
REMARK    7  A    between atoms: C_7  and  C_8
REMARK    8  A    between atoms: S_14  and  C_17
REMARK    9  A    between atoms: C_20  and  C_21
REMARK   10  A    between atoms: C_29  and  C_30
REMARK   11  A    between atoms: C_29  and  C_31
REMARK                            x       y       z     vdW  Elec       q    Type
REMARK                         _______ _______ _______ _____ _____    ______ ____
ROOT
ATOM      1  N   UNL     1       0.415  11.023  18.816  0.00  0.00    +0.000 NA
ENDROOT
BRANCH   1   2
ATOM      2  S   UNL     1       0.811  12.268  19.941  0.00  0.00    +0.000 S 
ATOM      3  O   UNL     1       1.979  11.836  20.686  0.00  0.00    +0.000 OA
ATOM      4  O   UNL     1       0.816  13.547  19.270  0.00  0.00    +0.000 OA
BRANCH   2   5
ATOM      5  C   UNL     1      -0.538  12.268  21.107  0.00  0.00    +0.000 A 
ATOM      6  C   UNL     1      -1.639  13.103  20.906  0.00  0.00    +0.000 A 
ATOM      7  C   UNL     1      -2.684  13.112  21.833  0.00  0.00    +0.000 A 
ATOM      8  C   UNL     1      -2.654  12.257  22.940  0.00  0.00    +0.000 A 
ATOM      9  C   UNL     1      -3.781  12.249  23.931  0.00  0.00    +0.000 C 
ATOM     10  C   UNL     1      -1.566  11.390  23.109  0.00  0.00    +0.000 A 
ATOM     11  C   UNL     1      -0.507  11.397  22.199  0.00  0.00    +0.000 A 
ENDBRANCH   2   5
ENDBRANCH   1   2
BRANCH   1  12
ATOM     12  C   UNL     1       1.608  10.171  18.470  0.00  0.00    +0.000 C 
BRANCH  12  14
ATOM     13  C   UNL     1       2.448   7.749  18.542  0.00  0.00    +0.000 A 
ATOM     14  C   UNL     1       1.748   8.816  19.141  0.00  0.00    +0.000 A 
ATOM     15  C   UNL     1       1.171   8.631  20.411  0.00  0.00    +0.000 A 
ATOM     16  C   UNL     1       1.254   7.403  21.061  0.00  0.00    +0.000 A 
ATOM     17  C   UNL     1       1.837   6.313  20.413  0.00  0.00    +0.000 A 
ATOM     18  C   UNL     1       2.381   6.470  19.129  0.00  0.00    +0.000 A 
ATOM     19  O   UNL     1       2.827   5.385  18.417  0.00  0.00    +0.000 OA
ATOM     20  C   UNL     1       2.417   4.066  18.847  0.00  0.00    +0.000 C 
ATOM     21  C   UNL     1       1.116   3.659  18.137  0.00  0.00    +0.000 C 
ATOM     22  C   UNL     1       3.543   3.133  18.390  0.00  0.00    +0.000 C 
ATOM     23  C   UNL     1       2.201   3.953  20.338  0.00  0.00    +0.000 C 
ATOM     24  C   UNL     1       1.903   5.020  21.083  0.00  0.00    +0.000 C 
BRANCH  13  26
ATOM     25  C   UNL     1       4.352   7.400  17.137  0.00  0.00    +0.000 C 
ATOM     26  O   UNL     1       3.122   8.073  17.392  0.00  0.00    +0.000 OA
ENDBRANCH  13  26
ENDBRANCH  12  14
ENDBRANCH   1  12
BRANCH   1  27
ATOM     27  C   UNL     1      -0.855  10.257  18.986  0.00  0.00    +0.000 C 
BRANCH  27  28
ATOM     28  C   UNL     1      -1.989  10.394  17.989  0.00  0.00    +0.000 A 
ATOM     29  C   UNL     1      -1.991   9.787  16.730  0.00  0.00    +0.000 A 
ATOM     30  C   UNL     1      -2.998  10.075  15.802  0.00  0.00    +0.000 A 
ATOM     31  C   UNL     1      -4.065  10.899  16.154  0.00  0.00    +0.000 A 
ATOM     32  C   UNL     1      -4.152  11.392  17.451  0.00  0.00    +0.000 A 
ATOM     33  C   UNL     1      -3.125  11.137  18.362  0.00  0.00    +0.000 A 
ENDBRANCH  27  28
ENDBRANCH   1  27
TORSDOF 7
ENDMDL
MODEL 5
REMARK VINA RESULT:      -7.6      1.305      2.429
REMARK  Name = 
REMARK  11 active torsions:
REMARK  status: ('A' for Active; 'I' for Inactive)
REMARK    1  A    between atoms: C_1  and  O_2
REMARK    2  A    between atoms: O_2  and  C_3
REMARK    3  A    between atoms: C_4  and  C_5
REMARK    4  A    between atoms: C_5  and  N_6
REMARK    5  A    between atoms: N_6  and  C_7
REMARK    6  A    between atoms: N_6  and  S_14
REMARK    7  A    between atoms: C_7  and  C_8
REMARK    8  A    between atoms: S_14  and  C_17
REMARK    9  A    between atoms: C_20  and  C_21
REMARK   10  A    between atoms: C_29  and  C_30
REMARK   11  A    between atoms: C_29  and  C_31
REMARK                            x       y       z     vdW  Elec       q    Type
REMARK                         _______ _______ _______ _____ _____    ______ ____
ROOT
ATOM      1  N   UNL     1       0.521  10.937  18.559  0.00  0.00    +0.000 NA
ENDROOT
BRANCH   1   2
ATOM      2  S   UNL     1       0.903  12.255  19.603  0.00  0.00    +0.000 S 
ATOM      3  O   UNL     1       2.132  11.926  20.301  0.00  0.00    +0.000 OA
ATOM      4  O   UNL     1       0.797  13.498  18.876  0.00  0.00    +0.000 OA
BRANCH   2   5
ATOM      5  C   UNL     1      -0.381  12.236  20.840  0.00  0.00    +0.000 A 
ATOM      6  C   UNL     1      -0.303  11.353  21.919  0.00  0.00    +0.000 A 
ATOM      7  C   UNL     1      -1.322  11.329  22.874  0.00  0.00    +0.000 A 
ATOM      8  C   UNL     1      -2.399  12.218  22.780  0.00  0.00    +0.000 A 
ATOM      9  C   UNL     1      -3.489  12.210  23.812  0.00  0.00    +0.000 C 
ATOM     10  C   UNL     1      -2.446  13.132  21.719  0.00  0.00    +0.000 A 
ATOM     11  C   UNL     1      -1.443  13.140  20.747  0.00  0.00    +0.000 A 
ENDBRANCH   2   5
ENDBRANCH   1   2
BRANCH   1  12
ATOM     12  C   UNL     1       1.719  10.067  18.283  0.00  0.00    +0.000 C 
BRANCH  12  14
ATOM     13  C   UNL     1       2.500   7.630  18.452  0.00  0.00    +0.000 A 
ATOM     14  C   UNL     1       1.830   8.738  19.010  0.00  0.00    +0.000 A 
ATOM     15  C   UNL     1       1.256   8.621  20.290  0.00  0.00    +0.000 A 
ATOM     16  C   UNL     1       1.314   7.419  20.990  0.00  0.00    +0.000 A 
ATOM     17  C   UNL     1       1.865   6.289  20.386  0.00  0.00    +0.000 A 
ATOM     18  C   UNL     1       2.405   6.379  19.093  0.00  0.00    +0.000 A 
ATOM     19  O   UNL     1       2.819   5.254  18.425  0.00  0.00    +0.000 OA
ATOM     20  C   UNL     1       2.379   3.965  18.912  0.00  0.00    +0.000 C 
ATOM     21  C   UNL     1       1.064   3.561  18.227  0.00  0.00    +0.000 C 
ATOM     22  C   UNL     1       3.478   2.986  18.489  0.00  0.00    +0.000 C 
ATOM     23  C   UNL     1       2.170   3.919  20.407  0.00  0.00    +0.000 C 
ATOM     24  C   UNL     1       1.903   5.024  21.109  0.00  0.00    +0.000 C 
BRANCH  13  26
ATOM     25  C   UNL     1       4.495   7.370  17.161  0.00  0.00    +0.000 C 
ATOM     26  O   UNL     1       3.174   7.889  17.286  0.00  0.00    +0.000 OA
ENDBRANCH  13  26
ENDBRANCH  12  14
ENDBRANCH   1  12
BRANCH   1  27
ATOM     27  C   UNL     1      -0.750  10.181  18.766  0.00  0.00    +0.000 C 
BRANCH  27  28
ATOM     28  C   UNL     1      -1.977  10.473  17.924  0.00  0.00    +0.000 A 
ATOM     29  C   UNL     1      -3.023  11.302  18.341  0.00  0.00    +0.000 A 
ATOM     30  C   UNL     1      -4.192  11.409  17.580  0.00  0.00    +0.000 A 
ATOM     31  C   UNL     1      -4.294  10.764  16.350  0.00  0.00    +0.000 A 
ATOM     32  C   UNL     1      -3.205  10.055  15.856  0.00  0.00    +0.000 A 
ATOM     33  C   UNL     1      -2.055   9.916  16.635  0.00  0.00    +0.000 A 
ENDBRANCH  27  28
ENDBRANCH   1  27
TORSDOF 7
ENDMDL
MODEL 6
REMARK VINA RESULT:      -7.6      2.575      9.111
REMARK  Name = 
REMARK  11 active torsions:
REMARK  status: ('A' for Active; 'I' for Inactive)
REMARK    1  A    between atoms: C_1  and  O_2
REMARK    2  A    between atoms: O_2  and  C_3
REMARK    3  A    between atoms: C_4  and  C_5
REMARK    4  A    between atoms: C_5  and  N_6
REMARK    5  A    between atoms: N_6  and  C_7
REMARK    6  A    between atoms: N_6  and  S_14
REMARK    7  A    between atoms: C_7  and  C_8
REMARK    8  A    between atoms: S_14  and  C_17
REMARK    9  A    between atoms: C_20  and  C_21
REMARK   10  A    between atoms: C_29  and  C_30
REMARK   11  A    between atoms: C_29  and  C_31
REMARK                            x       y       z     vdW  Elec       q    Type
REMARK                         _______ _______ _______ _____ _____    ______ ____
ROOT
ATOM      1  N   UNL     1       3.097   6.547  18.418  0.00  0.00    +0.000 NA
ENDROOT
BRANCH   1   2
ATOM      2  S   UNL     1       4.816   6.551  18.287  0.00  0.00    +0.000 S 
ATOM      3  O   UNL     1       5.238   7.917  18.039  0.00  0.00    +0.000 OA
ATOM      4  O   UNL     1       5.390   5.806  19.383  0.00  0.00    +0.000 OA
BRANCH   2   5
ATOM      5  C   UNL     1       5.156   5.655  16.782  0.00  0.00    +0.000 A 
ATOM      6  C   UNL     1       5.395   4.280  16.823  0.00  0.00    +0.000 A 
ATOM      7  C   UNL     1       5.679   3.588  15.644  0.00  0.00    +0.000 A 
ATOM      8  C   UNL     1       5.682   4.258  14.414  0.00  0.00    +0.000 A 
ATOM      9  C   UNL     1       5.969   3.518  13.141  0.00  0.00    +0.000 C 
ATOM     10  C   UNL     1       5.395   5.629  14.378  0.00  0.00    +0.000 A 
ATOM     11  C   UNL     1       5.138   6.330  15.558  0.00  0.00    +0.000 A 
ENDBRANCH   2   5
ENDBRANCH   1   2
BRANCH   1  12
ATOM     12  C   UNL     1       2.515   7.928  18.279  0.00  0.00    +0.000 C 
BRANCH  12  14
ATOM     13  C   UNL     1       0.726   9.503  19.228  0.00  0.00    +0.000 A 
ATOM     14  C   UNL     1       1.674   8.476  19.419  0.00  0.00    +0.000 A 
ATOM     15  C   UNL     1       1.838   7.924  20.703  0.00  0.00    +0.000 A 
ATOM     16  C   UNL     1       1.106   8.403  21.785  0.00  0.00    +0.000 A 
ATOM     17  C   UNL     1       0.263   9.502  21.621  0.00  0.00    +0.000 A 
ATOM     18  C   UNL     1       0.118  10.091  20.354  0.00  0.00    +0.000 A 
ATOM     19  O   UNL     1      -0.590  11.257  20.198  0.00  0.00    +0.000 OA
ATOM     20  C   UNL     1      -0.881  12.046  21.375  0.00  0.00    +0.000 C 
ATOM     21  C   UNL     1       0.238  13.072  21.614  0.00  0.00    +0.000 C 
ATOM     22  C   UNL     1      -2.174  12.794  21.039  0.00  0.00    +0.000 C 
ATOM     23  C   UNL     1      -1.049  11.225  22.631  0.00  0.00    +0.000 C 
ATOM     24  C   UNL     1      -0.487  10.020  22.759  0.00  0.00    +0.000 C 
BRANCH  13  26
ATOM     25  C   UNL     1      -0.825   9.776  17.429  0.00  0.00    +0.000 C 
ATOM     26  O   UNL     1       0.511   9.855  17.920  0.00  0.00    +0.000 OA
ENDBRANCH  13  26
ENDBRANCH  12  14
ENDBRANCH   1  12
BRANCH   1  27
ATOM     27  C   UNL     1       2.311   5.479  17.731  0.00  0.00    +0.000 C 
BRANCH  27  28
ATOM     28  C   UNL     1       1.901   4.217  18.464  0.00  0.00    +0.000 A 
ATOM     29  C   UNL     1       1.284   4.216  19.718  0.00  0.00    +0.000 A 
ATOM     30  C   UNL     1       1.067   3.016  20.404  0.00  0.00    +0.000 A 
ATOM     31  C   UNL     1       1.379   1.797  19.806  0.00  0.00    +0.000 A 
ATOM     32  C   UNL     1       1.857   1.776  18.501  0.00  0.00    +0.000 A 
ATOM     33  C   UNL     1       2.111   2.976  17.834  0.00  0.00    +0.000 A 
ENDBRANCH  27  28
ENDBRANCH   1  27
TORSDOF 7
ENDMDL
MODEL 7
REMARK VINA RESULT:      -7.4      2.451      4.234
REMARK  Name = 
REMARK  11 active torsions:
REMARK  status: ('A' for Active; 'I' for Inactive)
REMARK    1  A    between atoms: C_1  and  O_2
REMARK    2  A    between atoms: O_2  and  C_3
REMARK    3  A    between atoms: C_4  and  C_5
REMARK    4  A    between atoms: C_5  and  N_6
REMARK    5  A    between atoms: N_6  and  C_7
REMARK    6  A    between atoms: N_6  and  S_14
REMARK    7  A    between atoms: C_7  and  C_8
REMARK    8  A    between atoms: S_14  and  C_17
REMARK    9  A    between atoms: C_20  and  C_21
REMARK   10  A    between atoms: C_29  and  C_30
REMARK   11  A    between atoms: C_29  and  C_31
REMARK                            x       y       z     vdW  Elec       q    Type
REMARK                         _______ _______ _______ _____ _____    ______ ____
ROOT
ATOM      1  N   UNL     1       1.217  11.078  18.762  0.00  0.00    +0.000 NA
ENDROOT
BRANCH   1   2
ATOM      2  S   UNL     1      -0.483  11.362  18.706  0.00  0.00    +0.000 S 
ATOM      3  O   UNL     1      -0.733  12.346  17.669  0.00  0.00    +0.000 OA
ATOM      4  O   UNL     1      -1.187  10.102  18.690  0.00  0.00    +0.000 OA
BRANCH   2   5
ATOM      5  C   UNL     1      -0.854  12.176  20.249  0.00  0.00    +0.000 A 
ATOM      6  C   UNL     1      -1.454  13.437  20.251  0.00  0.00    +0.000 A 
ATOM      7  C   UNL     1      -1.724  14.077  21.462  0.00  0.00    +0.000 A 
ATOM      8  C   UNL     1      -1.438  13.441  22.677  0.00  0.00    +0.000 A 
ATOM      9  C   UNL     1      -1.742  14.116  23.983  0.00  0.00    +0.000 C 
ATOM     10  C   UNL     1      -0.879  12.157  22.665  0.00  0.00    +0.000 A 
ATOM     11  C   UNL     1      -0.581  11.525  21.455  0.00  0.00    +0.000 A 
ENDBRANCH   2   5
ENDBRANCH   1   2
BRANCH   1  12
ATOM     12  C   UNL     1       1.605   9.819  18.031  0.00  0.00    +0.000 C 
BRANCH  12  14
ATOM     13  C   UNL     1       2.520   7.442  18.329  0.00  0.00    +0.000 A 
ATOM     14  C   UNL     1       1.813   8.549  18.839  0.00  0.00    +0.000 A 
ATOM     15  C   UNL     1       1.294   8.490  20.146  0.00  0.00    +0.000 A 
ATOM     16  C   UNL     1       1.441   7.343  20.921  0.00  0.00    +0.000 A 
ATOM     17  C   UNL     1       2.029   6.205  20.370  0.00  0.00    +0.000 A 
ATOM     18  C   UNL     1       2.516   6.234  19.054  0.00  0.00    +0.000 A 
ATOM     19  O   UNL     1       2.965   5.089  18.445  0.00  0.00    +0.000 OA
ATOM     20  C   UNL     1       2.613   3.815  19.033  0.00  0.00    +0.000 C 
ATOM     21  C   UNL     1       1.297   3.299  18.430  0.00  0.00    +0.000 C 
ATOM     22  C   UNL     1       3.746   2.867  18.631  0.00  0.00    +0.000 C 
ATOM     23  C   UNL     1       2.461   3.860  20.535  0.00  0.00    +0.000 C 
ATOM     24  C   UNL     1       2.162   4.995  21.173  0.00  0.00    +0.000 C 
BRANCH  13  26
ATOM     25  C   UNL     1       4.477   7.192  16.977  0.00  0.00    +0.000 C 
ATOM     26  O   UNL     1       3.137   7.655  17.122  0.00  0.00    +0.000 OA
ENDBRANCH  13  26
ENDBRANCH  12  14
ENDBRANCH   1  12
BRANCH   1  27
ATOM     27  C   UNL     1       2.159  12.218  18.559  0.00  0.00    +0.000 C 
BRANCH  27  28
ATOM     28  C   UNL     1       2.079  13.461  19.424  0.00  0.00    +0.000 A 
ATOM     29  C   UNL     1       2.450  13.491  20.772  0.00  0.00    +0.000 A 
ATOM     30  C   UNL     1       2.211  14.628  21.551  0.00  0.00    +0.000 A 
ATOM     31  C   UNL     1       1.685  15.781  20.971  0.00  0.00    +0.000 A 
ATOM     32  C   UNL     1       1.447  15.812  19.601  0.00  0.00    +0.000 A 
ATOM     33  C   UNL     1       1.648  14.663  18.835  0.00  0.00    +0.000 A 
ENDBRANCH  27  28
ENDBRANCH   1  27
TORSDOF 7
ENDMDL
MODEL 8
REMARK VINA RESULT:      -7.4      2.727      9.273
REMARK  Name = 
REMARK  11 active torsions:
REMARK  status: ('A' for Active; 'I' for Inactive)
REMARK    1  A    between atoms: C_1  and  O_2
REMARK    2  A    between atoms: O_2  and  C_3
REMARK    3  A    between atoms: C_4  and  C_5
REMARK    4  A    between atoms: C_5  and  N_6
REMARK    5  A    between atoms: N_6  and  C_7
REMARK    6  A    between atoms: N_6  and  S_14
REMARK    7  A    between atoms: C_7  and  C_8
REMARK    8  A    between atoms: S_14  and  C_17
REMARK    9  A    between atoms: C_20  and  C_21
REMARK   10  A    between atoms: C_29  and  C_30
REMARK   11  A    between atoms: C_29  and  C_31
REMARK                            x       y       z     vdW  Elec       q    Type
REMARK                         _______ _______ _______ _____ _____    ______ ____
ROOT
ATOM      1  N   UNL     1       3.669   6.240  18.464  0.00  0.00    +0.000 NA
ENDROOT
BRANCH   1   2
ATOM      2  S   UNL     1       5.328   6.456  18.046  0.00  0.00    +0.000 S 
ATOM      3  O   UNL     1       5.523   7.856  17.718  0.00  0.00    +0.000 OA
ATOM      4  O   UNL     1       6.165   5.823  19.037  0.00  0.00    +0.000 OA
BRANCH   2   5
ATOM      5  C   UNL     1       5.526   5.564  16.514  0.00  0.00    +0.000 A 
ATOM      6  C   UNL     1       5.243   6.187  15.297  0.00  0.00    +0.000 A 
ATOM      7  C   UNL     1       5.381   5.477  14.103  0.00  0.00    +0.000 A 
ATOM      8  C   UNL     1       5.845   4.156  14.116  0.00  0.00    +0.000 A 
ATOM      9  C   UNL     1       6.012   3.393  12.835  0.00  0.00    +0.000 C 
ATOM     10  C   UNL     1       6.169   3.554  15.338  0.00  0.00    +0.000 A 
ATOM     11  C   UNL     1       6.006   4.252  16.537  0.00  0.00    +0.000 A 
ENDBRANCH   2   5
ENDBRANCH   1   2
BRANCH   1  12
ATOM     12  C   UNL     1       2.844   7.462  18.159  0.00  0.00    +0.000 C 
BRANCH  12  14
ATOM     13  C   UNL     1       1.073   9.100  19.031  0.00  0.00    +0.000 A 
ATOM     14  C   UNL     1       1.982   8.048  19.264  0.00  0.00    +0.000 A 
ATOM     15  C   UNL     1       2.086   7.505  20.558  0.00  0.00    +0.000 A 
ATOM     16  C   UNL     1       1.332   8.017  21.610  0.00  0.00    +0.000 A 
ATOM     17  C   UNL     1       0.529   9.139  21.406  0.00  0.00    +0.000 A 
ATOM     18  C   UNL     1       0.445   9.718  20.130  0.00  0.00    +0.000 A 
ATOM     19  O   UNL     1      -0.222  10.903  19.937  0.00  0.00    +0.000 OA
ATOM     20  C   UNL     1      -0.528  11.713  21.096  0.00  0.00    +0.000 C 
ATOM     21  C   UNL     1       0.612  12.708  21.363  0.00  0.00    +0.000 C 
ATOM     22  C   UNL     1      -1.787  12.496  20.709  0.00  0.00    +0.000 C 
ATOM     23  C   UNL     1      -0.764  10.912  22.354  0.00  0.00    +0.000 C 
ATOM     24  C   UNL     1      -0.242   9.692  22.513  0.00  0.00    +0.000 C 
BRANCH  13  26
ATOM     25  C   UNL     1      -0.416   9.474  17.197  0.00  0.00    +0.000 C 
ATOM     26  O   UNL     1       0.912   9.444  17.713  0.00  0.00    +0.000 OA
ENDBRANCH  13  26
ENDBRANCH  12  14
ENDBRANCH   1  12
BRANCH   1  27
ATOM     27  C   UNL     1       2.992   4.948  18.141  0.00  0.00    +0.000 C 
BRANCH  27  28
ATOM     28  C   UNL     1       2.470   4.045  19.241  0.00  0.00    +0.000 A 
ATOM     29  C   UNL     1       1.110   3.826  19.483  0.00  0.00    +0.000 A 
ATOM     30  C   UNL     1       0.695   3.100  20.604  0.00  0.00    +0.000 A 
ATOM     31  C   UNL     1       1.632   2.506  21.446  0.00  0.00    +0.000 A 
ATOM     32  C   UNL     1       2.985   2.593  21.135  0.00  0.00    +0.000 A 
ATOM     33  C   UNL     1       3.398   3.352  20.039  0.00  0.00    +0.000 A 
ENDBRANCH  27  28
ENDBRANCH   1  27
TORSDOF 7
ENDMDL
MODEL 9
REMARK VINA RESULT:      -7.4      1.216      1.859
REMARK  Name = 
REMARK  11 active torsions:
REMARK  status: ('A' for Active; 'I' for Inactive)
REMARK    1  A    between atoms: C_1  and  O_2
REMARK    2  A    between atoms: O_2  and  C_3
REMARK    3  A    between atoms: C_4  and  C_5
REMARK    4  A    between atoms: C_5  and  N_6
REMARK    5  A    between atoms: N_6  and  C_7
REMARK    6  A    between atoms: N_6  and  S_14
REMARK    7  A    between atoms: C_7  and  C_8
REMARK    8  A    between atoms: S_14  and  C_17
REMARK    9  A    between atoms: C_20  and  C_21
REMARK   10  A    between atoms: C_29  and  C_30
REMARK   11  A    between atoms: C_29  and  C_31
REMARK                            x       y       z     vdW  Elec       q    Type
REMARK                         _______ _______ _______ _____ _____    ______ ____
ROOT
ATOM      1  N   UNL     1       0.211  11.167  19.270  0.00  0.00    +0.000 NA
ENDROOT
BRANCH   1   2
ATOM      2  S   UNL     1       0.142  12.754  19.940  0.00  0.00    +0.000 S 
ATOM      3  O   UNL     1       1.397  13.000  20.625  0.00  0.00    +0.000 OA
ATOM      4  O   UNL     1      -0.328  13.684  18.940  0.00  0.00    +0.000 OA
BRANCH   2   5
ATOM      5  C   UNL     1      -1.099  12.652  21.217  0.00  0.00    +0.000 A 
ATOM      6  C   UNL     1      -2.312  13.327  21.072  0.00  0.00    +0.000 A 
ATOM      7  C   UNL     1      -3.272  13.258  22.084  0.00  0.00    +0.000 A 
ATOM      8  C   UNL     1      -3.042  12.480  23.224  0.00  0.00    +0.000 A 
ATOM      9  C   UNL     1      -4.075  12.387  24.309  0.00  0.00    +0.000 C 
ATOM     10  C   UNL     1      -1.840  11.769  23.340  0.00  0.00    +0.000 A 
ATOM     11  C   UNL     1      -0.866  11.857  22.342  0.00  0.00    +0.000 A 
ENDBRANCH   2   5
ENDBRANCH   1   2
BRANCH   1  12
ATOM     12  C   UNL     1       1.432  10.412  19.724  0.00  0.00    +0.000 C 
BRANCH  12  14
ATOM     13  C   UNL     1       1.692   7.883  20.066  0.00  0.00    +0.000 A 
ATOM     14  C   UNL     1       1.644   9.000  19.206  0.00  0.00    +0.000 A 
ATOM     15  C   UNL     1       1.777   8.804  17.819  0.00  0.00    +0.000 A 
ATOM     16  C   UNL     1       1.991   7.533  17.295  0.00  0.00    +0.000 A 
ATOM     17  C   UNL     1       2.166   6.448  18.154  0.00  0.00    +0.000 A 
ATOM     18  C   UNL     1       2.075   6.633  19.544  0.00  0.00    +0.000 A 
ATOM     19  O   UNL     1       2.386   5.614  20.410  0.00  0.00    +0.000 OA
ATOM     20  C   UNL     1       3.129   4.483  19.900  0.00  0.00    +0.000 C 
ATOM     21  C   UNL     1       4.638   4.723  20.067  0.00  0.00    +0.000 C 
ATOM     22  C   UNL     1       2.715   3.306  20.789  0.00  0.00    +0.000 C 
ATOM     23  C   UNL     1       2.853   4.178  18.447  0.00  0.00    +0.000 C 
ATOM     24  C   UNL     1       2.414   5.120  17.608  0.00  0.00    +0.000 C 
BRANCH  13  26
ATOM     25  C   UNL     1       0.000   8.128  21.738  0.00  0.00    +0.000 C 
ATOM     26  O   UNL     1       1.379   8.148  21.375  0.00  0.00    +0.000 OA
ENDBRANCH  13  26
ENDBRANCH  12  14
ENDBRANCH   1  12
BRANCH   1  27
ATOM     27  C   UNL     1      -1.032  10.341  19.211  0.00  0.00    +0.000 C 
BRANCH  27  28
ATOM     28  C   UNL     1      -2.010  10.482  18.061  0.00  0.00    +0.000 A 
ATOM     29  C   UNL     1      -1.859   9.831  16.833  0.00  0.00    +0.000 A 
ATOM     30  C   UNL     1      -2.715  10.120  15.764  0.00  0.00    +0.000 A 
ATOM     31  C   UNL     1      -3.787  10.993  15.937  0.00  0.00    +0.000 A 
ATOM     32  C   UNL     1      -4.034  11.535  17.193  0.00  0.00    +0.000 A 
ATOM     33  C   UNL     1      -3.156  11.276  18.247  0.00  0.00    +0.000 A 
ENDBRANCH  27  28
ENDBRANCH   1  27
TORSDOF 7
ENDMDL
