MODEL 1
REMARK VINA RESULT:      -5.9      0.000      0.000
REMARK  Name = 
REMARK  10 active torsions:
REMARK  status: ('A' for Active; 'I' for Inactive)
REMARK    1  A    between atoms: C_1  and  C_2
REMARK    2  A    between atoms: C_2  and  O_4
REMARK    3  A    between atoms: O_4  and  C_5
REMARK    4  A    between atoms: C_6  and  C_7
REMARK    5  A    between atoms: C_7  and  O_9
REMARK    6  A    between atoms: C_13  and  N_14
REMARK    7  A    between atoms: N_14  and  C_15
REMARK    8  A    between atoms: N_14  and  C_18
REMARK    9  A    between atoms: C_15  and  C_16
REMARK   10  A    between atoms: C_18  and  C_19
REMARK                            x       y       z     vdW  Elec       q    Type
REMARK                         _______ _______ _______ _____ _____    ______ ____
ROOT
ATOM      1  C   UNL     1       3.495   4.048  19.693  0.00  0.00    +0.000 C 
ATOM      2  C   UNL     1       2.361   4.866  19.042  0.00  0.00    +0.000 C 
ATOM      3  C   UNL     1       1.788   4.147  17.816  0.00  0.00    +0.000 C 
ATOM      4  C   UNL     1       2.858   3.665  16.837  0.00  0.00    +0.000 C 
ATOM      5  C   UNL     1       3.963   2.876  17.538  0.00  0.00    +0.000 C 
ATOM      6  C   UNL     1       4.643   3.677  18.687  0.00  0.00    +0.000 C 
ENDROOT
BRANCH   2   7
ATOM      7  C   UNL     1       2.772   6.295  18.718  0.00  0.00    +0.000 C 
ATOM      8  O   UNL     1       2.672   6.835  17.630  0.00  0.00    +0.000 OA
BRANCH   7   9
ATOM      9  O   UNL     1       3.225   6.977  19.798  0.00  0.00    +0.000 OA
ATOM     10  H   UNL     1       3.763   7.767  19.592  0.00  0.00    +0.000 HD
ENDBRANCH   7   9
ENDBRANCH   2   7
BRANCH   1  11
ATOM     11  O   UNL     1       2.955   2.802  20.218  0.00  0.00    +0.000 OA
BRANCH  11  13
ATOM     12  C   UNL     1       0.697   2.688  20.841  0.00  0.00    +0.000 C 
ATOM     13  C   UNL     1       2.112   2.914  21.279  0.00  0.00    +0.000 C 
ATOM     14  O   UNL     1       2.465   3.148  22.426  0.00  0.00    +0.000 OA
ENDBRANCH  11  13
ENDBRANCH   1  11
BRANCH   6  15
ATOM     15  N   UNL     1       5.437   4.853  18.226  0.00  0.00    +0.000 NA
BRANCH  15  16
ATOM     16  C   UNL     1       6.219   4.635  16.983  0.00  0.00    +0.000 C 
BRANCH  16  17
ATOM     17  C   UNL     1       5.833   5.477  15.755  0.00  0.00    +0.000 C 
ATOM     18 CL   UNL     1       5.488   4.424  14.357  0.00  0.00    +0.000 Cl
ENDBRANCH  16  17
ENDBRANCH  15  16
BRANCH  15  19
ATOM     19  C   UNL     1       6.273   5.468  19.288  0.00  0.00    +0.000 C 
BRANCH  19  20
ATOM     20  C   UNL     1       7.759   5.626  18.926  0.00  0.00    +0.000 C 
ATOM     21 CL   UNL     1       8.076   7.298  18.383  0.00  0.00    +0.000 Cl
ENDBRANCH  19  20
ENDBRANCH  15  19
ENDBRANCH   6  15
TORSDOF 9
ENDMDL
MODEL 2
REMARK VINA RESULT:      -5.8      3.151      5.260
REMARK  Name = 
REMARK  10 active torsions:
REMARK  status: ('A' for Active; 'I' for Inactive)
REMARK    1  A    between atoms: C_1  and  C_2
REMARK    2  A    between atoms: C_2  and  O_4
REMARK    3  A    between atoms: O_4  and  C_5
REMARK    4  A    between atoms: C_6  and  C_7
REMARK    5  A    between atoms: C_7  and  O_9
REMARK    6  A    between atoms: C_13  and  N_14
REMARK    7  A    between atoms: N_14  and  C_15
REMARK    8  A    between atoms: N_14  and  C_18
REMARK    9  A    between atoms: C_15  and  C_16
REMARK   10  A    between atoms: C_18  and  C_19
REMARK                            x       y       z     vdW  Elec       q    Type
REMARK                         _______ _______ _______ _____ _____    ______ ____
ROOT
ATOM      1  C   UNL     1       4.208   4.351  17.357  0.00  0.00    +0.000 C 
ATOM      2  C   UNL     1       4.595   3.035  18.064  0.00  0.00    +0.000 C 
ATOM      3  C   UNL     1       3.533   1.953  17.846  0.00  0.00    +0.000 C 
ATOM      4  C   UNL     1       2.109   2.429  18.136  0.00  0.00    +0.000 C 
ATOM      5  C   UNL     1       1.788   3.742  17.426  0.00  0.00    +0.000 C 
ATOM      6  C   UNL     1       2.790   4.882  17.775  0.00  0.00    +0.000 C 
ENDROOT
BRANCH   2   7
ATOM      7  C   UNL     1       4.913   3.227  19.539  0.00  0.00    +0.000 C 
ATOM      8  O   UNL     1       4.740   2.400  20.417  0.00  0.00    +0.000 OA
BRANCH   7   9
ATOM      9  O   UNL     1       5.487   4.424  19.809  0.00  0.00    +0.000 OA
ATOM     10  H   UNL     1       6.078   4.432  20.589  0.00  0.00    +0.000 HD
ENDBRANCH   7   9
ENDBRANCH   2   7
BRANCH   1  11
ATOM     11  O   UNL     1       4.188   4.141  15.916  0.00  0.00    +0.000 OA
BRANCH  11  13
ATOM     12  C   UNL     1       5.661   5.951  15.678  0.00  0.00    +0.000 C 
ATOM     13  C   UNL     1       5.284   4.571  15.233  0.00  0.00    +0.000 C 
ATOM     14  O   UNL     1       5.879   3.915  14.390  0.00  0.00    +0.000 OA
ENDBRANCH  11  13
ENDBRANCH   1  11
BRANCH   6  15
ATOM     15  N   UNL     1       2.719   5.346  19.191  0.00  0.00    +0.000 NA
BRANCH  15  16
ATOM     16  C   UNL     1       1.647   4.718  20.005  0.00  0.00    +0.000 C 
BRANCH  16  17
ATOM     17  C   UNL     1       2.031   4.223  21.409  0.00  0.00    +0.000 C 
ATOM     18 CL   UNL     1       1.412   2.573  21.683  0.00  0.00    +0.000 Cl
ENDBRANCH  16  17
ENDBRANCH  15  16
BRANCH  15  19
ATOM     19  C   UNL     1       2.715   6.823  19.341  0.00  0.00    +0.000 C 
BRANCH  19  20
ATOM     20  C   UNL     1       2.904   7.602  18.028  0.00  0.00    +0.000 C 
ATOM     21 CL   UNL     1       1.640   8.856  17.881  0.00  0.00    +0.000 Cl
ENDBRANCH  19  20
ENDBRANCH  15  19
ENDBRANCH   6  15
TORSDOF 9
ENDMDL
MODEL 3
REMARK VINA RESULT:      -5.7      3.332      5.217
REMARK  Name = 
REMARK  10 active torsions:
REMARK  status: ('A' for Active; 'I' for Inactive)
REMARK    1  A    between atoms: C_1  and  C_2
REMARK    2  A    between atoms: C_2  and  O_4
REMARK    3  A    between atoms: O_4  and  C_5
REMARK    4  A    between atoms: C_6  and  C_7
REMARK    5  A    between atoms: C_7  and  O_9
REMARK    6  A    between atoms: C_13  and  N_14
REMARK    7  A    between atoms: N_14  and  C_15
REMARK    8  A    between atoms: N_14  and  C_18
REMARK    9  A    between atoms: C_15  and  C_16
REMARK   10  A    between atoms: C_18  and  C_19
REMARK                            x       y       z     vdW  Elec       q    Type
REMARK                         _______ _______ _______ _____ _____    ______ ____
ROOT
ATOM      1  C   UNL     1       5.758   4.856  18.371  0.00  0.00    +0.000 C 
ATOM      2  C   UNL     1       5.837   5.387  16.925  0.00  0.00    +0.000 C 
ATOM      3  C   UNL     1       5.025   6.677  16.760  0.00  0.00    +0.000 C 
ATOM      4  C   UNL     1       3.606   6.577  17.319  0.00  0.00    +0.000 C 
ATOM      5  C   UNL     1       3.587   6.030  18.745  0.00  0.00    +0.000 C 
ATOM      6  C   UNL     1       4.284   4.644  18.871  0.00  0.00    +0.000 C 
ENDROOT
BRANCH   2   7
ATOM      7  C   UNL     1       5.455   4.342  15.889  0.00  0.00    +0.000 C 
ATOM      8  O   UNL     1       4.910   4.564  14.821  0.00  0.00    +0.000 OA
BRANCH   7   9
ATOM      9  O   UNL     1       5.837   3.088  16.231  0.00  0.00    +0.000 OA
ATOM     10  H   UNL     1       5.118   2.512  16.561  0.00  0.00    +0.000 HD
ENDBRANCH   7   9
ENDBRANCH   2   7
BRANCH   1  11
ATOM     11  O   UNL     1       6.392   5.807  19.274  0.00  0.00    +0.000 OA
BRANCH  11  13
ATOM     12  C   UNL     1       8.169   7.176  18.591  0.00  0.00    +0.000 C 
ATOM     13  C   UNL     1       7.749   5.879  19.212  0.00  0.00    +0.000 C 
ATOM     14  O   UNL     1       8.511   5.013  19.620  0.00  0.00    +0.000 OA
ENDBRANCH  11  13
ENDBRANCH   1  11
BRANCH   6  15
ATOM     15  N   UNL     1       3.571   3.535  18.173  0.00  0.00    +0.000 NA
BRANCH  15  16
ATOM     16  C   UNL     1       2.153   3.816  17.833  0.00  0.00    +0.000 C 
BRANCH  16  17
ATOM     17  C   UNL     1       1.077   3.062  18.632  0.00  0.00    +0.000 C 
ATOM     18 CL   UNL     1       0.760   3.881  20.184  0.00  0.00    +0.000 Cl
ENDBRANCH  16  17
ENDBRANCH  15  16
BRANCH  15  19
ATOM     19  C   UNL     1       3.713   2.216  18.839  0.00  0.00    +0.000 C 
BRANCH  19  20
ATOM     20  C   UNL     1       4.001   2.285  20.349  0.00  0.00    +0.000 C 
ATOM     21 CL   UNL     1       5.288   1.120  20.773  0.00  0.00    +0.000 Cl
ENDBRANCH  19  20
ENDBRANCH  15  19
ENDBRANCH   6  15
TORSDOF 9
ENDMDL
MODEL 4
REMARK VINA RESULT:      -5.7      3.083      5.086
REMARK  Name = 
REMARK  10 active torsions:
REMARK  status: ('A' for Active; 'I' for Inactive)
REMARK    1  A    between atoms: C_1  and  C_2
REMARK    2  A    between atoms: C_2  and  O_4
REMARK    3  A    between atoms: O_4  and  C_5
REMARK    4  A    between atoms: C_6  and  C_7
REMARK    5  A    between atoms: C_7  and  O_9
REMARK    6  A    between atoms: C_13  and  N_14
REMARK    7  A    between atoms: N_14  and  C_15
REMARK    8  A    between atoms: N_14  and  C_18
REMARK    9  A    between atoms: C_15  and  C_16
REMARK   10  A    between atoms: C_18  and  C_19
REMARK                            x       y       z     vdW  Elec       q    Type
REMARK                         _______ _______ _______ _____ _____    ______ ____
ROOT
ATOM      1  C   UNL     1       5.719   4.696  18.286  0.00  0.00    +0.000 C 
ATOM      2  C   UNL     1       5.362   3.593  17.267  0.00  0.00    +0.000 C 
ATOM      3  C   UNL     1       5.507   4.097  15.827  0.00  0.00    +0.000 C 
ATOM      4  C   UNL     1       4.811   5.434  15.577  0.00  0.00    +0.000 C 
ATOM      5  C   UNL     1       5.187   6.481  16.624  0.00  0.00    +0.000 C 
ATOM      6  C   UNL     1       4.892   6.016  18.080  0.00  0.00    +0.000 C 
ENDROOT
BRANCH   2   7
ATOM      7  C   UNL     1       3.993   2.978  17.516  0.00  0.00    +0.000 C 
ATOM      8  O   UNL     1       2.986   3.196  16.866  0.00  0.00    +0.000 OA
BRANCH   7   9
ATOM      9  O   UNL     1       3.990   2.077  18.529  0.00  0.00    +0.000 OA
ATOM     10  H   UNL     1       4.860   1.924  18.949  0.00  0.00    +0.000 HD
ENDBRANCH   7   9
ENDBRANCH   2   7
BRANCH   1  11
ATOM     11  O   UNL     1       7.128   5.039  18.157  0.00  0.00    +0.000 OA
BRANCH  11  13
ATOM     12  C   UNL     1       8.197   7.063  18.667  0.00  0.00    +0.000 C 
ATOM     13  C   UNL     1       7.665   5.759  19.179  0.00  0.00    +0.000 C 
ATOM     14  O   UNL     1       7.692   5.396  20.346  0.00  0.00    +0.000 OA
ENDBRANCH  11  13
ENDBRANCH   1  11
BRANCH   6  15
ATOM     15  N   UNL     1       3.441   5.867  18.393  0.00  0.00    +0.000 NA
BRANCH  15  16
ATOM     16  C   UNL     1       2.567   6.935  17.842  0.00  0.00    +0.000 C 
BRANCH  16  17
ATOM     17  C   UNL     1       2.229   8.113  18.771  0.00  0.00    +0.000 C 
ATOM     18 CL   UNL     1       1.912   9.589  17.822  0.00  0.00    +0.000 Cl
ENDBRANCH  16  17
ENDBRANCH  15  16
BRANCH  15  19
ATOM     19  C   UNL     1       3.158   5.627  19.830  0.00  0.00    +0.000 C 
BRANCH  19  20
ATOM     20  C   UNL     1       1.930   4.741  20.103  0.00  0.00    +0.000 C 
ATOM     21 CL   UNL     1       2.261   3.660  21.486  0.00  0.00    +0.000 Cl
ENDBRANCH  19  20
ENDBRANCH  15  19
ENDBRANCH   6  15
TORSDOF 9
ENDMDL
MODEL 5
REMARK VINA RESULT:      -5.4      2.317      3.995
REMARK  Name = 
REMARK  10 active torsions:
REMARK  status: ('A' for Active; 'I' for Inactive)
REMARK    1  A    between atoms: C_1  and  C_2
REMARK    2  A    between atoms: C_2  and  O_4
REMARK    3  A    between atoms: O_4  and  C_5
REMARK    4  A    between atoms: C_6  and  C_7
REMARK    5  A    between atoms: C_7  and  O_9
REMARK    6  A    between atoms: C_13  and  N_14
REMARK    7  A    between atoms: N_14  and  C_15
REMARK    8  A    between atoms: N_14  and  C_18
REMARK    9  A    between atoms: C_15  and  C_16
REMARK   10  A    between atoms: C_18  and  C_19
REMARK                            x       y       z     vdW  Elec       q    Type
REMARK                         _______ _______ _______ _____ _____    ______ ____
ROOT
ATOM      1  C   UNL     1       4.498   3.898  17.630  0.00  0.00    +0.000 C 
ATOM      2  C   UNL     1       4.889   4.295  19.069  0.00  0.00    +0.000 C 
ATOM      3  C   UNL     1       4.057   5.482  19.565  0.00  0.00    +0.000 C 
ATOM      4  C   UNL     1       4.015   6.650  18.579  0.00  0.00    +0.000 C 
ATOM      5  C   UNL     1       3.640   6.197  17.170  0.00  0.00    +0.000 C 
ATOM      6  C   UNL     1       4.588   5.094  16.615  0.00  0.00    +0.000 C 
ENDROOT
BRANCH   2   7
ATOM      7  C   UNL     1       6.381   4.543  19.229  0.00  0.00    +0.000 C 
ATOM      8  O   UNL     1       6.902   5.200  20.114  0.00  0.00    +0.000 OA
BRANCH   7   9
ATOM      9  O   UNL     1       7.131   3.897  18.304  0.00  0.00    +0.000 OA
ATOM     10  H   UNL     1       7.746   3.228  18.665  0.00  0.00    +0.000 HD
ENDBRANCH   7   9
ENDBRANCH   2   7
BRANCH   1  11
ATOM     11  O   UNL     1       3.124   3.416  17.615  0.00  0.00    +0.000 OA
BRANCH  11  13
ATOM     12  C   UNL     1       1.584   2.248  18.943  0.00  0.00    +0.000 C 
ATOM     13  C   UNL     1       2.901   2.223  18.229  0.00  0.00    +0.000 C 
ATOM     14  O   UNL     1       3.662   1.266  18.188  0.00  0.00    +0.000 OA
ENDBRANCH  11  13
ENDBRANCH   1  11
BRANCH   6  15
ATOM     15  N   UNL     1       5.983   5.558  16.360  0.00  0.00    +0.000 NA
BRANCH  15  16
ATOM     16  C   UNL     1       6.239   6.985  16.681  0.00  0.00    +0.000 C 
BRANCH  16  17
ATOM     17  C   UNL     1       7.560   7.317  17.395  0.00  0.00    +0.000 C 
ATOM     18 CL   UNL     1       7.692   9.072  17.684  0.00  0.00    +0.000 Cl
ENDBRANCH  16  17
ENDBRANCH  15  16
BRANCH  15  19
ATOM     19  C   UNL     1       6.496   5.208  15.012  0.00  0.00    +0.000 C 
BRANCH  19  20
ATOM     20  C   UNL     1       5.587   4.269  14.201  0.00  0.00    +0.000 C 
ATOM     21 CL   UNL     1       6.451   3.700  12.745  0.00  0.00    +0.000 Cl
ENDBRANCH  19  20
ENDBRANCH  15  19
ENDBRANCH   6  15
TORSDOF 9
ENDMDL
MODEL 6
REMARK VINA RESULT:      -5.4      2.990      5.303
REMARK  Name = 
REMARK  10 active torsions:
REMARK  status: ('A' for Active; 'I' for Inactive)
REMARK    1  A    between atoms: C_1  and  C_2
REMARK    2  A    between atoms: C_2  and  O_4
REMARK    3  A    between atoms: O_4  and  C_5
REMARK    4  A    between atoms: C_6  and  C_7
REMARK    5  A    between atoms: C_7  and  O_9
REMARK    6  A    between atoms: C_13  and  N_14
REMARK    7  A    between atoms: N_14  and  C_15
REMARK    8  A    between atoms: N_14  and  C_18
REMARK    9  A    between atoms: C_15  and  C_16
REMARK   10  A    between atoms: C_18  and  C_19
REMARK                            x       y       z     vdW  Elec       q    Type
REMARK                         _______ _______ _______ _____ _____    ______ ____
ROOT
ATOM      1  C   UNL     1       4.381   4.691  17.285  0.00  0.00    +0.000 C 
ATOM      2  C   UNL     1       4.835   3.344  17.884  0.00  0.00    +0.000 C 
ATOM      3  C   UNL     1       3.797   2.245  17.633  0.00  0.00    +0.000 C 
ATOM      4  C   UNL     1       2.373   2.655  18.010  0.00  0.00    +0.000 C 
ATOM      5  C   UNL     1       1.985   4.002  17.403  0.00  0.00    +0.000 C 
ATOM      6  C   UNL     1       2.966   5.147  17.792  0.00  0.00    +0.000 C 
ENDROOT
BRANCH   2   7
ATOM      7  C   UNL     1       5.206   3.446  19.356  0.00  0.00    +0.000 C 
ATOM      8  O   UNL     1       5.665   4.432  19.908  0.00  0.00    +0.000 OA
BRANCH   7   9
ATOM      9  O   UNL     1       4.918   2.323  20.057  0.00  0.00    +0.000 OA
ATOM     10  H   UNL     1       4.418   1.643  19.562  0.00  0.00    +0.000 HD
ENDBRANCH   7   9
ENDBRANCH   2   7
BRANCH   1  11
ATOM     11  O   UNL     1       4.310   4.579  15.835  0.00  0.00    +0.000 OA
BRANCH  11  13
ATOM     12  C   UNL     1       6.056   4.018  14.373  0.00  0.00    +0.000 C 
ATOM     13  C   UNL     1       5.358   5.099  15.140  0.00  0.00    +0.000 C 
ATOM     14  O   UNL     1       5.670   6.281  15.135  0.00  0.00    +0.000 OA
ENDBRANCH  11  13
ENDBRANCH   1  11
BRANCH   6  15
ATOM     15  N   UNL     1       2.939   5.512  19.238  0.00  0.00    +0.000 NA
BRANCH  15  16
ATOM     16  C   UNL     1       1.785   4.970  20.001  0.00  0.00    +0.000 C 
BRANCH  16  17
ATOM     17  C   UNL     1       2.094   4.266  21.333  0.00  0.00    +0.000 C 
ATOM     18 CL   UNL     1       1.257   2.693  21.419  0.00  0.00    +0.000 Cl
ENDBRANCH  16  17
ENDBRANCH  15  16
BRANCH  15  19
ATOM     19  C   UNL     1       3.122   6.962  19.496  0.00  0.00    +0.000 C 
BRANCH  19  20
ATOM     20  C   UNL     1       1.898   7.834  19.164  0.00  0.00    +0.000 C 
ATOM     21 CL   UNL     1       2.191   8.735  17.650  0.00  0.00    +0.000 Cl
ENDBRANCH  19  20
ENDBRANCH  15  19
ENDBRANCH   6  15
TORSDOF 9
ENDMDL
MODEL 7
REMARK VINA RESULT:      -5.4      3.233      5.850
REMARK  Name = 
REMARK  10 active torsions:
REMARK  status: ('A' for Active; 'I' for Inactive)
REMARK    1  A    between atoms: C_1  and  C_2
REMARK    2  A    between atoms: C_2  and  O_4
REMARK    3  A    between atoms: O_4  and  C_5
REMARK    4  A    between atoms: C_6  and  C_7
REMARK    5  A    between atoms: C_7  and  O_9
REMARK    6  A    between atoms: C_13  and  N_14
REMARK    7  A    between atoms: N_14  and  C_15
REMARK    8  A    between atoms: N_14  and  C_18
REMARK    9  A    between atoms: C_15  and  C_16
REMARK   10  A    between atoms: C_18  and  C_19
REMARK                            x       y       z     vdW  Elec       q    Type
REMARK                         _______ _______ _______ _____ _____    ______ ____
ROOT
ATOM      1  C   UNL     1       6.136   5.168  16.090  0.00  0.00    +0.000 C 
ATOM      2  C   UNL     1       6.095   6.664  16.466  0.00  0.00    +0.000 C 
ATOM      3  C   UNL     1       7.247   7.033  17.407  0.00  0.00    +0.000 C 
ATOM      4  C   UNL     1       7.386   6.087  18.599  0.00  0.00    +0.000 C 
ATOM      5  C   UNL     1       7.404   4.622  18.170  0.00  0.00    +0.000 C 
ATOM      6  C   UNL     1       6.149   4.218  17.341  0.00  0.00    +0.000 C 
ENDROOT
BRANCH   2   7
ATOM      7  C   UNL     1       4.748   7.097  17.024  0.00  0.00    +0.000 C 
ATOM      8  O   UNL     1       3.781   7.439  16.365  0.00  0.00    +0.000 OA
BRANCH   7   9
ATOM      9  O   UNL     1       4.679   7.013  18.375  0.00  0.00    +0.000 OA
ATOM     10  H   UNL     1       3.958   7.532  18.784  0.00  0.00    +0.000 HD
ENDBRANCH   7   9
ENDBRANCH   2   7
BRANCH   1  11
ATOM     11  O   UNL     1       7.341   4.893  15.320  0.00  0.00    +0.000 OA
BRANCH  11  13
ATOM     12  C   UNL     1       6.125   3.882  13.589  0.00  0.00    +0.000 C 
ATOM     13  C   UNL     1       7.194   4.861  13.968  0.00  0.00    +0.000 C 
ATOM     14  O   UNL     1       7.834   5.545  13.182  0.00  0.00    +0.000 OA
ENDBRANCH  11  13
ENDBRANCH   1  11
BRANCH   6  15
ATOM     15  N   UNL     1       4.874   4.231  18.114  0.00  0.00    +0.000 NA
BRANCH  15  16
ATOM     16  C   UNL     1       4.981   3.733  19.510  0.00  0.00    +0.000 C 
BRANCH  16  17
ATOM     17  C   UNL     1       4.316   2.383  19.825  0.00  0.00    +0.000 C 
ATOM     18 CL   UNL     1       3.063   2.578  21.079  0.00  0.00    +0.000 Cl
ENDBRANCH  16  17
ENDBRANCH  15  16
BRANCH  15  19
ATOM     19  C   UNL     1       3.733   3.602  17.404  0.00  0.00    +0.000 C 
BRANCH  19  20
ATOM     20  C   UNL     1       2.385   4.321  17.588  0.00  0.00    +0.000 C 
ATOM     21 CL   UNL     1       1.169   3.174  18.217  0.00  0.00    +0.000 Cl
ENDBRANCH  19  20
ENDBRANCH  15  19
ENDBRANCH   6  15
TORSDOF 9
ENDMDL
MODEL 8
REMARK VINA RESULT:      -5.4      3.108      4.806
REMARK  Name = 
REMARK  10 active torsions:
REMARK  status: ('A' for Active; 'I' for Inactive)
REMARK    1  A    between atoms: C_1  and  C_2
REMARK    2  A    between atoms: C_2  and  O_4
REMARK    3  A    between atoms: O_4  and  C_5
REMARK    4  A    between atoms: C_6  and  C_7
REMARK    5  A    between atoms: C_7  and  O_9
REMARK    6  A    between atoms: C_13  and  N_14
REMARK    7  A    between atoms: N_14  and  C_15
REMARK    8  A    between atoms: N_14  and  C_18
REMARK    9  A    between atoms: C_15  and  C_16
REMARK   10  A    between atoms: C_18  and  C_19
REMARK                            x       y       z     vdW  Elec       q    Type
REMARK                         _______ _______ _______ _____ _____    ______ ____
ROOT
ATOM      1  C   UNL     1       4.204   5.995  18.453  0.00  0.00    +0.000 C 
ATOM      2  C   UNL     1       5.651   6.031  17.918  0.00  0.00    +0.000 C 
ATOM      3  C   UNL     1       5.707   5.649  16.435  0.00  0.00    +0.000 C 
ATOM      4  C   UNL     1       4.946   4.364  16.108  0.00  0.00    +0.000 C 
ATOM      5  C   UNL     1       3.528   4.377  16.675  0.00  0.00    +0.000 C 
ATOM      6  C   UNL     1       3.492   4.614  18.213  0.00  0.00    +0.000 C 
ENDROOT
BRANCH   2   7
ATOM      7  C   UNL     1       6.611   5.197  18.753  0.00  0.00    +0.000 C 
ATOM      8  O   UNL     1       6.914   5.409  19.914  0.00  0.00    +0.000 OA
BRANCH   7   9
ATOM      9  O   UNL     1       7.083   4.110  18.096  0.00  0.00    +0.000 OA
ATOM     10  H   UNL     1       7.143   3.295  18.634  0.00  0.00    +0.000 HD
ENDBRANCH   7   9
ENDBRANCH   2   7
BRANCH   1  11
ATOM     11  O   UNL     1       3.412   7.016  17.781  0.00  0.00    +0.000 OA
BRANCH  11  13
ATOM     12  C   UNL     1       1.871   8.783  17.763  0.00  0.00    +0.000 C 
ATOM     13  C   UNL     1       2.538   7.706  18.563  0.00  0.00    +0.000 C 
ATOM     14  O   UNL     1       2.321   7.467  19.742  0.00  0.00    +0.000 OA
ENDBRANCH  11  13
ENDBRANCH   1  11
BRANCH   6  15
ATOM     15  N   UNL     1       4.068   3.498  19.018  0.00  0.00    +0.000 NA
BRANCH  15  16
ATOM     16  C   UNL     1       3.814   2.138  18.478  0.00  0.00    +0.000 C 
BRANCH  16  17
ATOM     17  C   UNL     1       2.573   1.396  19.003  0.00  0.00    +0.000 C 
ATOM     18 CL   UNL     1       1.081   2.164  18.400  0.00  0.00    +0.000 Cl
ENDBRANCH  16  17
ENDBRANCH  15  16
BRANCH  15  19
ATOM     19  C   UNL     1       3.747   3.572  20.466  0.00  0.00    +0.000 C 
BRANCH  19  20
ATOM     20  C   UNL     1       2.385   4.210  20.790  0.00  0.00    +0.000 C 
ATOM     21 CL   UNL     1       1.415   3.091  21.789  0.00  0.00    +0.000 Cl
ENDBRANCH  19  20
ENDBRANCH  15  19
ENDBRANCH   6  15
TORSDOF 9
ENDMDL
MODEL 9
REMARK VINA RESULT:      -5.3      3.007      4.666
REMARK  Name = 
REMARK  10 active torsions:
REMARK  status: ('A' for Active; 'I' for Inactive)
REMARK    1  A    between atoms: C_1  and  C_2
REMARK    2  A    between atoms: C_2  and  O_4
REMARK    3  A    between atoms: O_4  and  C_5
REMARK    4  A    between atoms: C_6  and  C_7
REMARK    5  A    between atoms: C_7  and  O_9
REMARK    6  A    between atoms: C_13  and  N_14
REMARK    7  A    between atoms: N_14  and  C_15
REMARK    8  A    between atoms: N_14  and  C_18
REMARK    9  A    between atoms: C_15  and  C_16
REMARK   10  A    between atoms: C_18  and  C_19
REMARK                            x       y       z     vdW  Elec       q    Type
REMARK                         _______ _______ _______ _____ _____    ______ ____
ROOT
ATOM      1  C   UNL     1       4.481   4.228  19.405  0.00  0.00    +0.000 C 
ATOM      2  C   UNL     1       3.596   2.978  19.593  0.00  0.00    +0.000 C 
ATOM      3  C   UNL     1       3.326   2.281  18.255  0.00  0.00    +0.000 C 
ATOM      4  C   UNL     1       2.848   3.232  17.158  0.00  0.00    +0.000 C 
ATOM      5  C   UNL     1       3.750   4.458  17.028  0.00  0.00    +0.000 C 
ATOM      6  C   UNL     1       3.894   5.247  18.362  0.00  0.00    +0.000 C 
ENDROOT
BRANCH   2   7
ATOM      7  C   UNL     1       2.309   3.272  20.347  0.00  0.00    +0.000 C 
ATOM      8  O   UNL     1       2.216   3.475  21.545  0.00  0.00    +0.000 OA
BRANCH   7   9
ATOM      9  O   UNL     1       1.224   3.356  19.538  0.00  0.00    +0.000 OA
ATOM     10  H   UNL     1       0.566   2.642  19.655  0.00  0.00    +0.000 HD
ENDBRANCH   7   9
ENDBRANCH   2   7
BRANCH   1  11
ATOM     11  O   UNL     1       5.796   3.826  18.929  0.00  0.00    +0.000 OA
BRANCH  11  13
ATOM     12  C   UNL     1       7.469   4.856  17.648  0.00  0.00    +0.000 C 
ATOM     13  C   UNL     1       6.766   4.780  18.969  0.00  0.00    +0.000 C 
ATOM     14  O   UNL     1       7.012   5.481  19.940  0.00  0.00    +0.000 OA
ENDBRANCH  11  13
ENDBRANCH   1  11
BRANCH   6  15
ATOM     15  N   UNL     1       2.640   5.913  18.819  0.00  0.00    +0.000 NA
BRANCH  15  16
ATOM     16  C   UNL     1       2.006   6.810  17.819  0.00  0.00    +0.000 C 
BRANCH  16  17
ATOM     17  C   UNL     1       2.541   8.249  17.729  0.00  0.00    +0.000 C 
ATOM     18 CL   UNL     1       1.211   9.424  17.904  0.00  0.00    +0.000 Cl
ENDBRANCH  16  17
ENDBRANCH  15  16
BRANCH  15  19
ATOM     19  C   UNL     1       2.758   6.578  20.141  0.00  0.00    +0.000 C 
BRANCH  19  20
ATOM     20  C   UNL     1       1.419   6.848  20.847  0.00  0.00    +0.000 C 
ATOM     21 CL   UNL     1       1.347   8.552  21.378  0.00  0.00    +0.000 Cl
ENDBRANCH  19  20
ENDBRANCH  15  19
ENDBRANCH   6  15
TORSDOF 9
ENDMDL
