MODEL 1
REMARK VINA RESULT:      -8.9      0.000      0.000
REMARK  Name = 
REMARK  3 active torsions:
REMARK  status: ('A' for Active; 'I' for Inactive)
REMARK    1  A    between atoms: C_1  and  C_2
REMARK    2  A    between atoms: C_5  and  C_6
REMARK    3  A    between atoms: C_12  and  C_13
REMARK                            x       y       z     vdW  Elec       q    Type
REMARK                         _______ _______ _______ _____ _____    ______ ____
ROOT
ATOM      1  C   UNL     1       0.905   3.710  19.840  0.00  0.00    +0.000 C 
ATOM      2  C   UNL     1       2.290   4.012  19.426  0.00  0.00    +0.000 A 
ATOM      3  O   UNL     1       3.051   2.958  19.044  0.00  0.00    +0.000 OA
ATOM      4  N   UNL     1       4.294   3.403  18.650  0.00  0.00    +0.000 NA
ATOM      5  C   UNL     1       4.291   4.737  18.809  0.00  0.00    +0.000 A 
ATOM      6  C   UNL     1       3.010   5.174  19.270  0.00  0.00    +0.000 A 
ENDROOT
BRANCH   6   7
ATOM      7  C   UNL     1       2.493   6.504  19.454  0.00  0.00    +0.000 A 
ATOM      8  N   UNL     1       1.939   6.842  20.570  0.00  0.00    +0.000 NA
ATOM      9  C   UNL     1       1.433   8.140  20.654  0.00  0.00    +0.000 A 
ATOM     10  C   UNL     1       0.914   8.619  21.858  0.00  0.00    +0.000 A 
ATOM     11  C   UNL     1       0.393   9.916  21.940  0.00  0.00    +0.000 A 
ATOM     12  C   UNL     1       0.381  10.741  20.817  0.00  0.00    +0.000 A 
ATOM     13  C   UNL     1       0.897  10.273  19.613  0.00  0.00    +0.000 A 
ATOM     14  C   UNL     1       1.423   8.979  19.547  0.00  0.00    +0.000 A 
ATOM     15  C   UNL     1       1.992   8.461  18.300  0.00  0.00    +0.000 A 
ATOM     16  O   UNL     1       1.923   9.115  17.266  0.00  0.00    +0.000 OA
ATOM     17  O   UNL     1       2.607   7.267  18.345  0.00  0.00    +0.000 OA
ENDBRANCH   6   7
BRANCH   5  18
ATOM     18  C   UNL     1       5.499   5.524  18.539  0.00  0.00    +0.000 A 
ATOM     19  C   UNL     1       5.550   6.397  17.442  0.00  0.00    +0.000 A 
ATOM     20  C   UNL     1       6.709   7.130  17.166  0.00  0.00    +0.000 A 
ATOM     21  C   UNL     1       7.829   6.998  17.983  0.00  0.00    +0.000 A 
ATOM     22  C   UNL     1       7.795   6.129  19.072  0.00  0.00    +0.000 A 
ATOM     23  C   UNL     1       6.641   5.391  19.345  0.00  0.00    +0.000 A 
ENDBRANCH   5  18
TORSDOF 2
ENDMDL
MODEL 2
REMARK VINA RESULT:      -8.8      0.179      1.021
REMARK  Name = 
REMARK  3 active torsions:
REMARK  status: ('A' for Active; 'I' for Inactive)
REMARK    1  A    between atoms: C_1  and  C_2
REMARK    2  A    between atoms: C_5  and  C_6
REMARK    3  A    between atoms: C_12  and  C_13
REMARK                            x       y       z     vdW  Elec       q    Type
REMARK                         _______ _______ _______ _____ _____    ______ ____
ROOT
ATOM      1  C   UNL     1       0.978   3.706  20.233  0.00  0.00    +0.000 C 
ATOM      2  C   UNL     1       2.340   3.990  19.741  0.00  0.00    +0.000 A 
ATOM      3  O   UNL     1       3.100   2.918  19.405  0.00  0.00    +0.000 OA
ATOM      4  N   UNL     1       4.319   3.345  18.929  0.00  0.00    +0.000 NA
ATOM      5  C   UNL     1       4.305   4.688  18.990  0.00  0.00    +0.000 A 
ATOM      6  C   UNL     1       3.039   5.145  19.470  0.00  0.00    +0.000 A 
ENDROOT
BRANCH   6   7
ATOM      7  C   UNL     1       2.512   6.479  19.578  0.00  0.00    +0.000 A 
ATOM      8  N   UNL     1       1.934   6.869  20.665  0.00  0.00    +0.000 NA
ATOM      9  C   UNL     1       1.422   8.167  20.675  0.00  0.00    +0.000 A 
ATOM     10  C   UNL     1       0.876   8.702  21.843  0.00  0.00    +0.000 A 
ATOM     11  C   UNL     1       0.348   9.999  21.851  0.00  0.00    +0.000 A 
ATOM     12  C   UNL     1       0.355  10.767  20.688  0.00  0.00    +0.000 A 
ATOM     13  C   UNL     1       0.897  10.243  19.520  0.00  0.00    +0.000 A 
ATOM     14  C   UNL     1       1.430   8.950  19.528  0.00  0.00    +0.000 A 
ATOM     15  C   UNL     1       2.026   8.375  18.320  0.00  0.00    +0.000 A 
ATOM     16  O   UNL     1       1.975   8.976  17.253  0.00  0.00    +0.000 OA
ATOM     17  O   UNL     1       2.646   7.187  18.435  0.00  0.00    +0.000 OA
ENDBRANCH   6   7
BRANCH   5  18
ATOM     18  C   UNL     1       5.491   5.465  18.614  0.00  0.00    +0.000 A 
ATOM     19  C   UNL     1       6.671   5.373  19.368  0.00  0.00    +0.000 A 
ATOM     20  C   UNL     1       7.796   6.130  19.027  0.00  0.00    +0.000 A 
ATOM     21  C   UNL     1       7.755   6.988  17.930  0.00  0.00    +0.000 A 
ATOM     22  C   UNL     1       6.588   7.095  17.177  0.00  0.00    +0.000 A 
ATOM     23  C   UNL     1       5.460   6.344  17.520  0.00  0.00    +0.000 A 
ENDBRANCH   5  18
TORSDOF 2
ENDMDL
MODEL 3
REMARK VINA RESULT:      -8.4      2.354      6.151
REMARK  Name = 
REMARK  3 active torsions:
REMARK  status: ('A' for Active; 'I' for Inactive)
REMARK    1  A    between atoms: C_1  and  C_2
REMARK    2  A    between atoms: C_5  and  C_6
REMARK    3  A    between atoms: C_12  and  C_13
REMARK                            x       y       z     vdW  Elec       q    Type
REMARK                         _______ _______ _______ _____ _____    ______ ____
ROOT
ATOM      1  C   UNL     1       4.045   2.173  20.291  0.00  0.00    +0.000 C 
ATOM      2  C   UNL     1       3.383   3.492  20.262  0.00  0.00    +0.000 A 
ATOM      3  O   UNL     1       2.478   3.738  21.241  0.00  0.00    +0.000 OA
ATOM      4  N   UNL     1       1.981   5.015  21.102  0.00  0.00    +0.000 NA
ATOM      5  C   UNL     1       2.579   5.544  20.021  0.00  0.00    +0.000 A 
ATOM      6  C   UNL     1       3.516   4.613  19.473  0.00  0.00    +0.000 A 
ENDROOT
BRANCH   6   7
ATOM      7  C   UNL     1       4.474   4.774  18.413  0.00  0.00    +0.000 A 
ATOM      8  N   UNL     1       4.238   4.292  17.238  0.00  0.00    +0.000 NA
ATOM      9  C   UNL     1       5.234   4.463  16.276  0.00  0.00    +0.000 A 
ATOM     10  C   UNL     1       5.016   4.065  14.955  0.00  0.00    +0.000 A 
ATOM     11  C   UNL     1       6.020   4.222  13.992  0.00  0.00    +0.000 A 
ATOM     12  C   UNL     1       7.251   4.773  14.344  0.00  0.00    +0.000 A 
ATOM     13  C   UNL     1       7.477   5.173  15.656  0.00  0.00    +0.000 A 
ATOM     14  C   UNL     1       6.463   5.019  16.607  0.00  0.00    +0.000 A 
ATOM     15  C   UNL     1       6.661   5.447  17.993  0.00  0.00    +0.000 A 
ATOM     16  O   UNL     1       7.755   5.853  18.370  0.00  0.00    +0.000 OA
ATOM     17  O   UNL     1       5.600   5.402  18.818  0.00  0.00    +0.000 OA
ENDBRANCH   6   7
BRANCH   5  18
ATOM     18  C   UNL     1       2.221   6.886  19.552  0.00  0.00    +0.000 A 
ATOM     19  C   UNL     1       1.618   7.808  20.422  0.00  0.00    +0.000 A 
ATOM     20  C   UNL     1       1.253   9.080  19.972  0.00  0.00    +0.000 A 
ATOM     21  C   UNL     1       1.484   9.446  18.648  0.00  0.00    +0.000 A 
ATOM     22  C   UNL     1       2.075   8.539  17.771  0.00  0.00    +0.000 A 
ATOM     23  C   UNL     1       2.435   7.265  18.217  0.00  0.00    +0.000 A 
ENDBRANCH   5  18
TORSDOF 2
ENDMDL
MODEL 4
REMARK VINA RESULT:      -8.4      2.358      6.106
REMARK  Name = 
REMARK  3 active torsions:
REMARK  status: ('A' for Active; 'I' for Inactive)
REMARK    1  A    between atoms: C_1  and  C_2
REMARK    2  A    between atoms: C_5  and  C_6
REMARK    3  A    between atoms: C_12  and  C_13
REMARK                            x       y       z     vdW  Elec       q    Type
REMARK                         _______ _______ _______ _____ _____    ______ ____
ROOT
ATOM      1  C   UNL     1       4.069   2.155  20.234  0.00  0.00    +0.000 C 
ATOM      2  C   UNL     1       3.396   3.468  20.214  0.00  0.00    +0.000 A 
ATOM      3  O   UNL     1       2.498   3.703  21.202  0.00  0.00    +0.000 OA
ATOM      4  N   UNL     1       1.990   4.977  21.072  0.00  0.00    +0.000 NA
ATOM      5  C   UNL     1       2.574   5.514  19.987  0.00  0.00    +0.000 A 
ATOM      6  C   UNL     1       3.513   4.592  19.428  0.00  0.00    +0.000 A 
ENDROOT
BRANCH   6   7
ATOM      7  C   UNL     1       4.461   4.764  18.360  0.00  0.00    +0.000 A 
ATOM      8  N   UNL     1       4.238   4.248  17.197  0.00  0.00    +0.000 NA
ATOM      9  C   UNL     1       5.223   4.434  16.227  0.00  0.00    +0.000 A 
ATOM     10  C   UNL     1       5.015   4.000  14.916  0.00  0.00    +0.000 A 
ATOM     11  C   UNL     1       6.009   4.172  13.945  0.00  0.00    +0.000 A 
ATOM     12  C   UNL     1       7.220   4.774  14.279  0.00  0.00    +0.000 A 
ATOM     13  C   UNL     1       7.438   5.210  15.581  0.00  0.00    +0.000 A 
ATOM     14  C   UNL     1       6.433   5.041  16.540  0.00  0.00    +0.000 A 
ATOM     15  C   UNL     1       6.621   5.506  17.916  0.00  0.00    +0.000 A 
ATOM     16  O   UNL     1       7.701   5.958  18.278  0.00  0.00    +0.000 OA
ATOM     17  O   UNL     1       5.565   5.441  18.746  0.00  0.00    +0.000 OA
ENDBRANCH   6   7
BRANCH   5  18
ATOM     18  C   UNL     1       2.201   6.855  19.525  0.00  0.00    +0.000 A 
ATOM     19  C   UNL     1       2.450   7.246  18.201  0.00  0.00    +0.000 A 
ATOM     20  C   UNL     1       2.119   8.533  17.763  0.00  0.00    +0.000 A 
ATOM     21  C   UNL     1       1.537   9.442  18.643  0.00  0.00    +0.000 A 
ATOM     22  C   UNL     1       1.291   9.069  19.963  0.00  0.00    +0.000 A 
ATOM     23  C   UNL     1       1.627   7.786  20.404  0.00  0.00    +0.000 A 
ENDBRANCH   5  18
TORSDOF 2
ENDMDL
MODEL 5
REMARK VINA RESULT:      -8.3      3.393      5.173
REMARK  Name = 
REMARK  3 active torsions:
REMARK  status: ('A' for Active; 'I' for Inactive)
REMARK    1  A    between atoms: C_1  and  C_2
REMARK    2  A    between atoms: C_5  and  C_6
REMARK    3  A    between atoms: C_12  and  C_13
REMARK                            x       y       z     vdW  Elec       q    Type
REMARK                         _______ _______ _______ _____ _____    ______ ____
ROOT
ATOM      1  C   UNL     1       4.797   3.449  13.509  0.00  0.00    +0.000 C 
ATOM      2  C   UNL     1       5.712   4.252  14.343  0.00  0.00    +0.000 A 
ATOM      3  O   UNL     1       6.818   4.742  13.731  0.00  0.00    +0.000 OA
ATOM      4  N   UNL     1       7.545   5.499  14.623  0.00  0.00    +0.000 NA
ATOM      5  C   UNL     1       6.882   5.454  15.792  0.00  0.00    +0.000 A 
ATOM      6  C   UNL     1       5.679   4.695  15.647  0.00  0.00    +0.000 A 
ENDROOT
BRANCH   6   7
ATOM      7  C   UNL     1       4.596   4.485  16.569  0.00  0.00    +0.000 A 
ATOM      8  N   UNL     1       4.179   3.290  16.827  0.00  0.00    +0.000 NA
ATOM      9  C   UNL     1       3.102   3.176  17.707  0.00  0.00    +0.000 A 
ATOM     10  C   UNL     1       2.658   1.918  18.121  0.00  0.00    +0.000 A 
ATOM     11  C   UNL     1       1.568   1.801  18.993  0.00  0.00    +0.000 A 
ATOM     12  C   UNL     1       0.911   2.941  19.451  0.00  0.00    +0.000 A 
ATOM     13  C   UNL     1       1.346   4.198  19.046  0.00  0.00    +0.000 A 
ATOM     14  C   UNL     1       2.442   4.302  18.183  0.00  0.00    +0.000 A 
ATOM     15  C   UNL     1       2.938   5.610  17.751  0.00  0.00    +0.000 A 
ATOM     16  O   UNL     1       2.339   6.635  18.056  0.00  0.00    +0.000 OA
ATOM     17  O   UNL     1       4.079   5.641  17.039  0.00  0.00    +0.000 OA
ENDBRANCH   6   7
BRANCH   5  18
ATOM     18  C   UNL     1       7.428   6.110  16.985  0.00  0.00    +0.000 A 
ATOM     19  C   UNL     1       7.688   5.369  18.148  0.00  0.00    +0.000 A 
ATOM     20  C   UNL     1       8.185   5.995  19.296  0.00  0.00    +0.000 A 
ATOM     21  C   UNL     1       8.427   7.367  19.295  0.00  0.00    +0.000 A 
ATOM     22  C   UNL     1       8.166   8.116  18.149  0.00  0.00    +0.000 A 
ATOM     23  C   UNL     1       7.663   7.493  17.003  0.00  0.00    +0.000 A 
ENDBRANCH   5  18
TORSDOF 2
ENDMDL
MODEL 6
REMARK VINA RESULT:      -8.3      3.400      5.107
REMARK  Name = 
REMARK  3 active torsions:
REMARK  status: ('A' for Active; 'I' for Inactive)
REMARK    1  A    between atoms: C_1  and  C_2
REMARK    2  A    between atoms: C_5  and  C_6
REMARK    3  A    between atoms: C_12  and  C_13
REMARK                            x       y       z     vdW  Elec       q    Type
REMARK                         _______ _______ _______ _____ _____    ______ ____
ROOT
ATOM      1  C   UNL     1       4.825   3.437  13.513  0.00  0.00    +0.000 C 
ATOM      2  C   UNL     1       5.723   4.253  14.353  0.00  0.00    +0.000 A 
ATOM      3  O   UNL     1       6.829   4.753  13.749  0.00  0.00    +0.000 OA
ATOM      4  N   UNL     1       7.539   5.521  14.646  0.00  0.00    +0.000 NA
ATOM      5  C   UNL     1       6.865   5.475  15.808  0.00  0.00    +0.000 A 
ATOM      6  C   UNL     1       5.672   4.702  15.653  0.00  0.00    +0.000 A 
ENDROOT
BRANCH   6   7
ATOM      7  C   UNL     1       4.582   4.484  16.566  0.00  0.00    +0.000 A 
ATOM      8  N   UNL     1       4.163   3.288  16.810  0.00  0.00    +0.000 NA
ATOM      9  C   UNL     1       3.079   3.166  17.681  0.00  0.00    +0.000 A 
ATOM     10  C   UNL     1       2.631   1.906  18.081  0.00  0.00    +0.000 A 
ATOM     11  C   UNL     1       1.535   1.782  18.943  0.00  0.00    +0.000 A 
ATOM     12  C   UNL     1       0.875   2.918  19.407  0.00  0.00    +0.000 A 
ATOM     13  C   UNL     1       1.313   4.178  19.016  0.00  0.00    +0.000 A 
ATOM     14  C   UNL     1       2.415   4.289  18.162  0.00  0.00    +0.000 A 
ATOM     15  C   UNL     1       2.916   5.600  17.746  0.00  0.00    +0.000 A 
ATOM     16  O   UNL     1       2.315   6.623  18.054  0.00  0.00    +0.000 OA
ATOM     17  O   UNL     1       4.062   5.636  17.042  0.00  0.00    +0.000 OA
ENDBRANCH   6   7
BRANCH   5  18
ATOM     18  C   UNL     1       7.392   6.142  17.003  0.00  0.00    +0.000 A 
ATOM     19  C   UNL     1       7.646   7.522  16.994  0.00  0.00    +0.000 A 
ATOM     20  C   UNL     1       8.172   8.158  18.123  0.00  0.00    +0.000 A 
ATOM     21  C   UNL     1       8.450   7.422  19.273  0.00  0.00    +0.000 A 
ATOM     22  C   UNL     1       8.210   6.050  19.293  0.00  0.00    +0.000 A 
ATOM     23  C   UNL     1       7.691   5.412  18.164  0.00  0.00    +0.000 A 
ENDBRANCH   5  18
TORSDOF 2
ENDMDL
MODEL 7
REMARK VINA RESULT:      -8.2      1.315      2.013
REMARK  Name = 
REMARK  3 active torsions:
REMARK  status: ('A' for Active; 'I' for Inactive)
REMARK    1  A    between atoms: C_1  and  C_2
REMARK    2  A    between atoms: C_5  and  C_6
REMARK    3  A    between atoms: C_12  and  C_13
REMARK                            x       y       z     vdW  Elec       q    Type
REMARK                         _______ _______ _______ _____ _____    ______ ____
ROOT
ATOM      1  C   UNL     1       1.076   3.518  20.491  0.00  0.00    +0.000 C 
ATOM      2  C   UNL     1       2.414   3.846  19.963  0.00  0.00    +0.000 A 
ATOM      3  O   UNL     1       3.231   2.800  19.687  0.00  0.00    +0.000 OA
ATOM      4  N   UNL     1       4.420   3.264  19.168  0.00  0.00    +0.000 NA
ATOM      5  C   UNL     1       4.328   4.605  19.142  0.00  0.00    +0.000 A 
ATOM      6  C   UNL     1       3.042   5.019  19.608  0.00  0.00    +0.000 A 
ENDROOT
BRANCH   6   7
ATOM      7  C   UNL     1       2.440   6.325  19.636  0.00  0.00    +0.000 A 
ATOM      8  N   UNL     1       2.582   7.133  18.638  0.00  0.00    +0.000 NA
ATOM      9  C   UNL     1       1.995   8.392  18.759  0.00  0.00    +0.000 A 
ATOM     10  C   UNL     1       2.011   9.286  17.686  0.00  0.00    +0.000 A 
ATOM     11  C   UNL     1       1.435  10.556  17.811  0.00  0.00    +0.000 A 
ATOM     12  C   UNL     1       0.843  10.944  19.012  0.00  0.00    +0.000 A 
ATOM     13  C   UNL     1       0.820  10.061  20.085  0.00  0.00    +0.000 A 
ATOM     14  C   UNL     1       1.391   8.792  19.945  0.00  0.00    +0.000 A 
ATOM     15  C   UNL     1       1.368   7.830  21.049  0.00  0.00    +0.000 A 
ATOM     16  O   UNL     1       0.940   8.157  22.150  0.00  0.00    +0.000 OA
ATOM     17  O   UNL     1       1.805   6.583  20.800  0.00  0.00    +0.000 OA
ENDBRANCH   6   7
BRANCH   5  18
ATOM     18  C   UNL     1       5.463   5.422  18.700  0.00  0.00    +0.000 A 
ATOM     19  C   UNL     1       5.366   6.211  17.543  0.00  0.00    +0.000 A 
ATOM     20  C   UNL     1       6.454   6.971  17.105  0.00  0.00    +0.000 A 
ATOM     21  C   UNL     1       7.652   6.952  17.815  0.00  0.00    +0.000 A 
ATOM     22  C   UNL     1       7.765   6.167  18.961  0.00  0.00    +0.000 A 
ATOM     23  C   UNL     1       6.681   5.401  19.397  0.00  0.00    +0.000 A 
ENDBRANCH   5  18
TORSDOF 2
ENDMDL
MODEL 8
REMARK VINA RESULT:      -8.1      1.385      2.282
REMARK  Name = 
REMARK  3 active torsions:
REMARK  status: ('A' for Active; 'I' for Inactive)
REMARK    1  A    between atoms: C_1  and  C_2
REMARK    2  A    between atoms: C_5  and  C_6
REMARK    3  A    between atoms: C_12  and  C_13
REMARK                            x       y       z     vdW  Elec       q    Type
REMARK                         _______ _______ _______ _____ _____    ______ ____
ROOT
ATOM      1  C   UNL     1       1.086   3.498  20.775  0.00  0.00    +0.000 C 
ATOM      2  C   UNL     1       2.393   3.765  20.141  0.00  0.00    +0.000 A 
ATOM      3  O   UNL     1       3.167   2.686  19.871  0.00  0.00    +0.000 OA
ATOM      4  N   UNL     1       4.326   3.091  19.248  0.00  0.00    +0.000 NA
ATOM      5  C   UNL     1       4.261   4.431  19.153  0.00  0.00    +0.000 A 
ATOM      6  C   UNL     1       3.019   4.901  19.680  0.00  0.00    +0.000 A 
ENDROOT
BRANCH   6   7
ATOM      7  C   UNL     1       2.447   6.221  19.675  0.00  0.00    +0.000 A 
ATOM      8  N   UNL     1       2.605   6.998  18.655  0.00  0.00    +0.000 NA
ATOM      9  C   UNL     1       2.046   8.274  18.744  0.00  0.00    +0.000 A 
ATOM     10  C   UNL     1       2.080   9.138  17.648  0.00  0.00    +0.000 A 
ATOM     11  C   UNL     1       1.533  10.424  17.741  0.00  0.00    +0.000 A 
ATOM     12  C   UNL     1       0.955  10.857  18.932  0.00  0.00    +0.000 A 
ATOM     13  C   UNL     1       0.916  10.004  20.029  0.00  0.00    +0.000 A 
ATOM     14  C   UNL     1       1.457   8.719  19.921  0.00  0.00    +0.000 A 
ATOM     15  C   UNL     1       1.416   7.788  21.051  0.00  0.00    +0.000 A 
ATOM     16  O   UNL     1       0.999   8.153  22.144  0.00  0.00    +0.000 OA
ATOM     17  O   UNL     1       1.823   6.525  20.834  0.00  0.00    +0.000 OA
ENDBRANCH   6   7
BRANCH   5  18
ATOM     18  C   UNL     1       5.381   5.194  18.591  0.00  0.00    +0.000 A 
ATOM     19  C   UNL     1       6.531   5.439  19.357  0.00  0.00    +0.000 A 
ATOM     20  C   UNL     1       7.590   6.188  18.834  0.00  0.00    +0.000 A 
ATOM     21  C   UNL     1       7.512   6.700  17.541  0.00  0.00    +0.000 A 
ATOM     22  C   UNL     1       6.373   6.471  16.772  0.00  0.00    +0.000 A 
ATOM     23  C   UNL     1       5.310   5.729  17.295  0.00  0.00    +0.000 A 
ENDBRANCH   5  18
TORSDOF 2
ENDMDL
MODEL 9
REMARK VINA RESULT:      -8.1      2.557      6.312
REMARK  Name = 
REMARK  3 active torsions:
REMARK  status: ('A' for Active; 'I' for Inactive)
REMARK    1  A    between atoms: C_1  and  C_2
REMARK    2  A    between atoms: C_5  and  C_6
REMARK    3  A    between atoms: C_12  and  C_13
REMARK                            x       y       z     vdW  Elec       q    Type
REMARK                         _______ _______ _______ _____ _____    ______ ____
ROOT
ATOM      1  C   UNL     1       3.706   1.098  18.824  0.00  0.00    +0.000 C 
ATOM      2  C   UNL     1       3.143   2.422  19.154  0.00  0.00    +0.000 A 
ATOM      3  O   UNL     1       2.206   2.456  20.133  0.00  0.00    +0.000 OA
ATOM      4  N   UNL     1       1.811   3.758  20.351  0.00  0.00    +0.000 NA
ATOM      5  C   UNL     1       2.504   4.519  19.486  0.00  0.00    +0.000 A 
ATOM      6  C   UNL     1       3.399   3.705  18.724  0.00  0.00    +0.000 A 
ENDROOT
BRANCH   6   7
ATOM      7  C   UNL     1       4.423   4.078  17.786  0.00  0.00    +0.000 A 
ATOM      8  N   UNL     1       4.292   3.802  16.530  0.00  0.00    +0.000 NA
ATOM      9  C   UNL     1       5.346   4.169  15.693  0.00  0.00    +0.000 A 
ATOM     10  C   UNL     1       5.241   4.003  14.310  0.00  0.00    +0.000 A 
ATOM     11  C   UNL     1       6.303   4.357  13.469  0.00  0.00    +0.000 A 
ATOM     12  C   UNL     1       7.481   4.873  14.006  0.00  0.00    +0.000 A 
ATOM     13  C   UNL     1       7.596   5.044  15.381  0.00  0.00    +0.000 A 
ATOM     14  C   UNL     1       6.524   4.695  16.209  0.00  0.00    +0.000 A 
ATOM     15  C   UNL     1       6.604   4.880  17.660  0.00  0.00    +0.000 A 
ATOM     16  O   UNL     1       7.649   5.246  18.184  0.00  0.00    +0.000 OA
ATOM     17  O   UNL     1       5.489   4.659  18.379  0.00  0.00    +0.000 OA
ENDBRANCH   6   7
BRANCH   5  18
ATOM     18  C   UNL     1       2.270   5.964  19.410  0.00  0.00    +0.000 A 
ATOM     19  C   UNL     1       1.832   6.675  20.539  0.00  0.00    +0.000 A 
ATOM     20  C   UNL     1       1.583   8.049  20.464  0.00  0.00    +0.000 A 
ATOM     21  C   UNL     1       1.768   8.728  19.263  0.00  0.00    +0.000 A 
ATOM     22  C   UNL     1       2.196   8.034  18.133  0.00  0.00    +0.000 A 
ATOM     23  C   UNL     1       2.438   6.660  18.203  0.00  0.00    +0.000 A 
ENDBRANCH   5  18
TORSDOF 2
ENDMDL
