MODEL 1
REMARK VINA RESULT:      -8.4      0.000      0.000
REMARK  Name = 
REMARK  8 active torsions:
REMARK  status: ('A' for Active; 'I' for Inactive)
REMARK    1  A    between atoms: C_1  and  C_2
REMARK    2  A    between atoms: C_2  and  C_3
REMARK    3  A    between atoms: C_7  and  N_8
REMARK    4  A    between atoms: N_8  and  C_9
REMARK    5  A    between atoms: N_12  and  C_13
REMARK    6  A    between atoms: C_15  and  C_16
REMARK    7  A    between atoms: C_21  and  C_22
REMARK    8  A    between atoms: C_22  and  C_23
REMARK                            x       y       z     vdW  Elec       q    Type
REMARK                         _______ _______ _______ _____ _____    ______ ____
ROOT
ATOM      1  N   UNL     1       3.301   3.963  19.577  0.00  0.00    +0.000 N 
ATOM      2  C   UNL     1       2.866   2.558  19.620  0.00  0.00    +0.000 C 
ATOM      3  C   UNL     1       2.391   4.965  19.908  0.00  0.00    +0.000 C 
ATOM      4  N   UNL     1       1.114   4.769  20.064  0.00  0.00    +0.000 NA
ATOM      5  N   UNL     1       2.924   6.219  20.133  0.00  0.00    +0.000 N 
ATOM      6  H   UNL     1       0.855   3.805  19.874  0.00  0.00    +0.000 HD
ATOM      7  H   UNL     1       3.618   6.239  20.870  0.00  0.00    +0.000 HD
ENDROOT
BRANCH   5   8
ATOM      8  C   UNL     1       2.140   7.403  20.061  0.00  0.00    +0.000 A 
ATOM      9  C   UNL     1       1.373   7.768  21.182  0.00  0.00    +0.000 A 
ATOM     10  C   UNL     1       0.629   8.948  21.214  0.00  0.00    +0.000 A 
ATOM     11  C   UNL     1       0.679   9.798  20.104  0.00  0.00    +0.000 A 
ATOM     12  C   UNL     1       1.432   9.471  18.956  0.00  0.00    +0.000 A 
ATOM     13  C   UNL     1       2.111   8.232  18.922  0.00  0.00    +0.000 A 
ATOM     14 CL   UNL     1       2.929   7.706  17.487  0.00  0.00    +0.000 Cl
BRANCH  10  15
ATOM     15  C   UNL     1      -0.185   9.297  22.435  0.00  0.00    +0.000 C 
ATOM     16  F   UNL     1      -1.128   8.367  22.757  0.00  0.00    +0.000 F 
ATOM     17  F   UNL     1       0.582   9.454  23.549  0.00  0.00    +0.000 F 
ATOM     18  F   UNL     1      -0.863  10.470  22.281  0.00  0.00    +0.000 F 
ENDBRANCH  10  15
BRANCH  12  19
ATOM     19  C   UNL     1       1.530  10.505  17.856  0.00  0.00    +0.000 C 
ATOM     20  C   UNL     1       2.040  11.858  18.320  0.00  0.00    +0.000 C 
ENDBRANCH  12  19
ENDBRANCH   5   8
BRANCH   1  25
ATOM     21  C   UNL     1       6.675   5.101  18.316  0.00  0.00    +0.000 A 
ATOM     22  C   UNL     1       6.626   4.660  16.993  0.00  0.00    +0.000 A 
ATOM     23  C   UNL     1       5.509   3.972  16.533  0.00  0.00    +0.000 A 
ATOM     24  C   UNL     1       4.433   3.727  17.393  0.00  0.00    +0.000 A 
ATOM     25  C   UNL     1       4.436   4.167  18.730  0.00  0.00    +0.000 A 
ATOM     26  C   UNL     1       5.589   4.839  19.173  0.00  0.00    +0.000 A 
BRANCH  21  28
ATOM     27  C   UNL     1       7.871   7.264  18.035  0.00  0.00    +0.000 C 
ATOM     28  C   UNL     1       7.833   5.942  18.790  0.00  0.00    +0.000 C 
ENDBRANCH  21  28
ENDBRANCH   1  25
TORSDOF 5
ENDMDL
MODEL 2
REMARK VINA RESULT:      -8.2      0.687      1.035
REMARK  Name = 
REMARK  8 active torsions:
REMARK  status: ('A' for Active; 'I' for Inactive)
REMARK    1  A    between atoms: C_1  and  C_2
REMARK    2  A    between atoms: C_2  and  C_3
REMARK    3  A    between atoms: C_7  and  N_8
REMARK    4  A    between atoms: N_8  and  C_9
REMARK    5  A    between atoms: N_12  and  C_13
REMARK    6  A    between atoms: C_15  and  C_16
REMARK    7  A    between atoms: C_21  and  C_22
REMARK    8  A    between atoms: C_22  and  C_23
REMARK                            x       y       z     vdW  Elec       q    Type
REMARK                         _______ _______ _______ _____ _____    ______ ____
ROOT
ATOM      1  N   UNL     1       3.134   4.351  19.718  0.00  0.00    +0.000 N 
ATOM      2  C   UNL     1       2.761   2.933  19.834  0.00  0.00    +0.000 C 
ATOM      3  C   UNL     1       2.241   5.325  20.159  0.00  0.00    +0.000 C 
ATOM      4  N   UNL     1       1.005   5.087  20.488  0.00  0.00    +0.000 NA
ATOM      5  N   UNL     1       2.753   6.601  20.297  0.00  0.00    +0.000 N 
ATOM      6  H   UNL     1       0.758   4.112  20.345  0.00  0.00    +0.000 HD
ATOM      7  H   UNL     1       3.539   6.657  20.933  0.00  0.00    +0.000 HD
ENDROOT
BRANCH   5   8
ATOM      8  C   UNL     1       1.923   7.755  20.319  0.00  0.00    +0.000 A 
ATOM      9  C   UNL     1       1.258   8.080  21.515  0.00  0.00    +0.000 A 
ATOM     10  C   UNL     1       0.479   9.231  21.636  0.00  0.00    +0.000 A 
ATOM     11  C   UNL     1       0.387  10.093  20.540  0.00  0.00    +0.000 A 
ATOM     12  C   UNL     1       1.033   9.806  19.318  0.00  0.00    +0.000 A 
ATOM     13  C   UNL     1       1.750   8.594  19.200  0.00  0.00    +0.000 A 
ATOM     14 CL   UNL     1       2.439   8.114  17.683  0.00  0.00    +0.000 Cl
BRANCH  10  15
ATOM     15  C   UNL     1      -0.221   9.537  22.937  0.00  0.00    +0.000 C 
ATOM     16  F   UNL     1      -0.683  10.816  23.031  0.00  0.00    +0.000 F 
ATOM     17  F   UNL     1      -1.298   8.733  23.155  0.00  0.00    +0.000 F 
ATOM     18  F   UNL     1       0.597   9.362  24.013  0.00  0.00    +0.000 F 
ENDBRANCH  10  15
BRANCH  12  19
ATOM     19  C   UNL     1       0.984  10.854  18.228  0.00  0.00    +0.000 C 
ATOM     20  C   UNL     1       0.237  12.118  18.615  0.00  0.00    +0.000 C 
ENDBRANCH  12  19
ENDBRANCH   5   8
BRANCH   1  25
ATOM     21  C   UNL     1       6.324   5.477  18.036  0.00  0.00    +0.000 A 
ATOM     22  C   UNL     1       6.059   5.134  16.709  0.00  0.00    +0.000 A 
ATOM     23  C   UNL     1       4.858   4.515  16.380  0.00  0.00    +0.000 A 
ATOM     24  C   UNL     1       3.915   4.240  17.376  0.00  0.00    +0.000 A 
ATOM     25  C   UNL     1       4.136   4.582  18.723  0.00  0.00    +0.000 A 
ATOM     26  C   UNL     1       5.369   5.186  19.029  0.00  0.00    +0.000 A 
BRANCH  21  28
ATOM     27  C   UNL     1       7.621   7.555  17.606  0.00  0.00    +0.000 C 
ATOM     28  C   UNL     1       7.573   6.246  18.383  0.00  0.00    +0.000 C 
ENDBRANCH  21  28
ENDBRANCH   1  25
TORSDOF 5
ENDMDL
MODEL 3
REMARK VINA RESULT:      -8.2      0.682      1.651
REMARK  Name = 
REMARK  8 active torsions:
REMARK  status: ('A' for Active; 'I' for Inactive)
REMARK    1  A    between atoms: C_1  and  C_2
REMARK    2  A    between atoms: C_2  and  C_3
REMARK    3  A    between atoms: C_7  and  N_8
REMARK    4  A    between atoms: N_8  and  C_9
REMARK    5  A    between atoms: N_12  and  C_13
REMARK    6  A    between atoms: C_15  and  C_16
REMARK    7  A    between atoms: C_21  and  C_22
REMARK    8  A    between atoms: C_22  and  C_23
REMARK                            x       y       z     vdW  Elec       q    Type
REMARK                         _______ _______ _______ _____ _____    ______ ____
ROOT
ATOM      1  N   UNL     1       3.393   4.188  19.479  0.00  0.00    +0.000 N 
ATOM      2  C   UNL     1       3.008   2.768  19.494  0.00  0.00    +0.000 C 
ATOM      3  C   UNL     1       2.456   5.149  19.853  0.00  0.00    +0.000 C 
ATOM      4  N   UNL     1       1.190   4.905  20.027  0.00  0.00    +0.000 NA
ATOM      5  N   UNL     1       2.950   6.416  20.100  0.00  0.00    +0.000 N 
ATOM      6  H   UNL     1       0.960   3.938  19.818  0.00  0.00    +0.000 HD
ATOM      7  H   UNL     1       3.657   6.441  20.824  0.00  0.00    +0.000 HD
ENDROOT
BRANCH   5   8
ATOM      8  C   UNL     1       2.124   7.572  20.072  0.00  0.00    +0.000 A 
ATOM      9  C   UNL     1       1.394   7.902  21.228  0.00  0.00    +0.000 A 
ATOM     10  C   UNL     1       0.613   9.056  21.302  0.00  0.00    +0.000 A 
ATOM     11  C   UNL     1       0.587   9.916  20.201  0.00  0.00    +0.000 A 
ATOM     12  C   UNL     1       1.302   9.625  19.019  0.00  0.00    +0.000 A 
ATOM     13  C   UNL     1       2.020   8.410  18.944  0.00  0.00    +0.000 A 
ATOM     14 CL   UNL     1       2.793   7.924  17.470  0.00  0.00    +0.000 Cl
BRANCH  10  15
ATOM     15  C   UNL     1      -0.160   9.366  22.560  0.00  0.00    +0.000 C 
ATOM     16  F   UNL     1      -1.146   8.468  22.841  0.00  0.00    +0.000 F 
ATOM     17  F   UNL     1       0.633   9.411  23.666  0.00  0.00    +0.000 F 
ATOM     18  F   UNL     1      -0.777  10.580  22.496  0.00  0.00    +0.000 F 
ENDBRANCH  10  15
BRANCH  12  19
ATOM     19  C   UNL     1       1.319  10.671  17.926  0.00  0.00    +0.000 C 
ATOM     20  C   UNL     1       2.108  11.921  18.275  0.00  0.00    +0.000 C 
ENDBRANCH  12  19
ENDBRANCH   5   8
BRANCH   1  25
ATOM     21  C   UNL     1       5.495   4.615  16.370  0.00  0.00    +0.000 A 
ATOM     22  C   UNL     1       6.749   4.865  16.930  0.00  0.00    +0.000 A 
ATOM     23  C   UNL     1       6.892   4.921  18.311  0.00  0.00    +0.000 A 
ATOM     24  C   UNL     1       5.782   4.722  19.140  0.00  0.00    +0.000 A 
ATOM     25  C   UNL     1       4.504   4.452  18.617  0.00  0.00    +0.000 A 
ATOM     26  C   UNL     1       4.386   4.425  17.215  0.00  0.00    +0.000 A 
BRANCH  21  28
ATOM     27  C   UNL     1       6.720   4.500  14.208  0.00  0.00    +0.000 C 
ATOM     28  C   UNL     1       5.354   4.443  14.878  0.00  0.00    +0.000 C 
ENDBRANCH  21  28
ENDBRANCH   1  25
TORSDOF 5
ENDMDL
MODEL 4
REMARK VINA RESULT:      -7.9      0.973      2.014
REMARK  Name = 
REMARK  8 active torsions:
REMARK  status: ('A' for Active; 'I' for Inactive)
REMARK    1  A    between atoms: C_1  and  C_2
REMARK    2  A    between atoms: C_2  and  C_3
REMARK    3  A    between atoms: C_7  and  N_8
REMARK    4  A    between atoms: N_8  and  C_9
REMARK    5  A    between atoms: N_12  and  C_13
REMARK    6  A    between atoms: C_15  and  C_16
REMARK    7  A    between atoms: C_21  and  C_22
REMARK    8  A    between atoms: C_22  and  C_23
REMARK                            x       y       z     vdW  Elec       q    Type
REMARK                         _______ _______ _______ _____ _____    ______ ____
ROOT
ATOM      1  N   UNL     1       3.599   4.337  19.719  0.00  0.00    +0.000 N 
ATOM      2  C   UNL     1       3.382   2.885  19.813  0.00  0.00    +0.000 C 
ATOM      3  C   UNL     1       2.578   5.201  20.109  0.00  0.00    +0.000 C 
ATOM      4  N   UNL     1       1.360   4.824  20.365  0.00  0.00    +0.000 NA
ATOM      5  N   UNL     1       2.935   6.526  20.276  0.00  0.00    +0.000 N 
ATOM      6  H   UNL     1       1.233   3.829  20.208  0.00  0.00    +0.000 HD
ATOM      7  H   UNL     1       3.672   6.664  20.957  0.00  0.00    +0.000 HD
ENDROOT
BRANCH   5   8
ATOM      8  C   UNL     1       1.981   7.579  20.251  0.00  0.00    +0.000 A 
ATOM      9  C   UNL     1       1.435   8.018  21.471  0.00  0.00    +0.000 A 
ATOM     10  C   UNL     1       0.543   9.089  21.536  0.00  0.00    +0.000 A 
ATOM     11  C   UNL     1       0.214   9.756  20.352  0.00  0.00    +0.000 A 
ATOM     12  C   UNL     1       0.734   9.348  19.105  0.00  0.00    +0.000 A 
ATOM     13  C   UNL     1       1.572   8.211  19.061  0.00  0.00    +0.000 A 
ATOM     14 CL   UNL     1       2.122   7.572  17.545  0.00  0.00    +0.000 Cl
BRANCH  10  15
ATOM     15  C   UNL     1      -0.023   9.522  22.866  0.00  0.00    +0.000 C 
ATOM     16  F   UNL     1      -0.328  10.849  22.933  0.00  0.00    +0.000 F 
ATOM     17  F   UNL     1      -1.166   8.858  23.190  0.00  0.00    +0.000 F 
ATOM     18  F   UNL     1       0.845   9.292  23.892  0.00  0.00    +0.000 F 
ENDBRANCH  10  15
BRANCH  12  19
ATOM     19  C   UNL     1       0.425  10.203  17.896  0.00  0.00    +0.000 C 
ATOM     20  C   UNL     1      -1.057  10.337  17.593  0.00  0.00    +0.000 C 
ENDBRANCH  12  19
ENDBRANCH   5   8
BRANCH   1  25
ATOM     21  C   UNL     1       5.480   4.832  16.481  0.00  0.00    +0.000 A 
ATOM     22  C   UNL     1       6.716   5.273  16.957  0.00  0.00    +0.000 A 
ATOM     23  C   UNL     1       6.915   5.432  18.324  0.00  0.00    +0.000 A 
ATOM     24  C   UNL     1       5.880   5.146  19.221  0.00  0.00    +0.000 A 
ATOM     25  C   UNL     1       4.624   4.685  18.784  0.00  0.00    +0.000 A 
ATOM     26  C   UNL     1       4.445   4.557  17.395  0.00  0.00    +0.000 A 
BRANCH  21  28
ATOM     27  C   UNL     1       6.643   4.403  14.325  0.00  0.00    +0.000 C 
ATOM     28  C   UNL     1       5.292   4.553  15.011  0.00  0.00    +0.000 C 
ENDBRANCH  21  28
ENDBRANCH   1  25
TORSDOF 5
ENDMDL
MODEL 5
REMARK VINA RESULT:      -7.4      1.434      2.148
REMARK  Name = 
REMARK  8 active torsions:
REMARK  status: ('A' for Active; 'I' for Inactive)
REMARK    1  A    between atoms: C_1  and  C_2
REMARK    2  A    between atoms: C_2  and  C_3
REMARK    3  A    between atoms: C_7  and  N_8
REMARK    4  A    between atoms: N_8  and  C_9
REMARK    5  A    between atoms: N_12  and  C_13
REMARK    6  A    between atoms: C_15  and  C_16
REMARK    7  A    between atoms: C_21  and  C_22
REMARK    8  A    between atoms: C_22  and  C_23
REMARK                            x       y       z     vdW  Elec       q    Type
REMARK                         _______ _______ _______ _____ _____    ______ ____
ROOT
ATOM      1  N   UNL     1       3.256   4.914  19.316  0.00  0.00    +0.000 N 
ATOM      2  C   UNL     1       3.093   3.463  19.498  0.00  0.00    +0.000 C 
ATOM      3  C   UNL     1       2.350   5.780  19.926  0.00  0.00    +0.000 C 
ATOM      4  N   UNL     1       1.241   5.398  20.488  0.00  0.00    +0.000 NA
ATOM      5  N   UNL     1       2.715   7.112  19.965  0.00  0.00    +0.000 N 
ATOM      6  H   UNL     1       1.095   4.397  20.392  0.00  0.00    +0.000 HD
ATOM      7  H   UNL     1       3.596   7.277  20.436  0.00  0.00    +0.000 HD
ENDROOT
BRANCH   5   8
ATOM      8  C   UNL     1       1.768   8.154  20.152  0.00  0.00    +0.000 A 
ATOM      9  C   UNL     1       1.219   8.340  21.433  0.00  0.00    +0.000 A 
ATOM     10  C   UNL     1       0.333   9.381  21.712  0.00  0.00    +0.000 A 
ATOM     11  C   UNL     1       0.013  10.277  20.687  0.00  0.00    +0.000 A 
ATOM     12  C   UNL     1       0.537  10.128  19.385  0.00  0.00    +0.000 A 
ATOM     13  C   UNL     1       1.368   9.019  19.113  0.00  0.00    +0.000 A 
ATOM     14 CL   UNL     1       1.921   8.697  17.501  0.00  0.00    +0.000 Cl
BRANCH  10  15
ATOM     15  C   UNL     1      -0.237   9.538  23.100  0.00  0.00    +0.000 C 
ATOM     16  F   UNL     1       0.659   9.296  24.098  0.00  0.00    +0.000 F 
ATOM     17  F   UNL     1      -0.724  10.789  23.329  0.00  0.00    +0.000 F 
ATOM     18  F   UNL     1      -1.277   8.687  23.326  0.00  0.00    +0.000 F 
ENDBRANCH  10  15
BRANCH  12  19
ATOM     19  C   UNL     1       0.238  11.214  18.374  0.00  0.00    +0.000 C 
ATOM     20  C   UNL     1       0.922  12.538  18.663  0.00  0.00    +0.000 C 
ENDBRANCH  12  19
ENDBRANCH   5   8
BRANCH   1  25
ATOM     21  C   UNL     1       5.253   4.586  16.126  0.00  0.00    +0.000 A 
ATOM     22  C   UNL     1       5.604   5.918  15.896  0.00  0.00    +0.000 A 
ATOM     23  C   UNL     1       5.165   6.911  16.764  0.00  0.00    +0.000 A 
ATOM     24  C   UNL     1       4.375   6.576  17.870  0.00  0.00    +0.000 A 
ATOM     25  C   UNL     1       4.010   5.245  18.147  0.00  0.00    +0.000 A 
ATOM     26  C   UNL     1       4.450   4.266  17.238  0.00  0.00    +0.000 A 
BRANCH  21  28
ATOM     27  C   UNL     1       5.938   3.976  13.814  0.00  0.00    +0.000 C 
ATOM     28  C   UNL     1       5.816   3.494  15.254  0.00  0.00    +0.000 C 
ENDBRANCH  21  28
ENDBRANCH   1  25
TORSDOF 5
ENDMDL
MODEL 6
REMARK VINA RESULT:      -7.3      2.914      7.347
REMARK  Name = 
REMARK  8 active torsions:
REMARK  status: ('A' for Active; 'I' for Inactive)
REMARK    1  A    between atoms: C_1  and  C_2
REMARK    2  A    between atoms: C_2  and  C_3
REMARK    3  A    between atoms: C_7  and  N_8
REMARK    4  A    between atoms: N_8  and  C_9
REMARK    5  A    between atoms: N_12  and  C_13
REMARK    6  A    between atoms: C_15  and  C_16
REMARK    7  A    between atoms: C_21  and  C_22
REMARK    8  A    between atoms: C_22  and  C_23
REMARK                            x       y       z     vdW  Elec       q    Type
REMARK                         _______ _______ _______ _____ _____    ______ ____
ROOT
ATOM      1  N   UNL     1       1.167   9.853  19.224  0.00  0.00    +0.000 N 
ATOM      2  C   UNL     1       0.705  10.975  18.392  0.00  0.00    +0.000 C 
ATOM      3  C   UNL     1       1.730   8.739  18.606  0.00  0.00    +0.000 C 
ATOM      4  N   UNL     1       1.700   8.522  17.324  0.00  0.00    +0.000 NA
ATOM      5  N   UNL     1       2.403   7.861  19.434  0.00  0.00    +0.000 N 
ATOM      6  H   UNL     1       1.180   9.242  16.832  0.00  0.00    +0.000 HD
ATOM      7  H   UNL     1       3.163   8.290  19.948  0.00  0.00    +0.000 HD
ENDROOT
BRANCH   5   8
ATOM      8  C   UNL     1       2.658   6.512  19.065  0.00  0.00    +0.000 A 
ATOM      9  C   UNL     1       1.908   5.495  19.682  0.00  0.00    +0.000 A 
ATOM     10  C   UNL     1       2.052   4.153  19.327  0.00  0.00    +0.000 A 
ATOM     11  C   UNL     1       2.951   3.826  18.308  0.00  0.00    +0.000 A 
ATOM     12  C   UNL     1       3.728   4.813  17.663  0.00  0.00    +0.000 A 
ATOM     13  C   UNL     1       3.618   6.152  18.099  0.00  0.00    +0.000 A 
ATOM     14 CL   UNL     1       4.652   7.385  17.451  0.00  0.00    +0.000 Cl
BRANCH  10  15
ATOM     15  C   UNL     1       1.231   3.095  20.020  0.00  0.00    +0.000 C 
ATOM     16  F   UNL     1       1.857   1.889  20.128  0.00  0.00    +0.000 F 
ATOM     17  F   UNL     1       0.879   3.449  21.287  0.00  0.00    +0.000 F 
ATOM     18  F   UNL     1       0.061   2.844  19.366  0.00  0.00    +0.000 F 
ENDBRANCH  10  15
BRANCH  12  19
ATOM     19  C   UNL     1       4.580   4.386  16.487  0.00  0.00    +0.000 C 
ATOM     20  C   UNL     1       6.045   4.174  16.826  0.00  0.00    +0.000 C 
ENDBRANCH  12  19
ENDBRANCH   5   8
BRANCH   1  25
ATOM     21  C   UNL     1      -0.642  10.932  22.360  0.00  0.00    +0.000 A 
ATOM     22  C   UNL     1      -0.600   9.754  23.108  0.00  0.00    +0.000 A 
ATOM     23  C   UNL     1      -0.010   8.614  22.574  0.00  0.00    +0.000 A 
ATOM     24  C   UNL     1       0.546   8.649  21.290  0.00  0.00    +0.000 A 
ATOM     25  C   UNL     1       0.538   9.819  20.508  0.00  0.00    +0.000 A 
ATOM     26  C   UNL     1      -0.087  10.949  21.066  0.00  0.00    +0.000 A 
BRANCH  21  28
ATOM     27  C   UNL     1      -2.683  12.084  23.194  0.00  0.00    +0.000 C 
ATOM     28  C   UNL     1      -1.180  12.199  22.974  0.00  0.00    +0.000 C 
ENDBRANCH  21  28
ENDBRANCH   1  25
TORSDOF 5
ENDMDL
MODEL 7
REMARK VINA RESULT:      -7.1      2.985      7.289
REMARK  Name = 
REMARK  8 active torsions:
REMARK  status: ('A' for Active; 'I' for Inactive)
REMARK    1  A    between atoms: C_1  and  C_2
REMARK    2  A    between atoms: C_2  and  C_3
REMARK    3  A    between atoms: C_7  and  N_8
REMARK    4  A    between atoms: N_8  and  C_9
REMARK    5  A    between atoms: N_12  and  C_13
REMARK    6  A    between atoms: C_15  and  C_16
REMARK    7  A    between atoms: C_21  and  C_22
REMARK    8  A    between atoms: C_22  and  C_23
REMARK                            x       y       z     vdW  Elec       q    Type
REMARK                         _______ _______ _______ _____ _____    ______ ____
ROOT
ATOM      1  N   UNL     1       1.314   9.803  19.178  0.00  0.00    +0.000 N 
ATOM      2  C   UNL     1       0.904  10.984  18.403  0.00  0.00    +0.000 C 
ATOM      3  C   UNL     1       1.867   8.712  18.510  0.00  0.00    +0.000 C 
ATOM      4  N   UNL     1       1.868   8.572  17.217  0.00  0.00    +0.000 NA
ATOM      5  N   UNL     1       2.493   7.769  19.302  0.00  0.00    +0.000 N 
ATOM      6  H   UNL     1       1.381   9.334  16.755  0.00  0.00    +0.000 HD
ATOM      7  H   UNL     1       3.248   8.146  19.862  0.00  0.00    +0.000 HD
ENDROOT
BRANCH   5   8
ATOM      8  C   UNL     1       2.725   6.438  18.860  0.00  0.00    +0.000 A 
ATOM      9  C   UNL     1       1.893   5.415  19.350  0.00  0.00    +0.000 A 
ATOM     10  C   UNL     1       2.014   4.095  18.915  0.00  0.00    +0.000 A 
ATOM     11  C   UNL     1       2.973   3.798  17.942  0.00  0.00    +0.000 A 
ATOM     12  C   UNL     1       3.832   4.792  17.424  0.00  0.00    +0.000 A 
ATOM     13  C   UNL     1       3.739   6.103  17.942  0.00  0.00    +0.000 A 
ATOM     14 CL   UNL     1       4.863   7.331  17.457  0.00  0.00    +0.000 Cl
BRANCH  10  15
ATOM     15  C   UNL     1       1.105   3.028  19.473  0.00  0.00    +0.000 C 
ATOM     16  F   UNL     1       0.262   3.471  20.448  0.00  0.00    +0.000 F 
ATOM     17  F   UNL     1       0.312   2.464  18.520  0.00  0.00    +0.000 F 
ATOM     18  F   UNL     1       1.804   1.999  20.031  0.00  0.00    +0.000 F 
ENDBRANCH  10  15
BRANCH  12  19
ATOM     19  C   UNL     1       4.752   4.409  16.285  0.00  0.00    +0.000 C 
ATOM     20  C   UNL     1       6.209   4.264  16.686  0.00  0.00    +0.000 C 
ENDBRANCH  12  19
ENDBRANCH   5   8
BRANCH   1  25
ATOM     21  C   UNL     1      -0.614  10.730  22.292  0.00  0.00    +0.000 A 
ATOM     22  C   UNL     1      -0.567   9.528  23.000  0.00  0.00    +0.000 A 
ATOM     23  C   UNL     1       0.066   8.421  22.446  0.00  0.00    +0.000 A 
ATOM     24  C   UNL     1       0.659   8.513  21.182  0.00  0.00    +0.000 A 
ATOM     25  C   UNL     1       0.648   9.709  20.441  0.00  0.00    +0.000 A 
ATOM     26  C   UNL     1      -0.020  10.805  21.017  0.00  0.00    +0.000 A 
BRANCH  21  28
ATOM     27  C   UNL     1      -0.585  13.216  22.326  0.00  0.00    +0.000 C 
ATOM     28  C   UNL     1      -1.200  11.962  22.932  0.00  0.00    +0.000 C 
ENDBRANCH  21  28
ENDBRANCH   1  25
TORSDOF 5
ENDMDL
MODEL 8
REMARK VINA RESULT:      -7.1      6.365      9.363
REMARK  Name = 
REMARK  8 active torsions:
REMARK  status: ('A' for Active; 'I' for Inactive)
REMARK    1  A    between atoms: C_1  and  C_2
REMARK    2  A    between atoms: C_2  and  C_3
REMARK    3  A    between atoms: C_7  and  N_8
REMARK    4  A    between atoms: N_8  and  C_9
REMARK    5  A    between atoms: N_12  and  C_13
REMARK    6  A    between atoms: C_15  and  C_16
REMARK    7  A    between atoms: C_21  and  C_22
REMARK    8  A    between atoms: C_22  and  C_23
REMARK                            x       y       z     vdW  Elec       q    Type
REMARK                         _______ _______ _______ _____ _____    ______ ____
ROOT
ATOM      1  N   UNL     1      -3.541  11.250  16.660  0.00  0.00    +0.000 N 
ATOM      2  C   UNL     1      -3.676  10.506  15.398  0.00  0.00    +0.000 C 
ATOM      3  C   UNL     1      -2.305  11.280  17.301  0.00  0.00    +0.000 C 
ATOM      4  N   UNL     1      -1.294  10.529  16.973  0.00  0.00    +0.000 NA
ATOM      5  N   UNL     1      -2.164  12.218  18.306  0.00  0.00    +0.000 N 
ATOM      6  H   UNL     1      -1.529   9.889  16.220  0.00  0.00    +0.000 HD
ATOM      7  H   UNL     1      -2.324  13.169  17.999  0.00  0.00    +0.000 HD
ENDROOT
BRANCH   5   8
ATOM      8  C   UNL     1      -1.167  12.108  19.314  0.00  0.00    +0.000 A 
ATOM      9  C   UNL     1      -1.216  11.007  20.188  0.00  0.00    +0.000 A 
ATOM     10  C   UNL     1      -0.238  10.794  21.160  0.00  0.00    +0.000 A 
ATOM     11  C   UNL     1       0.831  11.690  21.238  0.00  0.00    +0.000 A 
ATOM     12  C   UNL     1       0.920  12.811  20.385  0.00  0.00    +0.000 A 
ATOM     13  C   UNL     1      -0.126  13.045  19.464  0.00  0.00    +0.000 A 
ATOM     14 CL   UNL     1      -0.150  14.482  18.494  0.00  0.00    +0.000 Cl
BRANCH  10  15
ATOM     15  C   UNL     1      -0.334   9.603  22.081  0.00  0.00    +0.000 C 
ATOM     16  F   UNL     1      -1.184   9.781  23.132  0.00  0.00    +0.000 F 
ATOM     17  F   UNL     1      -0.759   8.478  21.442  0.00  0.00    +0.000 F 
ATOM     18  F   UNL     1       0.871   9.284  22.633  0.00  0.00    +0.000 F 
ENDBRANCH  10  15
BRANCH  12  19
ATOM     19  C   UNL     1       2.174  13.656  20.454  0.00  0.00    +0.000 C 
ATOM     20  C   UNL     1       2.153  14.709  21.548  0.00  0.00    +0.000 C 
ENDBRANCH  12  19
ENDBRANCH   5   8
BRANCH   1  25
ATOM     21  C   UNL     1      -6.538  10.654  18.883  0.00  0.00    +0.000 A 
ATOM     22  C   UNL     1      -7.327  11.760  18.565  0.00  0.00    +0.000 A 
ATOM     23  C   UNL     1      -6.865  12.703  17.654  0.00  0.00    +0.000 A 
ATOM     24  C   UNL     1      -5.613  12.540  17.052  0.00  0.00    +0.000 A 
ATOM     25  C   UNL     1      -4.791  11.433  17.333  0.00  0.00    +0.000 A 
ATOM     26  C   UNL     1      -5.276  10.508  18.276  0.00  0.00    +0.000 A 
BRANCH  21  28
ATOM     27  C   UNL     1      -7.909  10.184  20.904  0.00  0.00    +0.000 C 
ATOM     28  C   UNL     1      -7.078   9.573  19.785  0.00  0.00    +0.000 C 
ENDBRANCH  21  28
ENDBRANCH   1  25
TORSDOF 5
ENDMDL
MODEL 9
REMARK VINA RESULT:      -7.0      3.382      7.280
REMARK  Name = 
REMARK  8 active torsions:
REMARK  status: ('A' for Active; 'I' for Inactive)
REMARK    1  A    between atoms: C_1  and  C_2
REMARK    2  A    between atoms: C_2  and  C_3
REMARK    3  A    between atoms: C_7  and  N_8
REMARK    4  A    between atoms: N_8  and  C_9
REMARK    5  A    between atoms: N_12  and  C_13
REMARK    6  A    between atoms: C_15  and  C_16
REMARK    7  A    between atoms: C_21  and  C_22
REMARK    8  A    between atoms: C_22  and  C_23
REMARK                            x       y       z     vdW  Elec       q    Type
REMARK                         _______ _______ _______ _____ _____    ______ ____
ROOT
ATOM      1  N   UNL     1      -0.035   9.922  21.271  0.00  0.00    +0.000 N 
ATOM      2  C   UNL     1      -0.078  10.793  22.455  0.00  0.00    +0.000 C 
ATOM      3  C   UNL     1       0.841   8.838  21.258  0.00  0.00    +0.000 C 
ATOM      4  N   UNL     1       1.777   8.646  22.140  0.00  0.00    +0.000 NA
ATOM      5  N   UNL     1       0.633   7.901  20.263  0.00  0.00    +0.000 N 
ATOM      6  H   UNL     1       1.820   9.403  22.815  0.00  0.00    +0.000 HD
ATOM      7  H   UNL     1      -0.294   7.492  20.279  0.00  0.00    +0.000 HD
ENDROOT
BRANCH   5   8
ATOM      8  C   UNL     1       1.646   6.995  19.849  0.00  0.00    +0.000 A 
ATOM      9  C   UNL     1       1.714   5.736  20.471  0.00  0.00    +0.000 A 
ATOM     10  C   UNL     1       2.637   4.767  20.076  0.00  0.00    +0.000 A 
ATOM     11  C   UNL     1       3.494   5.058  19.010  0.00  0.00    +0.000 A 
ATOM     12  C   UNL     1       3.465   6.309  18.359  0.00  0.00    +0.000 A 
ATOM     13  C   UNL     1       2.574   7.298  18.833  0.00  0.00    +0.000 A 
ATOM     14 CL   UNL     1       2.594   8.902  18.173  0.00  0.00    +0.000 Cl
BRANCH  10  15
ATOM     15  C   UNL     1       2.679   3.431  20.776  0.00  0.00    +0.000 C 
ATOM     16  F   UNL     1       1.745   2.543  20.333  0.00  0.00    +0.000 F 
ATOM     17  F   UNL     1       3.882   2.807  20.644  0.00  0.00    +0.000 F 
ATOM     18  F   UNL     1       2.466   3.549  22.118  0.00  0.00    +0.000 F 
ENDBRANCH  10  15
BRANCH  12  19
ATOM     19  C   UNL     1       4.338   6.492  17.136  0.00  0.00    +0.000 C 
ATOM     20  C   UNL     1       4.904   5.198  16.579  0.00  0.00    +0.000 C 
ENDBRANCH  12  19
ENDBRANCH   5   8
BRANCH   1  25
ATOM     21  C   UNL     1      -1.914  10.583  18.061  0.00  0.00    +0.000 A 
ATOM     22  C   UNL     1      -1.379  11.818  17.690  0.00  0.00    +0.000 A 
ATOM     23  C   UNL     1      -0.435  12.436  18.502  0.00  0.00    +0.000 A 
ATOM     24  C   UNL     1      -0.017  11.819  19.686  0.00  0.00    +0.000 A 
ATOM     25  C   UNL     1      -0.520  10.568  20.090  0.00  0.00    +0.000 A 
ATOM     26  C   UNL     1      -1.491   9.978  19.260  0.00  0.00    +0.000 A 
BRANCH  21  28
ATOM     27  C   UNL     1      -2.686  10.363  15.707  0.00  0.00    +0.000 C 
ATOM     28  C   UNL     1      -2.855   9.857  17.133  0.00  0.00    +0.000 C 
ENDBRANCH  21  28
ENDBRANCH   1  25
TORSDOF 5
ENDMDL
