MODEL 1
REMARK VINA RESULT:      -7.8      0.000      0.000
REMARK  Name = 
REMARK  6 active torsions:
REMARK  status: ('A' for Active; 'I' for Inactive)
REMARK    1  A    between atoms: C_2  and  C_3
REMARK    2  A    between atoms: C_2  and  C_4
REMARK    3  A    between atoms: C_21  and  O_22
REMARK    4  A    between atoms: O_22  and  C_23
REMARK    5  A    between atoms: C_24  and  O_25
REMARK    6  A    between atoms: O_25  and  C_26
REMARK                            x       y       z     vdW  Elec       q    Type
REMARK                         _______ _______ _______ _____ _____    ______ ____
ROOT
ATOM      1  C   UNL     1       0.425  14.251  19.657  0.00  0.00    +0.000 C 
ATOM      2  C   UNL     1      -0.586  13.399  18.901  0.00  0.00    +0.000 C 
ATOM      3  C   UNL     1      -0.710  12.435  20.011  0.00  0.00    +0.000 A 
ATOM      4  C   UNL     1      -0.647  13.136  21.211  0.00  0.00    +0.000 A 
ATOM      5  C   UNL     1      -0.687  12.502  22.441  0.00  0.00    +0.000 A 
ATOM      6  C   UNL     1      -0.597  11.103  22.437  0.00  0.00    +0.000 A 
ATOM      7  C   UNL     1      -0.378  10.420  21.223  0.00  0.00    +0.000 A 
ATOM      8  C   UNL     1       0.163   9.052  21.206  0.00  0.00    +0.000 A 
ATOM      9  O   UNL     1       0.052   8.343  22.196  0.00  0.00    +0.000 OA
ATOM     10  C   UNL     1       0.950   8.687  19.987  0.00  0.00    +0.000 A 
ATOM     11  C   UNL     1       0.885   9.503  18.924  0.00  0.00    +0.000 A 
ATOM     12  O   UNL     1       0.010  10.564  18.827  0.00  0.00    +0.000 OA
ATOM     13  C   UNL     1      -0.435  11.091  20.006  0.00  0.00    +0.000 A 
ATOM     14  C   UNL     1       1.784   9.334  17.726  0.00  0.00    +0.000 C 
ATOM     15  O   UNL     1       2.935   8.505  17.938  0.00  0.00    +0.000 OA
ATOM     16  C   UNL     1       2.741   7.469  18.810  0.00  0.00    +0.000 A 
ATOM     17  C   UNL     1       3.550   6.344  18.656  0.00  0.00    +0.000 A 
ATOM     18  C   UNL     1       3.415   5.190  19.471  0.00  0.00    +0.000 A 
ATOM     19  C   UNL     1       2.453   5.209  20.481  0.00  0.00    +0.000 A 
ATOM     20  C   UNL     1       1.674   6.381  20.634  0.00  0.00    +0.000 A 
ATOM     21  C   UNL     1       1.801   7.508  19.827  0.00  0.00    +0.000 A 
ATOM     22  O   UNL     1      -0.199  14.444  20.978  0.00  0.00    +0.000 OA
ENDROOT
BRANCH   1  24
ATOM     23  C   UNL     1       2.123  15.712  18.508  0.00  0.00    +0.000 C 
ATOM     24  C   UNL     1       0.862  15.476  18.887  0.00  0.00    +0.000 C 
ATOM     25  C   UNL     1      -0.277  16.380  18.491  0.00  0.00    +0.000 C 
ENDBRANCH   1  24
BRANCH  18  26
ATOM     26  O   UNL     1       4.329   4.281  19.038  0.00  0.00    +0.000 OA
ATOM     27  C   UNL     1       4.063   3.314  18.060  0.00  0.00    +0.000 C 
ENDBRANCH  18  26
BRANCH  19  28
ATOM     28  O   UNL     1       2.018   4.374  21.451  0.00  0.00    +0.000 OA
ATOM     29  C   UNL     1       2.013   2.972  21.471  0.00  0.00    +0.000 C 
ENDBRANCH  19  28
TORSDOF 3
ENDMDL
MODEL 2
REMARK VINA RESULT:      -7.6      3.527      8.365
REMARK  Name = 
REMARK  6 active torsions:
REMARK  status: ('A' for Active; 'I' for Inactive)
REMARK    1  A    between atoms: C_2  and  C_3
REMARK    2  A    between atoms: C_2  and  C_4
REMARK    3  A    between atoms: C_21  and  O_22
REMARK    4  A    between atoms: O_22  and  C_23
REMARK    5  A    between atoms: C_24  and  O_25
REMARK    6  A    between atoms: O_25  and  C_26
REMARK                            x       y       z     vdW  Elec       q    Type
REMARK                         _______ _______ _______ _____ _____    ______ ____
ROOT
ATOM      1  C   UNL     1       1.830   6.650  18.741  0.00  0.00    +0.000 C 
ATOM      2  C   UNL     1       2.231   7.973  18.100  0.00  0.00    +0.000 C 
ATOM      3  C   UNL     1       1.646   8.764  19.201  0.00  0.00    +0.000 A 
ATOM      4  C   UNL     1       1.871   8.089  20.396  0.00  0.00    +0.000 A 
ATOM      5  C   UNL     1       1.397   8.556  21.610  0.00  0.00    +0.000 A 
ATOM      6  C   UNL     1       0.510   9.640  21.570  0.00  0.00    +0.000 A 
ATOM      7  C   UNL     1       0.070  10.138  20.326  0.00  0.00    +0.000 A 
ATOM      8  C   UNL     1      -1.162  10.936  20.219  0.00  0.00    +0.000 A 
ATOM      9  O   UNL     1      -1.595  11.520  21.201  0.00  0.00    +0.000 OA
ATOM     10  C   UNL     1      -1.873  10.846  18.904  0.00  0.00    +0.000 A 
ATOM     11  C   UNL     1      -1.227  10.283  17.873  0.00  0.00    +0.000 A 
ATOM     12  O   UNL     1       0.106   9.935  17.903  0.00  0.00    +0.000 OA
ATOM     13  C   UNL     1       0.641   9.697  19.137  0.00  0.00    +0.000 A 
ATOM     14  C   UNL     1      -1.916   9.968  16.570  0.00  0.00    +0.000 C 
ATOM     15  O   UNL     1      -3.350   9.961  16.623  0.00  0.00    +0.000 OA
ATOM     16  C   UNL     1      -3.894  10.865  17.494  0.00  0.00    +0.000 A 
ATOM     17  C   UNL     1      -5.183  11.318  17.221  0.00  0.00    +0.000 A 
ATOM     18  C   UNL     1      -5.838  12.287  18.026  0.00  0.00    +0.000 A 
ATOM     19  C   UNL     1      -5.165  12.771  19.148  0.00  0.00    +0.000 A 
ATOM     20  C   UNL     1      -3.872  12.262  19.416  0.00  0.00    +0.000 A 
ATOM     21  C   UNL     1      -3.228  11.319  18.620  0.00  0.00    +0.000 A 
ATOM     22  O   UNL     1       2.298   6.780  20.132  0.00  0.00    +0.000 OA
ENDROOT
BRANCH   1  24
ATOM     23  C   UNL     1       1.480   4.422  17.624  0.00  0.00    +0.000 C 
ATOM     24  C   UNL     1       2.278   5.446  17.944  0.00  0.00    +0.000 C 
ATOM     25  C   UNL     1       3.698   5.542  17.450  0.00  0.00    +0.000 C 
ENDBRANCH   1  24
BRANCH  18  26
ATOM     26  O   UNL     1      -7.056  12.520  17.467  0.00  0.00    +0.000 OA
ATOM     27  C   UNL     1      -7.488  13.782  17.038  0.00  0.00    +0.000 C 
ENDBRANCH  18  26
BRANCH  19  28
ATOM     28  O   UNL     1      -5.409  13.645  20.149  0.00  0.00    +0.000 OA
ATOM     29  C   UNL     1      -5.674  15.021  20.075  0.00  0.00    +0.000 C 
ENDBRANCH  19  28
TORSDOF 3
ENDMDL
MODEL 3
REMARK VINA RESULT:      -7.4      1.587      1.915
REMARK  Name = 
REMARK  6 active torsions:
REMARK  status: ('A' for Active; 'I' for Inactive)
REMARK    1  A    between atoms: C_2  and  C_3
REMARK    2  A    between atoms: C_2  and  C_4
REMARK    3  A    between atoms: C_21  and  O_22
REMARK    4  A    between atoms: O_22  and  C_23
REMARK    5  A    between atoms: C_24  and  O_25
REMARK    6  A    between atoms: O_25  and  C_26
REMARK                            x       y       z     vdW  Elec       q    Type
REMARK                         _______ _______ _______ _____ _____    ______ ____
ROOT
ATOM      1  C   UNL     1       2.789  13.622  18.997  0.00  0.00    +0.000 C 
ATOM      2  C   UNL     1       1.784  13.003  18.034  0.00  0.00    +0.000 C 
ATOM      3  C   UNL     1       1.178  12.170  19.092  0.00  0.00    +0.000 A 
ATOM      4  C   UNL     1       1.154  12.906  20.272  0.00  0.00    +0.000 A 
ATOM      5  C   UNL     1       0.686  12.379  21.463  0.00  0.00    +0.000 A 
ATOM      6  C   UNL     1       0.413  11.005  21.485  0.00  0.00    +0.000 A 
ATOM      7  C   UNL     1       0.710  10.215  20.355  0.00  0.00    +0.000 A 
ATOM      8  C   UNL     1       0.873   8.757  20.466  0.00  0.00    +0.000 A 
ATOM      9  O   UNL     1       0.371   8.160  21.407  0.00  0.00    +0.000 OA
ATOM     10  C   UNL     1       1.787   8.133  19.458  0.00  0.00    +0.000 A 
ATOM     11  C   UNL     1       2.166   8.872  18.406  0.00  0.00    +0.000 A 
ATOM     12  O   UNL     1       1.635  10.109  18.108  0.00  0.00    +0.000 OA
ATOM     13  C   UNL     1       1.094  10.802  19.153  0.00  0.00    +0.000 A 
ATOM     14  C   UNL     1       3.231   8.412  17.444  0.00  0.00    +0.000 C 
ATOM     15  O   UNL     1       4.057   7.338  17.914  0.00  0.00    +0.000 OA
ATOM     16  C   UNL     1       3.418   6.438  18.723  0.00  0.00    +0.000 A 
ATOM     17  C   UNL     1       3.926   5.141  18.760  0.00  0.00    +0.000 A 
ATOM     18  C   UNL     1       3.325   4.109  19.528  0.00  0.00    +0.000 A 
ATOM     19  C   UNL     1       2.204   4.428  20.294  0.00  0.00    +0.000 A 
ATOM     20  C   UNL     1       1.738   5.764  20.261  0.00  0.00    +0.000 A 
ATOM     21  C   UNL     1       2.322   6.772  19.500  0.00  0.00    +0.000 A 
ATOM     22  O   UNL     1       1.962  14.045  20.141  0.00  0.00    +0.000 OA
ENDROOT
BRANCH   1  24
ATOM     23  C   UNL     1       3.324  15.389  17.286  0.00  0.00    +0.000 C 
ATOM     24  C   UNL     1       3.682  14.650  18.342  0.00  0.00    +0.000 C 
ATOM     25  C   UNL     1       4.999  14.846  19.049  0.00  0.00    +0.000 C 
ENDBRANCH   1  24
BRANCH  18  26
ATOM     26  O   UNL     1       4.048   2.976  19.317  0.00  0.00    +0.000 OA
ATOM     27  C   UNL     1       3.566   1.863  18.616  0.00  0.00    +0.000 C 
ENDBRANCH  18  26
BRANCH  19  28
ATOM     28  O   UNL     1       1.369   3.789  21.143  0.00  0.00    +0.000 OA
ATOM     29  C   UNL     1       1.508   2.524  21.732  0.00  0.00    +0.000 C 
ENDBRANCH  19  28
TORSDOF 3
ENDMDL
MODEL 4
REMARK VINA RESULT:      -7.2      2.401      8.373
REMARK  Name = 
REMARK  6 active torsions:
REMARK  status: ('A' for Active; 'I' for Inactive)
REMARK    1  A    between atoms: C_2  and  C_3
REMARK    2  A    between atoms: C_2  and  C_4
REMARK    3  A    between atoms: C_21  and  O_22
REMARK    4  A    between atoms: O_22  and  C_23
REMARK    5  A    between atoms: C_24  and  O_25
REMARK    6  A    between atoms: O_25  and  C_26
REMARK                            x       y       z     vdW  Elec       q    Type
REMARK                         _______ _______ _______ _____ _____    ______ ____
ROOT
ATOM      1  C   UNL     1       5.207   4.211  15.423  0.00  0.00    +0.000 C 
ATOM      2  C   UNL     1       6.047   5.086  16.343  0.00  0.00    +0.000 C 
ATOM      3  C   UNL     1       5.218   4.764  17.522  0.00  0.00    +0.000 A 
ATOM      4  C   UNL     1       4.833   3.430  17.438  0.00  0.00    +0.000 A 
ATOM      5  C   UNL     1       4.005   2.839  18.376  0.00  0.00    +0.000 A 
ATOM      6  C   UNL     1       3.405   3.687  19.317  0.00  0.00    +0.000 A 
ATOM      7  C   UNL     1       3.585   5.082  19.215  0.00  0.00    +0.000 A 
ATOM      8  C   UNL     1       2.652   6.019  19.862  0.00  0.00    +0.000 A 
ATOM      9  O   UNL     1       1.971   5.644  20.806  0.00  0.00    +0.000 OA
ATOM     10  C   UNL     1       2.515   7.352  19.195  0.00  0.00    +0.000 A 
ATOM     11  C   UNL     1       3.410   7.683  18.253  0.00  0.00    +0.000 A 
ATOM     12  O   UNL     1       4.542   6.945  17.980  0.00  0.00    +0.000 OA
ATOM     13  C   UNL     1       4.496   5.621  18.313  0.00  0.00    +0.000 A 
ATOM     14  C   UNL     1       3.250   8.907  17.389  0.00  0.00    +0.000 C 
ATOM     15  O   UNL     1       1.934   9.478  17.377  0.00  0.00    +0.000 OA
ATOM     16  C   UNL     1       1.252   9.370  18.558  0.00  0.00    +0.000 A 
ATOM     17  C   UNL     1       0.274  10.327  18.820  0.00  0.00    +0.000 A 
ATOM     18  C   UNL     1      -0.470  10.346  20.029  0.00  0.00    +0.000 A 
ATOM     19  C   UNL     1      -0.224   9.342  20.966  0.00  0.00    +0.000 A 
ATOM     20  C   UNL     1       0.750   8.365  20.651  0.00  0.00    +0.000 A 
ATOM     21  C   UNL     1       1.486   8.354  19.470  0.00  0.00    +0.000 A 
ATOM     22  O   UNL     1       5.101   2.936  16.154  0.00  0.00    +0.000 OA
ENDROOT
BRANCH   1  24
ATOM     23  C   UNL     1       5.039   3.671  12.970  0.00  0.00    +0.000 C 
ATOM     24  C   UNL     1       5.720   4.180  14.001  0.00  0.00    +0.000 C 
ATOM     25  C   UNL     1       7.048   4.870  13.824  0.00  0.00    +0.000 C 
ENDBRANCH   1  24
BRANCH  18  26
ATOM     26  O   UNL     1      -1.309  11.415  19.970  0.00  0.00    +0.000 OA
ATOM     27  C   UNL     1      -2.008  11.794  18.817  0.00  0.00    +0.000 C 
ENDBRANCH  18  26
BRANCH  19  28
ATOM     28  O   UNL     1      -0.692   8.987  22.184  0.00  0.00    +0.000 OA
ATOM     29  C   UNL     1      -0.418   9.558  23.435  0.00  0.00    +0.000 C 
ENDBRANCH  19  28
TORSDOF 3
ENDMDL
MODEL 5
REMARK VINA RESULT:      -7.0      1.344      1.842
REMARK  Name = 
REMARK  6 active torsions:
REMARK  status: ('A' for Active; 'I' for Inactive)
REMARK    1  A    between atoms: C_2  and  C_3
REMARK    2  A    between atoms: C_2  and  C_4
REMARK    3  A    between atoms: C_21  and  O_22
REMARK    4  A    between atoms: O_22  and  C_23
REMARK    5  A    between atoms: C_24  and  O_25
REMARK    6  A    between atoms: O_25  and  C_26
REMARK                            x       y       z     vdW  Elec       q    Type
REMARK                         _______ _______ _______ _____ _____    ______ ____
ROOT
ATOM      1  C   UNL     1      -0.061  13.196  20.843  0.00  0.00    +0.000 C 
ATOM      2  C   UNL     1      -0.964  12.385  19.924  0.00  0.00    +0.000 C 
ATOM      3  C   UNL     1      -0.780  11.152  20.714  0.00  0.00    +0.000 A 
ATOM      4  C   UNL     1      -0.724  11.497  22.060  0.00  0.00    +0.000 A 
ATOM      5  C   UNL     1      -0.508  10.559  23.056  0.00  0.00    +0.000 A 
ATOM      6  C   UNL     1      -0.152   9.268  22.644  0.00  0.00    +0.000 A 
ATOM      7  C   UNL     1       0.062   9.004  21.275  0.00  0.00    +0.000 A 
ATOM      8  C   UNL     1       0.851   7.841  20.838  0.00  0.00    +0.000 A 
ATOM      9  O   UNL     1       0.986   6.883  21.585  0.00  0.00    +0.000 OA
ATOM     10  C   UNL     1       1.557   8.000  19.528  0.00  0.00    +0.000 A 
ATOM     11  C   UNL     1       1.222   9.040  18.751  0.00  0.00    +0.000 A 
ATOM     12  O   UNL     1       0.154   9.874  19.006  0.00  0.00    +0.000 OA
ATOM     13  C   UNL     1      -0.254   9.952  20.307  0.00  0.00    +0.000 A 
ATOM     14  C   UNL     1       2.001   9.400  17.512  0.00  0.00    +0.000 C 
ATOM     15  O   UNL     1       3.307   8.813  17.419  0.00  0.00    +0.000 OA
ATOM     16  C   UNL     1       3.411   7.562  17.963  0.00  0.00    +0.000 A 
ATOM     17  C   UNL     1       4.399   6.724  17.452  0.00  0.00    +0.000 A 
ATOM     18  C   UNL     1       4.577   5.390  17.905  0.00  0.00    +0.000 A 
ATOM     19  C   UNL     1       3.745   4.926  18.924  0.00  0.00    +0.000 A 
ATOM     20  C   UNL     1       2.777   5.817  19.446  0.00  0.00    +0.000 A 
ATOM     21  C   UNL     1       2.597   7.121  18.993  0.00  0.00    +0.000 A 
ATOM     22  O   UNL     1      -0.564  12.883  22.192  0.00  0.00    +0.000 OA
ENDROOT
BRANCH   1  24
ATOM     23  C   UNL     1       0.267  15.650  21.297  0.00  0.00    +0.000 C 
ATOM     24  C   UNL     1       0.047  14.649  20.439  0.00  0.00    +0.000 C 
ATOM     25  C   UNL     1      -0.020  14.868  18.949  0.00  0.00    +0.000 C 
ENDBRANCH   1  24
BRANCH  18  26
ATOM     26  O   UNL     1       5.598   4.852  17.184  0.00  0.00    +0.000 OA
ATOM     27  C   UNL     1       6.917   4.763  17.648  0.00  0.00    +0.000 C 
ENDBRANCH  18  26
BRANCH  19  28
ATOM     28  O   UNL     1       3.586   3.786  19.632  0.00  0.00    +0.000 OA
ATOM     29  C   UNL     1       4.404   2.647  19.665  0.00  0.00    +0.000 C 
ENDBRANCH  19  28
TORSDOF 3
ENDMDL
MODEL 6
REMARK VINA RESULT:      -6.9      1.842      3.881
REMARK  Name = 
REMARK  6 active torsions:
REMARK  status: ('A' for Active; 'I' for Inactive)
REMARK    1  A    between atoms: C_2  and  C_3
REMARK    2  A    between atoms: C_2  and  C_4
REMARK    3  A    between atoms: C_21  and  O_22
REMARK    4  A    between atoms: O_22  and  C_23
REMARK    5  A    between atoms: C_24  and  O_25
REMARK    6  A    between atoms: O_25  and  C_26
REMARK                            x       y       z     vdW  Elec       q    Type
REMARK                         _______ _______ _______ _____ _____    ______ ____
ROOT
ATOM      1  C   UNL     1      -2.414  12.490  21.546  0.00  0.00    +0.000 C 
ATOM      2  C   UNL     1      -1.042  12.613  22.196  0.00  0.00    +0.000 C 
ATOM      3  C   UNL     1      -0.344  12.567  20.895  0.00  0.00    +0.000 A 
ATOM      4  C   UNL     1      -1.108  13.260  19.962  0.00  0.00    +0.000 A 
ATOM      5  C   UNL     1      -0.740  13.355  18.630  0.00  0.00    +0.000 A 
ATOM      6  C   UNL     1       0.334  12.560  18.211  0.00  0.00    +0.000 A 
ATOM      7  C   UNL     1       0.922  11.647  19.110  0.00  0.00    +0.000 A 
ATOM      8  C   UNL     1       1.714  10.504  18.627  0.00  0.00    +0.000 A 
ATOM      9  O   UNL     1       2.215  10.540  17.513  0.00  0.00    +0.000 OA
ATOM     10  C   UNL     1       1.718   9.303  19.520  0.00  0.00    +0.000 A 
ATOM     11  C   UNL     1       1.243   9.438  20.766  0.00  0.00    +0.000 A 
ATOM     12  O   UNL     1       0.907  10.651  21.329  0.00  0.00    +0.000 OA
ATOM     13  C   UNL     1       0.580  11.651  20.459  0.00  0.00    +0.000 A 
ATOM     14  C   UNL     1       1.022   8.256  21.674  0.00  0.00    +0.000 C 
ATOM     15  O   UNL     1       0.997   6.979  21.020  0.00  0.00    +0.000 OA
ATOM     16  C   UNL     1       1.825   6.876  19.936  0.00  0.00    +0.000 A 
ATOM     17  C   UNL     1       2.284   5.603  19.603  0.00  0.00    +0.000 A 
ATOM     18  C   UNL     1       3.181   5.372  18.528  0.00  0.00    +0.000 A 
ATOM     19  C   UNL     1       3.585   6.468  17.764  0.00  0.00    +0.000 A 
ATOM     20  C   UNL     1       3.070   7.741  18.107  0.00  0.00    +0.000 A 
ATOM     21  C   UNL     1       2.198   7.966  19.168  0.00  0.00    +0.000 A 
ATOM     22  O   UNL     1      -2.388  13.505  20.478  0.00  0.00    +0.000 OA
ENDROOT
BRANCH   1  24
ATOM     23  C   UNL     1      -3.394  12.361  23.861  0.00  0.00    +0.000 C 
ATOM     24  C   UNL     1      -3.549  12.531  22.544  0.00  0.00    +0.000 C 
ATOM     25  C   UNL     1      -4.881  12.880  21.931  0.00  0.00    +0.000 C 
ENDBRANCH   1  24
BRANCH  18  26
ATOM     26  O   UNL     1       3.444   4.038  18.499  0.00  0.00    +0.000 OA
ATOM     27  C   UNL     1       4.592   3.458  19.055  0.00  0.00    +0.000 C 
ENDBRANCH  18  26
BRANCH  19  28
ATOM     28  O   UNL     1       4.377   6.690  16.691  0.00  0.00    +0.000 OA
ATOM     29  C   UNL     1       5.461   5.934  16.223  0.00  0.00    +0.000 C 
ENDBRANCH  19  28
TORSDOF 3
ENDMDL
MODEL 7
REMARK VINA RESULT:      -6.9      0.935      1.176
REMARK  Name = 
REMARK  6 active torsions:
REMARK  status: ('A' for Active; 'I' for Inactive)
REMARK    1  A    between atoms: C_2  and  C_3
REMARK    2  A    between atoms: C_2  and  C_4
REMARK    3  A    between atoms: C_21  and  O_22
REMARK    4  A    between atoms: O_22  and  C_23
REMARK    5  A    between atoms: C_24  and  O_25
REMARK    6  A    between atoms: O_25  and  C_26
REMARK                            x       y       z     vdW  Elec       q    Type
REMARK                         _______ _______ _______ _____ _____    ______ ____
ROOT
ATOM      1  C   UNL     1      -0.195  13.925  20.127  0.00  0.00    +0.000 C 
ATOM      2  C   UNL     1      -1.152  13.008  19.378  0.00  0.00    +0.000 C 
ATOM      3  C   UNL     1      -0.996  11.921  20.364  0.00  0.00    +0.000 A 
ATOM      4  C   UNL     1      -0.892  12.488  21.630  0.00  0.00    +0.000 A 
ATOM      5  C   UNL     1      -0.687  11.725  22.767  0.00  0.00    +0.000 A 
ATOM      6  C   UNL     1      -0.392  10.369  22.577  0.00  0.00    +0.000 A 
ATOM      7  C   UNL     1      -0.223   9.867  21.270  0.00  0.00    +0.000 A 
ATOM      8  C   UNL     1       0.509   8.614  21.024  0.00  0.00    +0.000 A 
ATOM      9  O   UNL     1       0.626   7.793  21.922  0.00  0.00    +0.000 OA
ATOM     10  C   UNL     1       1.187   8.517  19.693  0.00  0.00    +0.000 A 
ATOM     11  C   UNL     1       0.873   9.423  18.756  0.00  0.00    +0.000 A 
ATOM     12  O   UNL     1      -0.155  10.332  18.884  0.00  0.00    +0.000 OA
ATOM     13  C   UNL     1      -0.527  10.648  20.160  0.00  0.00    +0.000 A 
ATOM     14  C   UNL     1       1.635   9.533  17.460  0.00  0.00    +0.000 C 
ATOM     15  O   UNL     1       2.913   8.884  17.445  0.00  0.00    +0.000 OA
ATOM     16  C   UNL     1       2.983   7.741  18.194  0.00  0.00    +0.000 A 
ATOM     17  C   UNL     1       3.925   6.786  17.816  0.00  0.00    +0.000 A 
ATOM     18  C   UNL     1       4.063   5.543  18.487  0.00  0.00    +0.000 A 
ATOM     19  C   UNL     1       3.240   5.295  19.586  0.00  0.00    +0.000 A 
ATOM     20  C   UNL     1       2.320   6.302  19.965  0.00  0.00    +0.000 A 
ATOM     21  C   UNL     1       2.179   7.516  19.299  0.00  0.00    +0.000 A 
ATOM     22  O   UNL     1      -0.676  13.869  21.519  0.00  0.00    +0.000 OA
ENDROOT
BRANCH   1  24
ATOM     23  C   UNL     1      -0.981  16.233  19.502  0.00  0.00    +0.000 C 
ATOM     24  C   UNL     1      -0.042  15.281  19.478  0.00  0.00    +0.000 C 
ATOM     25  C   UNL     1       1.319  15.511  18.873  0.00  0.00    +0.000 C 
ENDBRANCH   1  24
BRANCH  18  26
ATOM     26  O   UNL     1       5.043   4.847  17.851  0.00  0.00    +0.000 OA
ATOM     27  C   UNL     1       5.228   4.855  16.462  0.00  0.00    +0.000 C 
ENDBRANCH  18  26
BRANCH  19  28
ATOM     28  O   UNL     1       3.055   4.301  20.482  0.00  0.00    +0.000 OA
ATOM     29  C   UNL     1       1.921   4.008  21.253  0.00  0.00    +0.000 C 
ENDBRANCH  19  28
TORSDOF 3
ENDMDL
MODEL 8
REMARK VINA RESULT:      -6.9      1.605      2.489
REMARK  Name = 
REMARK  6 active torsions:
REMARK  status: ('A' for Active; 'I' for Inactive)
REMARK    1  A    between atoms: C_2  and  C_3
REMARK    2  A    between atoms: C_2  and  C_4
REMARK    3  A    between atoms: C_21  and  O_22
REMARK    4  A    between atoms: O_22  and  C_23
REMARK    5  A    between atoms: C_24  and  O_25
REMARK    6  A    between atoms: O_25  and  C_26
REMARK                            x       y       z     vdW  Elec       q    Type
REMARK                         _______ _______ _______ _____ _____    ______ ____
ROOT
ATOM      1  C   UNL     1       0.922  12.531  20.684  0.00  0.00    +0.000 C 
ATOM      2  C   UNL     1       0.003  11.820  19.699  0.00  0.00    +0.000 C 
ATOM      3  C   UNL     1       0.065  10.550  20.449  0.00  0.00    +0.000 A 
ATOM      4  C   UNL     1       0.087  10.843  21.809  0.00  0.00    +0.000 A 
ATOM      5  C   UNL     1       0.193   9.858  22.776  0.00  0.00    +0.000 A 
ATOM      6  C   UNL     1       0.473   8.559  22.330  0.00  0.00    +0.000 A 
ATOM      7  C   UNL     1       0.727   8.329  20.962  0.00  0.00    +0.000 A 
ATOM      8  C   UNL     1       1.449   7.127  20.514  0.00  0.00    +0.000 A 
ATOM      9  O   UNL     1       1.484   6.137  21.229  0.00  0.00    +0.000 OA
ATOM     10  C   UNL     1       2.221   7.280  19.241  0.00  0.00    +0.000 A 
ATOM     11  C   UNL     1       1.995   8.368  18.490  0.00  0.00    +0.000 A 
ATOM     12  O   UNL     1       0.979   9.267  18.734  0.00  0.00    +0.000 OA
ATOM     13  C   UNL     1       0.521   9.329  20.019  0.00  0.00    +0.000 A 
ATOM     14  C   UNL     1       2.851   8.714  17.299  0.00  0.00    +0.000 C 
ATOM     15  O   UNL     1       4.114   8.036  17.237  0.00  0.00    +0.000 OA
ATOM     16  C   UNL     1       4.105   6.763  17.738  0.00  0.00    +0.000 A 
ATOM     17  C   UNL     1       5.052   5.873  17.235  0.00  0.00    +0.000 A 
ATOM     18  C   UNL     1       5.115   4.515  17.644  0.00  0.00    +0.000 A 
ATOM     19  C   UNL     1       4.209   4.078  18.610  0.00  0.00    +0.000 A 
ATOM     20  C   UNL     1       3.285   5.018  19.126  0.00  0.00    +0.000 A 
ATOM     21  C   UNL     1       3.218   6.346  18.716  0.00  0.00    +0.000 A 
ATOM     22  O   UNL     1       0.340  12.209  21.999  0.00  0.00    +0.000 OA
ENDROOT
BRANCH   1  24
ATOM     23  C   UNL     1       0.382  14.987  20.779  0.00  0.00    +0.000 C 
ATOM     24  C   UNL     1       1.150  13.985  20.340  0.00  0.00    +0.000 C 
ATOM     25  C   UNL     1       2.394  14.225  19.524  0.00  0.00    +0.000 C 
ENDBRANCH   1  24
BRANCH  18  26
ATOM     26  O   UNL     1       6.125   3.930  16.945  0.00  0.00    +0.000 OA
ATOM     27  C   UNL     1       6.969   4.623  16.067  0.00  0.00    +0.000 C 
ENDBRANCH  18  26
BRANCH  19  28
ATOM     28  O   UNL     1       3.939   2.928  19.267  0.00  0.00    +0.000 OA
ATOM     29  C   UNL     1       3.389   1.737  18.772  0.00  0.00    +0.000 C 
ENDBRANCH  19  28
TORSDOF 3
ENDMDL
MODEL 9
REMARK VINA RESULT:      -6.6      3.901      8.602
REMARK  Name = 
REMARK  6 active torsions:
REMARK  status: ('A' for Active; 'I' for Inactive)
REMARK    1  A    between atoms: C_2  and  C_3
REMARK    2  A    between atoms: C_2  and  C_4
REMARK    3  A    between atoms: C_21  and  O_22
REMARK    4  A    between atoms: O_22  and  C_23
REMARK    5  A    between atoms: C_24  and  O_25
REMARK    6  A    between atoms: O_25  and  C_26
REMARK                            x       y       z     vdW  Elec       q    Type
REMARK                         _______ _______ _______ _____ _____    ______ ____
ROOT
ATOM      1  C   UNL     1       1.224   8.245  20.362  0.00  0.00    +0.000 C 
ATOM      2  C   UNL     1       1.616   9.657  19.948  0.00  0.00    +0.000 C 
ATOM      3  C   UNL     1       0.715  10.275  20.943  0.00  0.00    +0.000 A 
ATOM      4  C   UNL     1       0.735   9.496  22.095  0.00  0.00    +0.000 A 
ATOM      5  C   UNL     1      -0.049   9.789  23.198  0.00  0.00    +0.000 A 
ATOM      6  C   UNL     1      -1.014  10.793  23.042  0.00  0.00    +0.000 A 
ATOM      7  C   UNL     1      -1.212  11.382  21.776  0.00  0.00    +0.000 A 
ATOM      8  C   UNL     1      -2.464  12.082  21.450  0.00  0.00    +0.000 A 
ATOM      9  O   UNL     1      -3.169  12.518  22.348  0.00  0.00    +0.000 OA
ATOM     10  C   UNL     1      -2.845  12.074  20.002  0.00  0.00    +0.000 A 
ATOM     11  C   UNL     1      -1.927  11.680  19.108  0.00  0.00    +0.000 A 
ATOM     12  O   UNL     1      -0.605  11.444  19.423  0.00  0.00    +0.000 OA
ATOM     13  C   UNL     1      -0.342  11.121  20.723  0.00  0.00    +0.000 A 
ATOM     14  C   UNL     1      -2.265  11.450  17.658  0.00  0.00    +0.000 C 
ATOM     15  O   UNL     1      -3.664  11.317  17.370  0.00  0.00    +0.000 OA
ATOM     16  C   UNL     1      -4.485  12.074  18.161  0.00  0.00    +0.000 A 
ATOM     17  C   UNL     1      -5.719  12.443  17.631  0.00  0.00    +0.000 A 
ATOM     18  C   UNL     1      -6.638  13.262  18.338  0.00  0.00    +0.000 A 
ATOM     19  C   UNL     1      -6.293  13.678  19.624  0.00  0.00    +0.000 A 
ATOM     20  C   UNL     1      -5.047  13.253  20.145  0.00  0.00    +0.000 A 
ATOM     21  C   UNL     1      -4.143  12.459  19.447  0.00  0.00    +0.000 A 
ATOM     22  O   UNL     1       1.348   8.264  21.830  0.00  0.00    +0.000 OA
ENDROOT
BRANCH   1  24
ATOM     23  C   UNL     1       2.631   7.396  18.455  0.00  0.00    +0.000 C 
ATOM     24  C   UNL     1       1.966   7.175  19.594  0.00  0.00    +0.000 C 
ATOM     25  C   UNL     1       1.974   5.834  20.282  0.00  0.00    +0.000 C 
ENDBRANCH   1  24
BRANCH  18  26
ATOM     26  O   UNL     1      -7.716  13.450  17.529  0.00  0.00    +0.000 OA
ATOM     27  C   UNL     1      -7.759  14.396  16.496  0.00  0.00    +0.000 C 
ENDBRANCH  18  26
BRANCH  19  28
ATOM     28  O   UNL     1      -6.849  14.416  20.609  0.00  0.00    +0.000 OA
ATOM     29  C   UNL     1      -7.864  15.381  20.524  0.00  0.00    +0.000 C 
ENDBRANCH  19  28
TORSDOF 3
ENDMDL
