MODEL 1
REMARK VINA RESULT:      -8.5      0.000      0.000
REMARK  Name = 
REMARK  5 active torsions:
REMARK  status: ('A' for Active; 'I' for Inactive)
REMARK    1  A    between atoms: C_1  and  C_2
REMARK    2  A    between atoms: C_4  and  N_5
REMARK    3  A    between atoms: N_5  and  S_6
REMARK    4  A    between atoms: S_6  and  C_9
REMARK    5  A    between atoms: C_21  and  C_22
REMARK                            x       y       z     vdW  Elec       q    Type
REMARK                         _______ _______ _______ _____ _____    ______ ____
ROOT
ATOM      1  C   UNL     1       2.397   8.715  17.980  0.00  0.00    +0.000 C 
ATOM      2  C   UNL     1       2.699   7.281  18.333  0.00  0.00    +0.000 A 
ATOM      3  C   UNL     1       3.361   6.481  17.398  0.00  0.00    +0.000 A 
ATOM      4  C   UNL     1       3.635   5.142  17.678  0.00  0.00    +0.000 A 
ATOM      5  C   UNL     1       3.212   4.537  18.865  0.00  0.00    +0.000 A 
ATOM      6  N   UNL     1       3.422   3.212  19.036  0.00  0.00    +0.000 NA
ATOM      7  C   UNL     1       3.031   2.631  20.184  0.00  0.00    +0.000 A 
ATOM      8  C   UNL     1       2.414   3.315  21.203  0.00  0.00    +0.000 A 
ATOM      9  C   UNL     1       2.185   4.676  21.026  0.00  0.00    +0.000 A 
ATOM     10  C   UNL     1       2.566   5.339  19.838  0.00  0.00    +0.000 A 
ATOM     11  C   UNL     1       2.325   6.727  19.579  0.00  0.00    +0.000 A 
ATOM     12  C   UNL     1       1.651   7.633  20.586  0.00  0.00    +0.000 C 
ENDROOT
BRANCH   4  13
ATOM     13  N   UNL     1       4.316   4.388  16.679  0.00  0.00    +0.000 N 
ATOM     14  H   UNL     1       3.968   3.481  16.389  0.00  0.00    +0.000 HD
BRANCH  13  15
ATOM     15  S   UNL     1       5.682   4.982  15.932  0.00  0.00    +0.000 S 
ATOM     16  O   UNL     1       6.446   3.821  15.529  0.00  0.00    +0.000 OA
ATOM     17  O   UNL     1       5.273   5.959  14.943  0.00  0.00    +0.000 OA
BRANCH  15  18
ATOM     18  C   UNL     1       6.631   5.833  17.177  0.00  0.00    +0.000 A 
ATOM     19  C   UNL     1       7.134   5.119  18.270  0.00  0.00    +0.000 A 
ATOM     20  C   UNL     1       7.981   5.751  19.183  0.00  0.00    +0.000 A 
ATOM     21  C   UNL     1       8.328   7.091  19.003  0.00  0.00    +0.000 A 
ATOM     22  C   UNL     1       7.836   7.800  17.906  0.00  0.00    +0.000 A 
ATOM     23  C   UNL     1       6.996   7.170  16.984  0.00  0.00    +0.000 A 
ENDBRANCH  15  18
ENDBRANCH  13  15
ENDBRANCH   4  13
TORSDOF 3
ENDMDL
MODEL 2
REMARK VINA RESULT:      -8.5      0.127      1.040
REMARK  Name = 
REMARK  5 active torsions:
REMARK  status: ('A' for Active; 'I' for Inactive)
REMARK    1  A    between atoms: C_1  and  C_2
REMARK    2  A    between atoms: C_4  and  N_5
REMARK    3  A    between atoms: N_5  and  S_6
REMARK    4  A    between atoms: S_6  and  C_9
REMARK    5  A    between atoms: C_21  and  C_22
REMARK                            x       y       z     vdW  Elec       q    Type
REMARK                         _______ _______ _______ _____ _____    ______ ____
ROOT
ATOM      1  C   UNL     1       2.488   8.723  17.930  0.00  0.00    +0.000 C 
ATOM      2  C   UNL     1       2.786   7.294  18.303  0.00  0.00    +0.000 A 
ATOM      3  C   UNL     1       3.465   6.485  17.387  0.00  0.00    +0.000 A 
ATOM      4  C   UNL     1       3.736   5.150  17.685  0.00  0.00    +0.000 A 
ATOM      5  C   UNL     1       3.294   4.556  18.870  0.00  0.00    +0.000 A 
ATOM      6  N   UNL     1       3.503   3.233  19.059  0.00  0.00    +0.000 NA
ATOM      7  C   UNL     1       3.093   2.663  20.206  0.00  0.00    +0.000 A 
ATOM      8  C   UNL     1       2.458   3.357  21.207  0.00  0.00    +0.000 A 
ATOM      9  C   UNL     1       2.230   4.715  21.013  0.00  0.00    +0.000 A 
ATOM     10  C   UNL     1       2.631   5.367  19.824  0.00  0.00    +0.000 A 
ATOM     11  C   UNL     1       2.392   6.752  19.548  0.00  0.00    +0.000 A 
ATOM     12  C   UNL     1       1.700   7.667  20.534  0.00  0.00    +0.000 C 
ENDROOT
BRANCH   4  13
ATOM     13  N   UNL     1       4.434   4.387  16.705  0.00  0.00    +0.000 N 
ATOM     14  H   UNL     1       4.150   3.438  16.489  0.00  0.00    +0.000 HD
BRANCH  13  15
ATOM     15  S   UNL     1       5.716   5.036  15.859  0.00  0.00    +0.000 S 
ATOM     16  O   UNL     1       6.410   3.909  15.274  0.00  0.00    +0.000 OA
ATOM     17  O   UNL     1       5.212   6.097  15.012  0.00  0.00    +0.000 OA
BRANCH  15  18
ATOM     18  C   UNL     1       6.813   5.770  17.056  0.00  0.00    +0.000 A 
ATOM     19  C   UNL     1       7.111   7.134  16.973  0.00  0.00    +0.000 A 
ATOM     20  C   UNL     1       7.869   7.742  17.977  0.00  0.00    +0.000 A 
ATOM     21  C   UNL     1       8.323   6.991  19.062  0.00  0.00    +0.000 A 
ATOM     22  C   UNL     1       8.015   5.632  19.151  0.00  0.00    +0.000 A 
ATOM     23  C   UNL     1       7.250   5.021  18.154  0.00  0.00    +0.000 A 
ENDBRANCH  15  18
ENDBRANCH  13  15
ENDBRANCH   4  13
TORSDOF 3
ENDMDL
MODEL 3
REMARK VINA RESULT:      -8.1      2.339      3.163
REMARK  Name = 
REMARK  5 active torsions:
REMARK  status: ('A' for Active; 'I' for Inactive)
REMARK    1  A    between atoms: C_1  and  C_2
REMARK    2  A    between atoms: C_4  and  N_5
REMARK    3  A    between atoms: N_5  and  S_6
REMARK    4  A    between atoms: S_6  and  C_9
REMARK    5  A    between atoms: C_21  and  C_22
REMARK                            x       y       z     vdW  Elec       q    Type
REMARK                         _______ _______ _______ _____ _____    ______ ____
ROOT
ATOM      1  C   UNL     1       2.229   8.996  18.123  0.00  0.00    +0.000 C 
ATOM      2  C   UNL     1       2.624   7.569  18.402  0.00  0.00    +0.000 A 
ATOM      3  C   UNL     1       3.348   6.867  17.435  0.00  0.00    +0.000 A 
ATOM      4  C   UNL     1       3.708   5.536  17.646  0.00  0.00    +0.000 A 
ATOM      5  C   UNL     1       3.314   4.840  18.791  0.00  0.00    +0.000 A 
ATOM      6  N   UNL     1       3.611   3.524  18.894  0.00  0.00    +0.000 NA
ATOM      7  C   UNL     1       3.248   2.857  20.003  0.00  0.00    +0.000 A 
ATOM      8  C   UNL     1       2.575   3.441  21.049  0.00  0.00    +0.000 A 
ATOM      9  C   UNL     1       2.257   4.791  20.943  0.00  0.00    +0.000 A 
ATOM     10  C   UNL     1       2.606   5.543  19.798  0.00  0.00    +0.000 A 
ATOM     11  C   UNL     1       2.275   6.923  19.611  0.00  0.00    +0.000 A 
ATOM     12  C   UNL     1       1.531   7.726  20.656  0.00  0.00    +0.000 C 
ENDROOT
BRANCH   4  13
ATOM     13  N   UNL     1       4.448   4.885  16.617  0.00  0.00    +0.000 N 
ATOM     14  H   UNL     1       4.011   4.185  16.028  0.00  0.00    +0.000 HD
BRANCH  13  15
ATOM     15  S   UNL     1       6.043   5.274  16.325  0.00  0.00    +0.000 S 
ATOM     16  O   UNL     1       6.125   6.713  16.447  0.00  0.00    +0.000 OA
ATOM     17  O   UNL     1       6.878   4.427  17.152  0.00  0.00    +0.000 OA
BRANCH  15  18
ATOM     18  C   UNL     1       6.376   4.868  14.622  0.00  0.00    +0.000 A 
ATOM     19  C   UNL     1       7.497   5.414  13.988  0.00  0.00    +0.000 A 
ATOM     20  C   UNL     1       7.833   5.005  12.696  0.00  0.00    +0.000 A 
ATOM     21  C   UNL     1       7.055   4.049  12.040  0.00  0.00    +0.000 A 
ATOM     22  C   UNL     1       5.944   3.495  12.677  0.00  0.00    +0.000 A 
ATOM     23  C   UNL     1       5.608   3.893  13.974  0.00  0.00    +0.000 A 
ENDBRANCH  15  18
ENDBRANCH  13  15
ENDBRANCH   4  13
TORSDOF 3
ENDMDL
MODEL 4
REMARK VINA RESULT:      -7.9      2.400      3.146
REMARK  Name = 
REMARK  5 active torsions:
REMARK  status: ('A' for Active; 'I' for Inactive)
REMARK    1  A    between atoms: C_1  and  C_2
REMARK    2  A    between atoms: C_4  and  N_5
REMARK    3  A    between atoms: N_5  and  S_6
REMARK    4  A    between atoms: S_6  and  C_9
REMARK    5  A    between atoms: C_21  and  C_22
REMARK                            x       y       z     vdW  Elec       q    Type
REMARK                         _______ _______ _______ _____ _____    ______ ____
ROOT
ATOM      1  C   UNL     1       2.367   8.594  18.090  0.00  0.00    +0.000 C 
ATOM      2  C   UNL     1       2.826   7.202  18.440  0.00  0.00    +0.000 A 
ATOM      3  C   UNL     1       3.701   6.542  17.573  0.00  0.00    +0.000 A 
ATOM      4  C   UNL     1       4.127   5.243  17.850  0.00  0.00    +0.000 A 
ATOM      5  C   UNL     1       3.657   4.534  18.958  0.00  0.00    +0.000 A 
ATOM      6  N   UNL     1       4.031   3.244  19.119  0.00  0.00    +0.000 NA
ATOM      7  C   UNL     1       3.593   2.566  20.194  0.00  0.00    +0.000 A 
ATOM      8  C   UNL     1       2.768   3.114  21.147  0.00  0.00    +0.000 A 
ATOM      9  C   UNL     1       2.371   4.436  20.979  0.00  0.00    +0.000 A 
ATOM     10  C   UNL     1       2.793   5.197  19.865  0.00  0.00    +0.000 A 
ATOM     11  C   UNL     1       2.389   6.548  19.615  0.00  0.00    +0.000 A 
ATOM     12  C   UNL     1       1.479   7.308  20.554  0.00  0.00    +0.000 C 
ENDROOT
BRANCH   4  13
ATOM     13  N   UNL     1       5.022   4.634  16.923  0.00  0.00    +0.000 N 
ATOM     14  H   UNL     1       4.915   3.660  16.663  0.00  0.00    +0.000 HD
BRANCH  13  15
ATOM     15  S   UNL     1       6.251   5.507  16.210  0.00  0.00    +0.000 S 
ATOM     16  O   UNL     1       5.724   6.840  16.018  0.00  0.00    +0.000 OA
ATOM     17  O   UNL     1       7.460   5.308  16.984  0.00  0.00    +0.000 OA
BRANCH  15  18
ATOM     18  C   UNL     1       6.519   4.806  14.594  0.00  0.00    +0.000 A 
ATOM     19  C   UNL     1       5.600   3.886  14.079  0.00  0.00    +0.000 A 
ATOM     20  C   UNL     1       5.736   3.428  12.766  0.00  0.00    +0.000 A 
ATOM     21  C   UNL     1       6.784   3.891  11.969  0.00  0.00    +0.000 A 
ATOM     22  C   UNL     1       7.695   4.818  12.479  0.00  0.00    +0.000 A 
ATOM     23  C   UNL     1       7.558   5.288  13.788  0.00  0.00    +0.000 A 
ENDBRANCH  15  18
ENDBRANCH  13  15
ENDBRANCH   4  13
TORSDOF 3
ENDMDL
MODEL 5
REMARK VINA RESULT:      -7.6      2.575      4.237
REMARK  Name = 
REMARK  5 active torsions:
REMARK  status: ('A' for Active; 'I' for Inactive)
REMARK    1  A    between atoms: C_1  and  C_2
REMARK    2  A    between atoms: C_4  and  N_5
REMARK    3  A    between atoms: N_5  and  S_6
REMARK    4  A    between atoms: S_6  and  C_9
REMARK    5  A    between atoms: C_21  and  C_22
REMARK                            x       y       z     vdW  Elec       q    Type
REMARK                         _______ _______ _______ _____ _____    ______ ____
ROOT
ATOM      1  C   UNL     1       3.933   1.873  19.932  0.00  0.00    +0.000 C 
ATOM      2  C   UNL     1       3.661   3.254  19.393  0.00  0.00    +0.000 A 
ATOM      3  C   UNL     1       4.204   3.615  18.157  0.00  0.00    +0.000 A 
ATOM      4  C   UNL     1       3.997   4.893  17.638  0.00  0.00    +0.000 A 
ATOM      5  C   UNL     1       3.298   5.872  18.348  0.00  0.00    +0.000 A 
ATOM      6  N   UNL     1       3.214   7.121  17.836  0.00  0.00    +0.000 NA
ATOM      7  C   UNL     1       2.527   8.059  18.511  0.00  0.00    +0.000 A 
ATOM      8  C   UNL     1       1.905   7.821  19.712  0.00  0.00    +0.000 A 
ATOM      9  C   UNL     1       1.999   6.541  20.249  0.00  0.00    +0.000 A 
ATOM     10  C   UNL     1       2.714   5.516  19.590  0.00  0.00    +0.000 A 
ATOM     11  C   UNL     1       2.880   4.191  20.107  0.00  0.00    +0.000 A 
ATOM     12  C   UNL     1       2.269   3.752  21.420  0.00  0.00    +0.000 C 
ENDROOT
BRANCH   4  13
ATOM     13  N   UNL     1       4.578   5.190  16.371  0.00  0.00    +0.000 N 
ATOM     14  H   UNL     1       3.996   5.320  15.552  0.00  0.00    +0.000 HD
BRANCH  13  15
ATOM     15  S   UNL     1       6.227   5.366  16.199  0.00  0.00    +0.000 S 
ATOM     16  O   UNL     1       6.477   6.790  16.254  0.00  0.00    +0.000 OA
ATOM     17  O   UNL     1       6.881   4.477  17.138  0.00  0.00    +0.000 OA
BRANCH  15  18
ATOM     18  C   UNL     1       6.642   4.820  14.554  0.00  0.00    +0.000 A 
ATOM     19  C   UNL     1       5.878   3.817  13.946  0.00  0.00    +0.000 A 
ATOM     20  C   UNL     1       6.118   3.472  12.614  0.00  0.00    +0.000 A 
ATOM     21  C   UNL     1       7.114   4.129  11.890  0.00  0.00    +0.000 A 
ATOM     22  C   UNL     1       7.868   5.137  12.493  0.00  0.00    +0.000 A 
ATOM     23  C   UNL     1       7.626   5.494  13.822  0.00  0.00    +0.000 A 
ENDBRANCH  15  18
ENDBRANCH  13  15
ENDBRANCH   4  13
TORSDOF 3
ENDMDL
MODEL 6
REMARK VINA RESULT:      -7.5      1.169      3.154
REMARK  Name = 
REMARK  5 active torsions:
REMARK  status: ('A' for Active; 'I' for Inactive)
REMARK    1  A    between atoms: C_1  and  C_2
REMARK    2  A    between atoms: C_4  and  N_5
REMARK    3  A    between atoms: N_5  and  S_6
REMARK    4  A    between atoms: S_6  and  C_9
REMARK    5  A    between atoms: C_21  and  C_22
REMARK                            x       y       z     vdW  Elec       q    Type
REMARK                         _______ _______ _______ _____ _____    ______ ____
ROOT
ATOM      1  C   UNL     1       3.867   1.571  19.193  0.00  0.00    +0.000 C 
ATOM      2  C   UNL     1       3.683   2.993  18.730  0.00  0.00    +0.000 A 
ATOM      3  C   UNL     1       4.219   3.377  17.498  0.00  0.00    +0.000 A 
ATOM      4  C   UNL     1       4.092   4.691  17.048  0.00  0.00    +0.000 A 
ATOM      5  C   UNL     1       3.483   5.680  17.825  0.00  0.00    +0.000 A 
ATOM      6  N   UNL     1       3.476   6.956  17.376  0.00  0.00    +0.000 NA
ATOM      7  C   UNL     1       2.876   7.906  18.115  0.00  0.00    +0.000 A 
ATOM      8  C   UNL     1       2.268   7.651  19.320  0.00  0.00    +0.000 A 
ATOM      9  C   UNL     1       2.283   6.343  19.792  0.00  0.00    +0.000 A 
ATOM     10  C   UNL     1       2.906   5.304  19.063  0.00  0.00    +0.000 A 
ATOM     11  C   UNL     1       2.989   3.946  19.511  0.00  0.00    +0.000 A 
ATOM     12  C   UNL     1       2.381   3.486  20.818  0.00  0.00    +0.000 C 
ENDROOT
BRANCH   4  13
ATOM     13  N   UNL     1       4.661   5.010  15.781  0.00  0.00    +0.000 N 
ATOM     14  H   UNL     1       4.082   5.362  15.027  0.00  0.00    +0.000 HD
BRANCH  13  15
ATOM     15  S   UNL     1       6.297   4.848  15.505  0.00  0.00    +0.000 S 
ATOM     16  O   UNL     1       6.576   3.433  15.621  0.00  0.00    +0.000 OA
ATOM     17  O   UNL     1       6.626   5.555  14.284  0.00  0.00    +0.000 OA
BRANCH  15  18
ATOM     18  C   UNL     1       7.136   5.664  16.849  0.00  0.00    +0.000 A 
ATOM     19  C   UNL     1       7.314   7.051  16.812  0.00  0.00    +0.000 A 
ATOM     20  C   UNL     1       7.858   7.712  17.916  0.00  0.00    +0.000 A 
ATOM     21  C   UNL     1       8.218   6.991  19.055  0.00  0.00    +0.000 A 
ATOM     22  C   UNL     1       8.030   5.608  19.097  0.00  0.00    +0.000 A 
ATOM     23  C   UNL     1       7.477   4.943  17.999  0.00  0.00    +0.000 A 
ENDBRANCH  15  18
ENDBRANCH  13  15
ENDBRANCH   4  13
TORSDOF 3
ENDMDL
MODEL 7
REMARK VINA RESULT:      -7.5      1.070      2.933
REMARK  Name = 
REMARK  5 active torsions:
REMARK  status: ('A' for Active; 'I' for Inactive)
REMARK    1  A    between atoms: C_1  and  C_2
REMARK    2  A    between atoms: C_4  and  N_5
REMARK    3  A    between atoms: N_5  and  S_6
REMARK    4  A    between atoms: S_6  and  C_9
REMARK    5  A    between atoms: C_21  and  C_22
REMARK                            x       y       z     vdW  Elec       q    Type
REMARK                         _______ _______ _______ _____ _____    ______ ____
ROOT
ATOM      1  C   UNL     1       3.973   2.151  19.980  0.00  0.00    +0.000 C 
ATOM      2  C   UNL     1       3.727   3.460  19.274  0.00  0.00    +0.000 A 
ATOM      3  C   UNL     1       4.216   3.629  17.976  0.00  0.00    +0.000 A 
ATOM      4  C   UNL     1       4.031   4.835  17.301  0.00  0.00    +0.000 A 
ATOM      5  C   UNL     1       3.410   5.931  17.906  0.00  0.00    +0.000 A 
ATOM      6  N   UNL     1       3.346   7.103  17.235  0.00  0.00    +0.000 NA
ATOM      7  C   UNL     1       2.734   8.153  17.810  0.00  0.00    +0.000 A 
ATOM      8  C   UNL     1       2.169   8.105  19.061  0.00  0.00    +0.000 A 
ATOM      9  C   UNL     1       2.242   6.904  19.760  0.00  0.00    +0.000 A 
ATOM     10  C   UNL     1       2.880   5.769  19.211  0.00  0.00    +0.000 A 
ATOM     11  C   UNL     1       3.022   4.518  19.893  0.00  0.00    +0.000 A 
ATOM     12  C   UNL     1       2.466   4.285  21.281  0.00  0.00    +0.000 C 
ENDROOT
BRANCH   4  13
ATOM     13  N   UNL     1       4.554   4.935  15.979  0.00  0.00    +0.000 N 
ATOM     14  H   UNL     1       3.934   5.020  15.182  0.00  0.00    +0.000 HD
BRANCH  13  15
ATOM     15  S   UNL     1       6.198   4.950  15.701  0.00  0.00    +0.000 S 
ATOM     16  O   UNL     1       6.630   3.575  15.826  0.00  0.00    +0.000 OA
ATOM     17  O   UNL     1       6.446   5.680  14.474  0.00  0.00    +0.000 OA
BRANCH  15  18
ATOM     18  C   UNL     1       6.945   5.863  17.037  0.00  0.00    +0.000 A 
ATOM     19  C   UNL     1       7.380   5.183  18.179  0.00  0.00    +0.000 A 
ATOM     20  C   UNL     1       8.077   5.871  19.175  0.00  0.00    +0.000 A 
ATOM     21  C   UNL     1       8.344   7.233  19.027  0.00  0.00    +0.000 A 
ATOM     22  C   UNL     1       7.920   7.910  17.882  0.00  0.00    +0.000 A 
ATOM     23  C   UNL     1       7.230   7.224  16.878  0.00  0.00    +0.000 A 
ENDBRANCH  15  18
ENDBRANCH  13  15
ENDBRANCH   4  13
TORSDOF 3
ENDMDL
MODEL 8
REMARK VINA RESULT:      -7.5      2.619      5.429
REMARK  Name = 
REMARK  5 active torsions:
REMARK  status: ('A' for Active; 'I' for Inactive)
REMARK    1  A    between atoms: C_1  and  C_2
REMARK    2  A    between atoms: C_4  and  N_5
REMARK    3  A    between atoms: N_5  and  S_6
REMARK    4  A    between atoms: S_6  and  C_9
REMARK    5  A    between atoms: C_21  and  C_22
REMARK                            x       y       z     vdW  Elec       q    Type
REMARK                         _______ _______ _______ _____ _____    ______ ____
ROOT
ATOM      1  C   UNL     1       5.373   3.781  13.469  0.00  0.00    +0.000 C 
ATOM      2  C   UNL     1       5.620   4.021  14.936  0.00  0.00    +0.000 A 
ATOM      3  C   UNL     1       4.835   3.343  15.872  0.00  0.00    +0.000 A 
ATOM      4  C   UNL     1       5.016   3.559  17.238  0.00  0.00    +0.000 A 
ATOM      5  C   UNL     1       5.937   4.493  17.721  0.00  0.00    +0.000 A 
ATOM      6  N   UNL     1       5.998   4.728  19.051  0.00  0.00    +0.000 NA
ATOM      7  C   UNL     1       6.895   5.614  19.518  0.00  0.00    +0.000 A 
ATOM      8  C   UNL     1       7.759   6.311  18.708  0.00  0.00    +0.000 A 
ATOM      9  C   UNL     1       7.691   6.082  17.338  0.00  0.00    +0.000 A 
ATOM     10  C   UNL     1       6.763   5.168  16.788  0.00  0.00    +0.000 A 
ATOM     11  C   UNL     1       6.618   4.916  15.386  0.00  0.00    +0.000 A 
ATOM     12  C   UNL     1       7.481   5.598  14.347  0.00  0.00    +0.000 C 
ENDROOT
BRANCH   4  13
ATOM     13  N   UNL     1       4.182   2.831  18.135  0.00  0.00    +0.000 N 
ATOM     14  H   UNL     1       4.578   2.152  18.775  0.00  0.00    +0.000 HD
BRANCH  13  15
ATOM     15  S   UNL     1       2.536   3.094  18.188  0.00  0.00    +0.000 S 
ATOM     16  O   UNL     1       2.092   3.075  16.811  0.00  0.00    +0.000 OA
ATOM     17  O   UNL     1       1.958   2.177  19.150  0.00  0.00    +0.000 OA
BRANCH  15  18
ATOM     18  C   UNL     1       2.291   4.750  18.799  0.00  0.00    +0.000 A 
ATOM     19  C   UNL     1       1.930   4.945  20.136  0.00  0.00    +0.000 A 
ATOM     20  C   UNL     1       1.858   6.241  20.655  0.00  0.00    +0.000 A 
ATOM     21  C   UNL     1       2.151   7.336  19.842  0.00  0.00    +0.000 A 
ATOM     22  C   UNL     1       2.524   7.141  18.511  0.00  0.00    +0.000 A 
ATOM     23  C   UNL     1       2.607   5.847  17.989  0.00  0.00    +0.000 A 
ENDBRANCH  15  18
ENDBRANCH  13  15
ENDBRANCH   4  13
TORSDOF 3
ENDMDL
MODEL 9
REMARK VINA RESULT:      -7.5      2.612      5.543
REMARK  Name = 
REMARK  5 active torsions:
REMARK  status: ('A' for Active; 'I' for Inactive)
REMARK    1  A    between atoms: C_1  and  C_2
REMARK    2  A    between atoms: C_4  and  N_5
REMARK    3  A    between atoms: N_5  and  S_6
REMARK    4  A    between atoms: S_6  and  C_9
REMARK    5  A    between atoms: C_21  and  C_22
REMARK                            x       y       z     vdW  Elec       q    Type
REMARK                         _______ _______ _______ _____ _____    ______ ____
ROOT
ATOM      1  C   UNL     1       5.632   3.723  13.355  0.00  0.00    +0.000 C 
ATOM      2  C   UNL     1       5.808   3.980  14.830  0.00  0.00    +0.000 A 
ATOM      3  C   UNL     1       4.987   3.301  15.735  0.00  0.00    +0.000 A 
ATOM      4  C   UNL     1       5.101   3.532  17.106  0.00  0.00    +0.000 A 
ATOM      5  C   UNL     1       5.988   4.481  17.621  0.00  0.00    +0.000 A 
ATOM      6  N   UNL     1       5.984   4.729  18.951  0.00  0.00    +0.000 NA
ATOM      7  C   UNL     1       6.848   5.630  19.451  0.00  0.00    +0.000 A 
ATOM      8  C   UNL     1       7.741   6.329  18.676  0.00  0.00    +0.000 A 
ATOM      9  C   UNL     1       7.740   6.086  17.306  0.00  0.00    +0.000 A 
ATOM     10  C   UNL     1       6.850   5.157  16.722  0.00  0.00    +0.000 A 
ATOM     11  C   UNL     1       6.773   4.890  15.317  0.00  0.00    +0.000 A 
ATOM     12  C   UNL     1       7.676   5.573  14.313  0.00  0.00    +0.000 C 
ENDROOT
BRANCH   4  13
ATOM     13  N   UNL     1       4.234   2.802  17.969  0.00  0.00    +0.000 N 
ATOM     14  H   UNL     1       4.594   2.057  18.556  0.00  0.00    +0.000 HD
BRANCH  13  15
ATOM     15  S   UNL     1       2.611   3.169  18.072  0.00  0.00    +0.000 S 
ATOM     16  O   UNL     1       2.152   3.303  16.706  0.00  0.00    +0.000 OA
ATOM     17  O   UNL     1       1.982   2.210  18.957  0.00  0.00    +0.000 OA
BRANCH  15  18
ATOM     18  C   UNL     1       2.485   4.775  18.832  0.00  0.00    +0.000 A 
ATOM     19  C   UNL     1       2.690   5.923  18.059  0.00  0.00    +0.000 A 
ATOM     20  C   UNL     1       2.472   7.185  18.617  0.00  0.00    +0.000 A 
ATOM     21  C   UNL     1       2.045   7.300  19.941  0.00  0.00    +0.000 A 
ATOM     22  C   UNL     1       1.828   6.154  20.708  0.00  0.00    +0.000 A 
ATOM     23  C   UNL     1       2.036   4.889  20.153  0.00  0.00    +0.000 A 
ENDBRANCH  15  18
ENDBRANCH  13  15
ENDBRANCH   4  13
TORSDOF 3
ENDMDL
