MODEL 1
REMARK VINA RESULT:      -8.0      0.000      0.000
REMARK  Name = 
REMARK  10 active torsions:
REMARK  status: ('A' for Active; 'I' for Inactive)
REMARK    1  A    between atoms: C_1  and  O_2
REMARK    2  A    between atoms: O_2  and  C_3
REMARK    3  A    between atoms: C_5  and  O_6
REMARK    4  A    between atoms: C_8  and  N_9
REMARK    5  A    between atoms: N_9  and  C_10
REMARK    6  A    between atoms: N_9  and  C_13
REMARK    7  A    between atoms: C_10  and  C_11
REMARK    8  A    between atoms: C_11  and  N_12
REMARK    9  A    between atoms: C_19  and  C_20
REMARK   10  A    between atoms: N_23  and  C_24
REMARK                            x       y       z     vdW  Elec       q    Type
REMARK                         _______ _______ _______ _____ _____    ______ ____
ROOT
ATOM      1  N   UNL     1       0.309  10.724  19.376  0.00  0.00    +0.000 N 
ENDROOT
BRANCH   1   2
ATOM      2  C   UNL     1       0.996   9.474  19.471  0.00  0.00    +0.000 A 
ATOM      3  C   UNL     1       0.752   8.607  20.543  0.00  0.00    +0.000 A 
ATOM      4  C   UNL     1       1.462   7.418  20.685  0.00  0.00    +0.000 A 
ATOM      5  C   UNL     1       2.396   7.025  19.748  0.00  0.00    +0.000 A 
ATOM      6  N   UNL     1       3.041   5.864  19.942  0.00  0.00    +0.000 NA
ATOM      7  C   UNL     1       3.930   5.510  18.990  0.00  0.00    +0.000 A 
ATOM      8  C   UNL     1       4.179   6.282  17.865  0.00  0.00    +0.000 A 
ATOM      9  N   UNL     1       3.537   7.467  17.675  0.00  0.00    +0.000 NA
ATOM     10  C   UNL     1       2.641   7.845  18.620  0.00  0.00    +0.000 A 
ATOM     11  C   UNL     1       1.943   9.053  18.513  0.00  0.00    +0.000 A 
BRANCH   8  12
ATOM     12  C   UNL     1       5.126   5.845  16.855  0.00  0.00    +0.000 A 
ATOM     13  C   UNL     1       6.451   6.265  16.581  0.00  0.00    +0.000 A 
ATOM     14  N   UNL     1       7.004   5.610  15.558  0.00  0.00    +0.000 NA
ATOM     15  N   UNL     1       6.033   4.765  15.166  0.00  0.00    +0.000 N 
ATOM     16  C   UNL     1       6.262   3.875  14.054  0.00  0.00    +0.000 C 
ATOM     17  C   UNL     1       4.894   4.864  15.911  0.00  0.00    +0.000 A 
ENDBRANCH   8  12
ENDBRANCH   1   2
BRANCH   1  22
ATOM     18  C   UNL     1      -2.616  10.248  17.094  0.00  0.00    +0.000 A 
ATOM     19  C   UNL     1      -3.554  11.125  17.621  0.00  0.00    +0.000 A 
ATOM     20  C   UNL     1      -3.222  11.877  18.743  0.00  0.00    +0.000 A 
ATOM     21  C   UNL     1      -1.961  11.775  19.350  0.00  0.00    +0.000 A 
ATOM     22  C   UNL     1      -0.994  10.894  18.845  0.00  0.00    +0.000 A 
ATOM     23  C   UNL     1      -1.365  10.132  17.710  0.00  0.00    +0.000 A 
BRANCH  18  25
ATOM     24  C   UNL     1      -2.981  10.268  14.749  0.00  0.00    +0.000 C 
ATOM     25  O   UNL     1      -3.023   9.558  15.983  0.00  0.00    +0.000 OA
ENDBRANCH  18  25
BRANCH  20  26
ATOM     26  O   UNL     1      -4.130  12.747  19.281  0.00  0.00    +0.000 OA
ATOM     27  H   UNL     1      -4.833  12.225  19.720  0.00  0.00    +0.000 HD
ENDBRANCH  20  26
ENDBRANCH   1  22
BRANCH   1  28
ATOM     28  C   UNL     1       1.206  11.901  19.550  0.00  0.00    +0.000 C 
BRANCH  28  29
ATOM     29  C   UNL     1       1.425  12.753  18.277  0.00  0.00    +0.000 C 
BRANCH  29  30
ATOM     30  N   UNL     1       2.660  12.497  17.524  0.00  0.00    +0.000 NA
ATOM     31  H   UNL     1       2.864  11.497  17.578  0.00  0.00    +0.000 HD
ATOM     32  H   UNL     1       3.436  12.962  17.999  0.00  0.00    +0.000 HD
ENDBRANCH  29  30
ENDBRANCH  28  29
ENDBRANCH   1  28
TORSDOF 8
ENDMDL
MODEL 2
REMARK VINA RESULT:      -7.9      4.055      8.780
REMARK  Name = 
REMARK  10 active torsions:
REMARK  status: ('A' for Active; 'I' for Inactive)
REMARK    1  A    between atoms: C_1  and  O_2
REMARK    2  A    between atoms: O_2  and  C_3
REMARK    3  A    between atoms: C_5  and  O_6
REMARK    4  A    between atoms: C_8  and  N_9
REMARK    5  A    between atoms: N_9  and  C_10
REMARK    6  A    between atoms: N_9  and  C_13
REMARK    7  A    between atoms: C_10  and  C_11
REMARK    8  A    between atoms: C_11  and  N_12
REMARK    9  A    between atoms: C_19  and  C_20
REMARK   10  A    between atoms: N_23  and  C_24
REMARK                            x       y       z     vdW  Elec       q    Type
REMARK                         _______ _______ _______ _____ _____    ______ ____
ROOT
ATOM      1  N   UNL     1       3.470   5.119  18.402  0.00  0.00    +0.000 N 
ENDROOT
BRANCH   1   2
ATOM      2  C   UNL     1       2.705   6.069  19.147  0.00  0.00    +0.000 A 
ATOM      3  C   UNL     1       2.122   5.712  20.369  0.00  0.00    +0.000 A 
ATOM      4  C   UNL     1       1.318   6.605  21.073  0.00  0.00    +0.000 A 
ATOM      5  C   UNL     1       1.107   7.891  20.617  0.00  0.00    +0.000 A 
ATOM      6  N   UNL     1       0.326   8.703  21.347  0.00  0.00    +0.000 NA
ATOM      7  C   UNL     1       0.165   9.957  20.873  0.00  0.00    +0.000 A 
ATOM      8  C   UNL     1       0.763  10.407  19.706  0.00  0.00    +0.000 A 
ATOM      9  N   UNL     1       1.543   9.580  18.958  0.00  0.00    +0.000 NA
ATOM     10  C   UNL     1       1.717   8.314  19.412  0.00  0.00    +0.000 A 
ATOM     11  C   UNL     1       2.492   7.390  18.700  0.00  0.00    +0.000 A 
BRANCH   8  12
ATOM     12  C   UNL     1       0.580  11.774  19.253  0.00  0.00    +0.000 A 
ATOM     13  C   UNL     1      -0.514  12.398  18.605  0.00  0.00    +0.000 A 
ATOM     14  N   UNL     1      -0.300  13.691  18.351  0.00  0.00    +0.000 NA
ATOM     15  N   UNL     1       0.938  13.904  18.833  0.00  0.00    +0.000 N 
ATOM     16  C   UNL     1       1.533  15.214  18.732  0.00  0.00    +0.000 C 
ATOM     17  C   UNL     1       1.505  12.791  19.384  0.00  0.00    +0.000 A 
ENDBRANCH   8  12
ENDBRANCH   1   2
BRANCH   1  22
ATOM     18  C   UNL     1       6.861   4.825  16.850  0.00  0.00    +0.000 A 
ATOM     19  C   UNL     1       7.706   5.034  17.932  0.00  0.00    +0.000 A 
ATOM     20  C   UNL     1       7.153   5.280  19.184  0.00  0.00    +0.000 A 
ATOM     21  C   UNL     1       5.764   5.315  19.382  0.00  0.00    +0.000 A 
ATOM     22  C   UNL     1       4.884   5.114  18.308  0.00  0.00    +0.000 A 
ATOM     23  C   UNL     1       5.476   4.879  17.043  0.00  0.00    +0.000 A 
BRANCH  18  25
ATOM     24  C   UNL     1       6.668   4.609  14.495  0.00  0.00    +0.000 C 
ATOM     25  O   UNL     1       7.490   4.579  15.659  0.00  0.00    +0.000 OA
ENDBRANCH  18  25
BRANCH  20  26
ATOM     26  O   UNL     1       7.965   5.490  20.265  0.00  0.00    +0.000 OA
ATOM     27  H   UNL     1       8.382   6.371  20.170  0.00  0.00    +0.000 HD
ENDBRANCH  20  26
ENDBRANCH   1  22
BRANCH   1  28
ATOM     28  C   UNL     1       2.652   4.337  17.434  0.00  0.00    +0.000 C 
BRANCH  28  29
ATOM     29  C   UNL     1       2.319   2.891  17.873  0.00  0.00    +0.000 C 
BRANCH  29  30
ATOM     30  N   UNL     1       0.947   2.649  18.339  0.00  0.00    +0.000 NA
ATOM     31  H   UNL     1       0.439   3.536  18.304  0.00  0.00    +0.000 HD
ATOM     32  H   UNL     1       0.977   2.389  19.326  0.00  0.00    +0.000 HD
ENDBRANCH  29  30
ENDBRANCH  28  29
ENDBRANCH   1  28
TORSDOF 8
ENDMDL
MODEL 3
REMARK VINA RESULT:      -7.8      4.216      8.790
REMARK  Name = 
REMARK  10 active torsions:
REMARK  status: ('A' for Active; 'I' for Inactive)
REMARK    1  A    between atoms: C_1  and  O_2
REMARK    2  A    between atoms: O_2  and  C_3
REMARK    3  A    between atoms: C_5  and  O_6
REMARK    4  A    between atoms: C_8  and  N_9
REMARK    5  A    between atoms: N_9  and  C_10
REMARK    6  A    between atoms: N_9  and  C_13
REMARK    7  A    between atoms: C_10  and  C_11
REMARK    8  A    between atoms: C_11  and  N_12
REMARK    9  A    between atoms: C_19  and  C_20
REMARK   10  A    between atoms: N_23  and  C_24
REMARK                            x       y       z     vdW  Elec       q    Type
REMARK                         _______ _______ _______ _____ _____    ______ ____
ROOT
ATOM      1  N   UNL     1       3.457   4.623  18.125  0.00  0.00    +0.000 N 
ENDROOT
BRANCH   1   2
ATOM      2  C   UNL     1       2.802   5.628  18.903  0.00  0.00    +0.000 A 
ATOM      3  C   UNL     1       2.224   5.308  20.138  0.00  0.00    +0.000 A 
ATOM      4  C   UNL     1       1.525   6.260  20.876  0.00  0.00    +0.000 A 
ATOM      5  C   UNL     1       1.418   7.566  20.441  0.00  0.00    +0.000 A 
ATOM      6  N   UNL     1       0.735   8.435  21.203  0.00  0.00    +0.000 NA
ATOM      7  C   UNL     1       0.675   9.705  20.749  0.00  0.00    +0.000 A 
ATOM      8  C   UNL     1       1.278  10.115  19.569  0.00  0.00    +0.000 A 
ATOM      9  N   UNL     1       1.958   9.232  18.789  0.00  0.00    +0.000 NA
ATOM     10  C   UNL     1       2.029   7.949  19.223  0.00  0.00    +0.000 A 
ATOM     11  C   UNL     1       2.697   6.970  18.478  0.00  0.00    +0.000 A 
BRANCH   8  12
ATOM     12  C   UNL     1       1.207  11.500  19.137  0.00  0.00    +0.000 A 
ATOM     13  C   UNL     1       2.125  12.291  18.404  0.00  0.00    +0.000 A 
ATOM     14  N   UNL     1       1.690  13.537  18.198  0.00  0.00    +0.000 NA
ATOM     15  N   UNL     1       0.488  13.552  18.803  0.00  0.00    +0.000 N 
ATOM     16  C   UNL     1      -0.302  14.759  18.798  0.00  0.00    +0.000 C 
ATOM     17  C   UNL     1       0.152  12.359  19.375  0.00  0.00    +0.000 A 
ENDBRANCH   8  12
ENDBRANCH   1   2
BRANCH   1  22
ATOM     18  C   UNL     1       6.491   4.479  15.941  0.00  0.00    +0.000 A 
ATOM     19  C   UNL     1       7.525   4.627  16.855  0.00  0.00    +0.000 A 
ATOM     20  C   UNL     1       7.220   4.783  18.203  0.00  0.00    +0.000 A 
ATOM     21  C   UNL     1       5.895   4.785  18.662  0.00  0.00    +0.000 A 
ATOM     22  C   UNL     1       4.827   4.644  17.764  0.00  0.00    +0.000 A 
ATOM     23  C   UNL     1       5.167   4.502  16.397  0.00  0.00    +0.000 A 
BRANCH  18  25
ATOM     24  C   UNL     1       5.877   3.879  13.729  0.00  0.00    +0.000 C 
ATOM     25  O   UNL     1       6.881   4.321  14.639  0.00  0.00    +0.000 OA
ENDBRANCH  18  25
BRANCH  20  26
ATOM     26  O   UNL     1       8.223   4.931  19.122  0.00  0.00    +0.000 OA
ATOM     27  H   UNL     1       7.970   4.445  19.934  0.00  0.00    +0.000 HD
ENDBRANCH  20  26
ENDBRANCH   1  22
BRANCH   1  28
ATOM     28  C   UNL     1       2.508   3.722  17.413  0.00  0.00    +0.000 C 
BRANCH  28  29
ATOM     29  C   UNL     1       2.576   2.234  17.832  0.00  0.00    +0.000 C 
BRANCH  29  30
ATOM     30  N   UNL     1       1.463   1.734  18.650  0.00  0.00    +0.000 NA
ATOM     31  H   UNL     1       0.603   1.822  18.104  0.00  0.00    +0.000 HD
ATOM     32  H   UNL     1       1.343   2.352  19.454  0.00  0.00    +0.000 HD
ENDBRANCH  29  30
ENDBRANCH  28  29
ENDBRANCH   1  28
TORSDOF 8
ENDMDL
MODEL 4
REMARK VINA RESULT:      -7.8      3.980      8.774
REMARK  Name = 
REMARK  10 active torsions:
REMARK  status: ('A' for Active; 'I' for Inactive)
REMARK    1  A    between atoms: C_1  and  O_2
REMARK    2  A    between atoms: O_2  and  C_3
REMARK    3  A    between atoms: C_5  and  O_6
REMARK    4  A    between atoms: C_8  and  N_9
REMARK    5  A    between atoms: N_9  and  C_10
REMARK    6  A    between atoms: N_9  and  C_13
REMARK    7  A    between atoms: C_10  and  C_11
REMARK    8  A    between atoms: C_11  and  N_12
REMARK    9  A    between atoms: C_19  and  C_20
REMARK   10  A    between atoms: N_23  and  C_24
REMARK                            x       y       z     vdW  Elec       q    Type
REMARK                         _______ _______ _______ _____ _____    ______ ____
ROOT
ATOM      1  N   UNL     1       3.748   4.234  17.997  0.00  0.00    +0.000 N 
ENDROOT
BRANCH   1   2
ATOM      2  C   UNL     1       3.083   5.226  18.783  0.00  0.00    +0.000 A 
ATOM      3  C   UNL     1       2.546   4.900  20.035  0.00  0.00    +0.000 A 
ATOM      4  C   UNL     1       1.838   5.838  20.783  0.00  0.00    +0.000 A 
ATOM      5  C   UNL     1       1.683   7.137  20.341  0.00  0.00    +0.000 A 
ATOM      6  N   UNL     1       0.995   7.992  21.113  0.00  0.00    +0.000 NA
ATOM      7  C   UNL     1       0.887   9.256  20.651  0.00  0.00    +0.000 A 
ATOM      8  C   UNL     1       1.448   9.673  19.453  0.00  0.00    +0.000 A 
ATOM      9  N   UNL     1       2.134   8.803  18.663  0.00  0.00    +0.000 NA
ATOM     10  C   UNL     1       2.252   7.526  19.105  0.00  0.00    +0.000 A 
ATOM     11  C   UNL     1       2.930   6.560  18.351  0.00  0.00    +0.000 A 
BRANCH   8  12
ATOM     12  C   UNL     1       1.326  11.051  19.012  0.00  0.00    +0.000 A 
ATOM     13  C   UNL     1       2.206  11.865  18.257  0.00  0.00    +0.000 A 
ATOM     14  N   UNL     1       1.729  13.094  18.050  0.00  0.00    +0.000 NA
ATOM     15  N   UNL     1       0.539  13.078  18.676  0.00  0.00    +0.000 N 
ATOM     16  C   UNL     1      -0.289  14.259  18.677  0.00  0.00    +0.000 C 
ATOM     17  C   UNL     1       0.250  11.880  19.264  0.00  0.00    +0.000 A 
ENDBRANCH   8  12
ENDBRANCH   1   2
BRANCH   1  22
ATOM     18  C   UNL     1       6.776   5.893  16.559  0.00  0.00    +0.000 A 
ATOM     19  C   UNL     1       6.981   5.180  15.386  0.00  0.00    +0.000 A 
ATOM     20  C   UNL     1       6.116   4.138  15.068  0.00  0.00    +0.000 A 
ATOM     21  C   UNL     1       5.039   3.796  15.900  0.00  0.00    +0.000 A 
ATOM     22  C   UNL     1       4.810   4.493  17.095  0.00  0.00    +0.000 A 
ATOM     23  C   UNL     1       5.714   5.539  17.399  0.00  0.00    +0.000 A 
BRANCH  18  25
ATOM     24  C   UNL     1       7.942   7.209  18.153  0.00  0.00    +0.000 C 
ATOM     25  O   UNL     1       7.666   6.908  16.788  0.00  0.00    +0.000 OA
ENDBRANCH  18  25
BRANCH  20  26
ATOM     26  O   UNL     1       6.298   3.420  13.918  0.00  0.00    +0.000 OA
ATOM     27  H   UNL     1       5.546   2.801  13.820  0.00  0.00    +0.000 HD
ENDBRANCH  20  26
ENDBRANCH   1  22
BRANCH   1  28
ATOM     28  C   UNL     1       3.002   2.946  17.927  0.00  0.00    +0.000 C 
BRANCH  28  29
ATOM     29  C   UNL     1       3.683   1.754  18.641  0.00  0.00    +0.000 C 
BRANCH  29  30
ATOM     30  N   UNL     1       4.712   2.088  19.634  0.00  0.00    +0.000 NA
ATOM     31  H   UNL     1       4.879   1.259  20.210  0.00  0.00    +0.000 HD
ATOM     32  H   UNL     1       4.337   2.794  20.270  0.00  0.00    +0.000 HD
ENDBRANCH  29  30
ENDBRANCH  28  29
ENDBRANCH   1  28
TORSDOF 8
ENDMDL
MODEL 5
REMARK VINA RESULT:      -7.8      4.207      8.929
REMARK  Name = 
REMARK  10 active torsions:
REMARK  status: ('A' for Active; 'I' for Inactive)
REMARK    1  A    between atoms: C_1  and  O_2
REMARK    2  A    between atoms: O_2  and  C_3
REMARK    3  A    between atoms: C_5  and  O_6
REMARK    4  A    between atoms: C_8  and  N_9
REMARK    5  A    between atoms: N_9  and  C_10
REMARK    6  A    between atoms: N_9  and  C_13
REMARK    7  A    between atoms: C_10  and  C_11
REMARK    8  A    between atoms: C_11  and  N_12
REMARK    9  A    between atoms: C_19  and  C_20
REMARK   10  A    between atoms: N_23  and  C_24
REMARK                            x       y       z     vdW  Elec       q    Type
REMARK                         _______ _______ _______ _____ _____    ______ ____
ROOT
ATOM      1  N   UNL     1       3.344   4.396  17.848  0.00  0.00    +0.000 N 
ENDROOT
BRANCH   1   2
ATOM      2  C   UNL     1       2.789   5.416  18.683  0.00  0.00    +0.000 A 
ATOM      3  C   UNL     1       2.340   5.113  19.974  0.00  0.00    +0.000 A 
ATOM      4  C   UNL     1       1.736   6.081  20.773  0.00  0.00    +0.000 A 
ATOM      5  C   UNL     1       1.604   7.385  20.342  0.00  0.00    +0.000 A 
ATOM      6  N   UNL     1       1.018   8.269  21.165  0.00  0.00    +0.000 NA
ATOM      7  C   UNL     1       0.930   9.538  20.710  0.00  0.00    +0.000 A 
ATOM      8  C   UNL     1       1.411   9.931  19.470  0.00  0.00    +0.000 A 
ATOM      9  N   UNL     1       1.992   9.032  18.630  0.00  0.00    +0.000 NA
ATOM     10  C   UNL     1       2.089   7.751  19.064  0.00  0.00    +0.000 A 
ATOM     11  C   UNL     1       2.661   6.756  18.261  0.00  0.00    +0.000 A 
BRANCH   8  12
ATOM     12  C   UNL     1       1.316  11.314  19.037  0.00  0.00    +0.000 A 
ATOM     13  C   UNL     1       2.212  12.115  18.289  0.00  0.00    +0.000 A 
ATOM     14  N   UNL     1       1.759  13.354  18.088  0.00  0.00    +0.000 NA
ATOM     15  N   UNL     1       0.567  13.356  18.711  0.00  0.00    +0.000 N 
ATOM     16  C   UNL     1      -0.238  14.553  18.718  0.00  0.00    +0.000 C 
ATOM     17  C   UNL     1       0.255  12.160  19.291  0.00  0.00    +0.000 A 
ENDBRANCH   8  12
ENDBRANCH   1   2
BRANCH   1  22
ATOM     18  C   UNL     1       7.074   4.662  17.772  0.00  0.00    +0.000 A 
ATOM     19  C   UNL     1       7.359   4.505  16.422  0.00  0.00    +0.000 A 
ATOM     20  C   UNL     1       6.312   4.302  15.529  0.00  0.00    +0.000 A 
ATOM     21  C   UNL     1       4.977   4.262  15.958  0.00  0.00    +0.000 A 
ATOM     22  C   UNL     1       4.657   4.411  17.315  0.00  0.00    +0.000 A 
ATOM     23  C   UNL     1       5.744   4.602  18.202  0.00  0.00    +0.000 A 
BRANCH  18  25
ATOM     24  C   UNL     1       7.953   5.690  19.722  0.00  0.00    +0.000 C 
ATOM     25  O   UNL     1       8.162   4.868  18.578  0.00  0.00    +0.000 OA
ENDBRANCH  18  25
BRANCH  20  26
ATOM     26  O   UNL     1       6.568   4.143  14.195  0.00  0.00    +0.000 OA
ATOM     27  H   UNL     1       6.382   3.211  13.955  0.00  0.00    +0.000 HD
ENDBRANCH  20  26
ENDBRANCH   1  22
BRANCH   1  28
ATOM     28  C   UNL     1       2.315   3.480  17.282  0.00  0.00    +0.000 C 
BRANCH  28  29
ATOM     29  C   UNL     1       2.300   2.056  17.887  0.00  0.00    +0.000 C 
BRANCH  29  30
ATOM     30  N   UNL     1       1.146   1.717  18.731  0.00  0.00    +0.000 NA
ATOM     31  H   UNL     1       0.675   0.909  18.315  0.00  0.00    +0.000 HD
ATOM     32  H   UNL     1       0.471   2.482  18.686  0.00  0.00    +0.000 HD
ENDBRANCH  29  30
ENDBRANCH  28  29
ENDBRANCH   1  28
TORSDOF 8
ENDMDL
MODEL 6
REMARK VINA RESULT:      -7.7      0.494      1.956
REMARK  Name = 
REMARK  10 active torsions:
REMARK  status: ('A' for Active; 'I' for Inactive)
REMARK    1  A    between atoms: C_1  and  O_2
REMARK    2  A    between atoms: O_2  and  C_3
REMARK    3  A    between atoms: C_5  and  O_6
REMARK    4  A    between atoms: C_8  and  N_9
REMARK    5  A    between atoms: N_9  and  C_10
REMARK    6  A    between atoms: N_9  and  C_13
REMARK    7  A    between atoms: C_10  and  C_11
REMARK    8  A    between atoms: C_11  and  N_12
REMARK    9  A    between atoms: C_19  and  C_20
REMARK   10  A    between atoms: N_23  and  C_24
REMARK                            x       y       z     vdW  Elec       q    Type
REMARK                         _______ _______ _______ _____ _____    ______ ____
ROOT
ATOM      1  N   UNL     1       0.396  10.492  19.267  0.00  0.00    +0.000 N 
ENDROOT
BRANCH   1   2
ATOM      2  C   UNL     1       1.117   9.261  19.358  0.00  0.00    +0.000 A 
ATOM      3  C   UNL     1       0.908   8.393  20.437  0.00  0.00    +0.000 A 
ATOM      4  C   UNL     1       1.651   7.222  20.575  0.00  0.00    +0.000 A 
ATOM      5  C   UNL     1       2.583   6.850  19.628  0.00  0.00    +0.000 A 
ATOM      6  N   UNL     1       3.260   5.707  19.819  0.00  0.00    +0.000 NA
ATOM      7  C   UNL     1       4.147   5.373  18.856  0.00  0.00    +0.000 A 
ATOM      8  C   UNL     1       4.362   6.146  17.725  0.00  0.00    +0.000 A 
ATOM      9  N   UNL     1       3.686   7.312  17.539  0.00  0.00    +0.000 NA
ATOM     10  C   UNL     1       2.793   7.671  18.494  0.00  0.00    +0.000 A 
ATOM     11  C   UNL     1       2.062   8.861  18.390  0.00  0.00    +0.000 A 
BRANCH   8  12
ATOM     12  C   UNL     1       5.308   5.729  16.706  0.00  0.00    +0.000 A 
ATOM     13  C   UNL     1       6.674   6.053  16.519  0.00  0.00    +0.000 A 
ATOM     14  N   UNL     1       7.209   5.457  15.451  0.00  0.00    +0.000 NA
ATOM     15  N   UNL     1       6.185   4.748  14.943  0.00  0.00    +0.000 N 
ATOM     16  C   UNL     1       6.380   3.958  13.752  0.00  0.00    +0.000 C 
ATOM     17  C   UNL     1       5.029   4.874  15.657  0.00  0.00    +0.000 A 
ENDBRANCH   8  12
ENDBRANCH   1   2
BRANCH   1  22
ATOM     18  C   UNL     1      -3.123  11.649  18.747  0.00  0.00    +0.000 A 
ATOM     19  C   UNL     1      -3.462  11.048  17.542  0.00  0.00    +0.000 A 
ATOM     20  C   UNL     1      -2.520  10.260  16.891  0.00  0.00    +0.000 A 
ATOM     21  C   UNL     1      -1.239  10.050  17.426  0.00  0.00    +0.000 A 
ATOM     22  C   UNL     1      -0.865  10.648  18.638  0.00  0.00    +0.000 A 
ATOM     23  C   UNL     1      -1.840  11.456  19.271  0.00  0.00    +0.000 A 
BRANCH  18  25
ATOM     24  C   UNL     1      -3.758  13.109  20.507  0.00  0.00    +0.000 C 
ATOM     25  O   UNL     1      -4.114  12.398  19.324  0.00  0.00    +0.000 OA
ENDBRANCH  18  25
BRANCH  20  26
ATOM     26  O   UNL     1      -2.830   9.658  15.702  0.00  0.00    +0.000 OA
ATOM     27  H   UNL     1      -3.642   9.125  15.830  0.00  0.00    +0.000 HD
ENDBRANCH  20  26
ENDBRANCH   1  22
BRANCH   1  28
ATOM     28  C   UNL     1       1.234  11.686  19.571  0.00  0.00    +0.000 C 
BRANCH  28  29
ATOM     29  C   UNL     1       1.420  12.674  18.395  0.00  0.00    +0.000 C 
BRANCH  29  30
ATOM     30  N   UNL     1       2.613  12.479  17.560  0.00  0.00    +0.000 NA
ATOM     31  H   UNL     1       3.437  12.551  18.161  0.00  0.00    +0.000 HD
ATOM     32  H   UNL     1       2.683  13.257  16.902  0.00  0.00    +0.000 HD
ENDBRANCH  29  30
ENDBRANCH  28  29
ENDBRANCH   1  28
TORSDOF 8
ENDMDL
MODEL 7
REMARK VINA RESULT:      -7.6      4.159      9.316
REMARK  Name = 
REMARK  10 active torsions:
REMARK  status: ('A' for Active; 'I' for Inactive)
REMARK    1  A    between atoms: C_1  and  O_2
REMARK    2  A    between atoms: O_2  and  C_3
REMARK    3  A    between atoms: C_5  and  O_6
REMARK    4  A    between atoms: C_8  and  N_9
REMARK    5  A    between atoms: N_9  and  C_10
REMARK    6  A    between atoms: N_9  and  C_13
REMARK    7  A    between atoms: C_10  and  C_11
REMARK    8  A    between atoms: C_11  and  N_12
REMARK    9  A    between atoms: C_19  and  C_20
REMARK   10  A    between atoms: N_23  and  C_24
REMARK                            x       y       z     vdW  Elec       q    Type
REMARK                         _______ _______ _______ _____ _____    ______ ____
ROOT
ATOM      1  N   UNL     1       3.450   5.575  19.211  0.00  0.00    +0.000 N 
ENDROOT
BRANCH   1   2
ATOM      2  C   UNL     1       2.753   6.805  19.006  0.00  0.00    +0.000 A 
ATOM      3  C   UNL     1       2.657   7.363  17.725  0.00  0.00    +0.000 A 
ATOM      4  C   UNL     1       2.039   8.595  17.519  0.00  0.00    +0.000 A 
ATOM      5  C   UNL     1       1.455   9.286  18.561  0.00  0.00    +0.000 A 
ATOM      6  N   UNL     1       0.872  10.465  18.293  0.00  0.00    +0.000 NA
ATOM      7  C   UNL     1       0.295  11.095  19.339  0.00  0.00    +0.000 A 
ATOM      8  C   UNL     1       0.290  10.575  20.625  0.00  0.00    +0.000 A 
ATOM      9  N   UNL     1       0.894   9.387  20.900  0.00  0.00    +0.000 NA
ATOM     10  C   UNL     1       1.483   8.738  19.866  0.00  0.00    +0.000 A 
ATOM     11  C   UNL     1       2.139   7.516  20.059  0.00  0.00    +0.000 A 
BRANCH   8  12
ATOM     12  C   UNL     1      -0.367  11.280  21.711  0.00  0.00    +0.000 A 
ATOM     13  C   UNL     1      -1.111  10.796  22.815  0.00  0.00    +0.000 A 
ATOM     14  N   UNL     1      -1.557  11.771  23.610  0.00  0.00    +0.000 NA
ATOM     15  N   UNL     1      -1.103  12.889  23.017  0.00  0.00    +0.000 N 
ATOM     16  C   UNL     1      -1.397  14.178  23.595  0.00  0.00    +0.000 C 
ATOM     17  C   UNL     1      -0.384  12.650  21.882  0.00  0.00    +0.000 A 
ENDBRANCH   8  12
ENDBRANCH   1   2
BRANCH   1  22
ATOM     18  C   UNL     1       6.106   4.388  16.859  0.00  0.00    +0.000 A 
ATOM     19  C   UNL     1       7.270   4.613  17.582  0.00  0.00    +0.000 A 
ATOM     20  C   UNL     1       7.179   5.167  18.854  0.00  0.00    +0.000 A 
ATOM     21  C   UNL     1       5.942   5.496  19.428  0.00  0.00    +0.000 A 
ATOM     22  C   UNL     1       4.749   5.287  18.720  0.00  0.00    +0.000 A 
ATOM     23  C   UNL     1       4.873   4.734  17.423  0.00  0.00    +0.000 A 
BRANCH  18  25
ATOM     24  C   UNL     1       6.956   4.638  14.658  0.00  0.00    +0.000 C 
ATOM     25  O   UNL     1       6.287   3.830  15.622  0.00  0.00    +0.000 OA
ENDBRANCH  18  25
BRANCH  20  26
ATOM     26  O   UNL     1       8.312   5.400  19.586  0.00  0.00    +0.000 OA
ATOM     27  H   UNL     1       8.541   4.578  20.067  0.00  0.00    +0.000 HD
ENDBRANCH  20  26
ENDBRANCH   1  22
BRANCH   1  28
ATOM     28  C   UNL     1       2.566   4.472  19.682  0.00  0.00    +0.000 C 
BRANCH  28  29
ATOM     29  C   UNL     1       2.333   4.425  21.211  0.00  0.00    +0.000 C 
BRANCH  29  30
ATOM     30  N   UNL     1       2.165   3.092  21.805  0.00  0.00    +0.000 NA
ATOM     31  H   UNL     1       1.386   2.629  21.332  0.00  0.00    +0.000 HD
ATOM     32  H   UNL     1       1.871   3.200  22.777  0.00  0.00    +0.000 HD
ENDBRANCH  29  30
ENDBRANCH  28  29
ENDBRANCH   1  28
TORSDOF 8
ENDMDL
MODEL 8
REMARK VINA RESULT:      -7.6      0.917      1.168
REMARK  Name = 
REMARK  10 active torsions:
REMARK  status: ('A' for Active; 'I' for Inactive)
REMARK    1  A    between atoms: C_1  and  O_2
REMARK    2  A    between atoms: O_2  and  C_3
REMARK    3  A    between atoms: C_5  and  O_6
REMARK    4  A    between atoms: C_8  and  N_9
REMARK    5  A    between atoms: N_9  and  C_10
REMARK    6  A    between atoms: N_9  and  C_13
REMARK    7  A    between atoms: C_10  and  C_11
REMARK    8  A    between atoms: C_11  and  N_12
REMARK    9  A    between atoms: C_19  and  C_20
REMARK   10  A    between atoms: N_23  and  C_24
REMARK                            x       y       z     vdW  Elec       q    Type
REMARK                         _______ _______ _______ _____ _____    ______ ____
ROOT
ATOM      1  N   UNL     1       0.374  10.597  19.160  0.00  0.00    +0.000 N 
ENDROOT
BRANCH   1   2
ATOM      2  C   UNL     1       1.026   9.345  19.387  0.00  0.00    +0.000 A 
ATOM      3  C   UNL     1       0.873   8.673  20.606  0.00  0.00    +0.000 A 
ATOM      4  C   UNL     1       1.554   7.487  20.867  0.00  0.00    +0.000 A 
ATOM      5  C   UNL     1       2.365   6.903  19.915  0.00  0.00    +0.000 A 
ATOM      6  N   UNL     1       2.988   5.756  20.229  0.00  0.00    +0.000 NA
ATOM      7  C   UNL     1       3.754   5.210  19.260  0.00  0.00    +0.000 A 
ATOM      8  C   UNL     1       3.902   5.779  18.004  0.00  0.00    +0.000 A 
ATOM      9  N   UNL     1       3.282   6.949  17.690  0.00  0.00    +0.000 NA
ATOM     10  C   UNL     1       2.511   7.518  18.649  0.00  0.00    +0.000 A 
ATOM     11  C   UNL     1       1.846   8.729  18.418  0.00  0.00    +0.000 A 
BRANCH   8  12
ATOM     12  C   UNL     1       4.716   5.139  16.986  0.00  0.00    +0.000 A 
ATOM     13  C   UNL     1       4.898   3.770  16.669  0.00  0.00    +0.000 A 
ATOM     14  N   UNL     1       5.736   3.579  15.648  0.00  0.00    +0.000 NA
ATOM     15  N   UNL     1       6.101   4.827  15.306  0.00  0.00    +0.000 N 
ATOM     16  C   UNL     1       7.028   5.032  14.220  0.00  0.00    +0.000 C 
ATOM     17  C   UNL     1       5.518   5.794  16.072  0.00  0.00    +0.000 A 
ENDBRANCH   8  12
ENDBRANCH   1   2
BRANCH   1  22
ATOM     18  C   UNL     1      -2.461  10.130  16.765  0.00  0.00    +0.000 A 
ATOM     19  C   UNL     1      -3.445  10.951  17.301  0.00  0.00    +0.000 A 
ATOM     20  C   UNL     1      -3.174  11.660  18.466  0.00  0.00    +0.000 A 
ATOM     21  C   UNL     1      -1.929  11.572  19.108  0.00  0.00    +0.000 A 
ATOM     22  C   UNL     1      -0.917  10.747  18.595  0.00  0.00    +0.000 A 
ATOM     23  C   UNL     1      -1.227  10.027  17.416  0.00  0.00    +0.000 A 
BRANCH  18  25
ATOM     24  C   UNL     1      -3.503  10.251  14.637  0.00  0.00    +0.000 C 
ATOM     25  O   UNL     1      -2.809   9.479  15.612  0.00  0.00    +0.000 OA
ENDBRANCH  18  25
BRANCH  20  26
ATOM     26  O   UNL     1      -4.127  12.474  19.013  0.00  0.00    +0.000 OA
ATOM     27  H   UNL     1      -4.952  11.955  19.115  0.00  0.00    +0.000 HD
ENDBRANCH  20  26
ENDBRANCH   1  22
BRANCH   1  28
ATOM     28  C   UNL     1       1.301  11.761  19.232  0.00  0.00    +0.000 C 
BRANCH  28  29
ATOM     29  C   UNL     1       1.215  12.588  20.537  0.00  0.00    +0.000 C 
BRANCH  29  30
ATOM     30  N   UNL     1       2.489  13.057  21.098  0.00  0.00    +0.000 NA
ATOM     31  H   UNL     1       2.349  14.004  21.457  0.00  0.00    +0.000 HD
ATOM     32  H   UNL     1       3.168  13.148  20.340  0.00  0.00    +0.000 HD
ENDBRANCH  29  30
ENDBRANCH  28  29
ENDBRANCH   1  28
TORSDOF 8
ENDMDL
MODEL 9
REMARK VINA RESULT:      -7.6      1.825      2.762
REMARK  Name = 
REMARK  10 active torsions:
REMARK  status: ('A' for Active; 'I' for Inactive)
REMARK    1  A    between atoms: C_1  and  O_2
REMARK    2  A    between atoms: O_2  and  C_3
REMARK    3  A    between atoms: C_5  and  O_6
REMARK    4  A    between atoms: C_8  and  N_9
REMARK    5  A    between atoms: N_9  and  C_10
REMARK    6  A    between atoms: N_9  and  C_13
REMARK    7  A    between atoms: C_10  and  C_11
REMARK    8  A    between atoms: C_11  and  N_12
REMARK    9  A    between atoms: C_19  and  C_20
REMARK   10  A    between atoms: N_23  and  C_24
REMARK                            x       y       z     vdW  Elec       q    Type
REMARK                         _______ _______ _______ _____ _____    ______ ____
ROOT
ATOM      1  N   UNL     1       1.011   8.839  20.783  0.00  0.00    +0.000 N 
ENDROOT
BRANCH   1   2
ATOM      2  C   UNL     1       1.601   7.606  20.365  0.00  0.00    +0.000 A 
ATOM      3  C   UNL     1       1.275   6.406  21.009  0.00  0.00    +0.000 A 
ATOM      4  C   UNL     1       1.892   5.208  20.658  0.00  0.00    +0.000 A 
ATOM      5  C   UNL     1       2.809   5.149  19.628  0.00  0.00    +0.000 A 
ATOM      6  N   UNL     1       3.362   3.961  19.337  0.00  0.00    +0.000 NA
ATOM      7  C   UNL     1       4.237   3.948  18.309  0.00  0.00    +0.000 A 
ATOM      8  C   UNL     1       4.561   5.082  17.578  0.00  0.00    +0.000 A 
ATOM      9  N   UNL     1       4.012   6.289  17.882  0.00  0.00    +0.000 NA
ATOM     10  C   UNL     1       3.133   6.328  18.913  0.00  0.00    +0.000 A 
ATOM     11  C   UNL     1       2.529   7.529  19.304  0.00  0.00    +0.000 A 
BRANCH   8  12
ATOM     12  C   UNL     1       5.489   5.010  16.463  0.00  0.00    +0.000 A 
ATOM     13  C   UNL     1       6.776   5.575  16.290  0.00  0.00    +0.000 A 
ATOM     14  N   UNL     1       7.323   5.273  15.110  0.00  0.00    +0.000 NA
ATOM     15  N   UNL     1       6.385   4.513  14.517  0.00  0.00    +0.000 N 
ATOM     16  C   UNL     1       6.616   3.991  13.192  0.00  0.00    +0.000 C 
ATOM     17  C   UNL     1       5.272   4.324  15.285  0.00  0.00    +0.000 A 
ENDBRANCH   8  12
ENDBRANCH   1   2
BRANCH   1  22
ATOM     18  C   UNL     1      -1.478  10.486  18.527  0.00  0.00    +0.000 A 
ATOM     19  C   UNL     1      -0.804  11.630  18.121  0.00  0.00    +0.000 A 
ATOM     20  C   UNL     1       0.480  11.864  18.600  0.00  0.00    +0.000 A 
ATOM     21  C   UNL     1       1.114  10.970  19.476  0.00  0.00    +0.000 A 
ATOM     22  C   UNL     1       0.457   9.809  19.910  0.00  0.00    +0.000 A 
ATOM     23  C   UNL     1      -0.854   9.604  19.417  0.00  0.00    +0.000 A 
BRANCH  18  25
ATOM     24  C   UNL     1      -2.807  10.205  16.582  0.00  0.00    +0.000 C 
ATOM     25  O   UNL     1      -2.732  10.329  17.999  0.00  0.00    +0.000 OA
ENDBRANCH  18  25
BRANCH  20  26
ATOM     26  O   UNL     1       1.164  12.985  18.214  0.00  0.00    +0.000 OA
ATOM     27  H   UNL     1       1.791  13.223  18.929  0.00  0.00    +0.000 HD
ENDBRANCH  20  26
ENDBRANCH   1  22
BRANCH   1  28
ATOM     28  C   UNL     1       1.340   9.199  22.190  0.00  0.00    +0.000 C 
BRANCH  28  29
ATOM     29  C   UNL     1       0.119   9.413  23.116  0.00  0.00    +0.000 C 
BRANCH  29  30
ATOM     30  N   UNL     1      -0.406  10.782  23.198  0.00  0.00    +0.000 NA
ATOM     31  H   UNL     1      -0.870  10.999  22.313  0.00  0.00    +0.000 HD
ATOM     32  H   UNL     1       0.379  11.432  23.264  0.00  0.00    +0.000 HD
ENDBRANCH  29  30
ENDBRANCH  28  29
ENDBRANCH   1  28
TORSDOF 8
ENDMDL
