MODEL 1
REMARK VINA RESULT:      -8.5      0.000      0.000
REMARK  Name = 
REMARK  9 active torsions:
REMARK  status: ('A' for Active; 'I' for Inactive)
REMARK    1  A    between atoms: C_1  and  C_2
REMARK    2  A    between atoms: C_5  and  C_6
REMARK    3  A    between atoms: C_8  and  C_9
REMARK    4  A    between atoms: C_9  and  N_10
REMARK    5  A    between atoms: N_10  and  C_11
REMARK    6  A    between atoms: N_10  and  C_18
REMARK    7  A    between atoms: C_11  and  C_12
REMARK    8  A    between atoms: C_18  and  C_19
REMARK    9  A    between atoms: C_22  and  C_23
REMARK                            x       y       z     vdW  Elec       q    Type
REMARK                         _______ _______ _______ _____ _____    ______ ____
ROOT
ATOM      1  C   UNL     1       5.652   4.498  18.873  0.00  0.00    +0.000 C 
ENDROOT
BRANCH   1   4
ATOM      2  C   UNL     1       6.448   4.735  15.399  0.00  0.00    +0.000 A 
ATOM      3  N   UNL     1       5.862   4.103  16.404  0.00  0.00    +0.000 NA
ATOM      4  C   UNL     1       6.138   4.887  17.515  0.00  0.00    +0.000 A 
ATOM      5  C   UNL     1       6.891   5.974  17.124  0.00  0.00    +0.000 A 
ATOM      6  C   UNL     1       7.440   7.171  17.779  0.00  0.00    +0.000 C 
ATOM      7  O   UNL     1       7.108   5.873  15.786  0.00  0.00    +0.000 OA
BRANCH   2  12
ATOM      8  C   UNL     1       4.323   2.985  11.441  0.00  0.00    +0.000 C 
ATOM      9  C   UNL     1       5.470   3.538  12.179  0.00  0.00    +0.000 A 
ATOM     10  C   UNL     1       6.791   3.789  11.872  0.00  0.00    +0.000 A 
ATOM     11  C   UNL     1       7.375   4.319  13.050  0.00  0.00    +0.000 A 
ATOM     12  C   UNL     1       6.387   4.348  14.024  0.00  0.00    +0.000 A 
ATOM     13  O   UNL     1       5.224   3.876  13.469  0.00  0.00    +0.000 OA
ENDBRANCH   2  12
ENDBRANCH   1   4
BRANCH   1  14
ATOM     14  N   UNL     1       4.201   4.727  19.059  0.00  0.00    +0.000 NA
BRANCH  14  15
ATOM     15  C   UNL     1       3.645   5.543  17.946  0.00  0.00    +0.000 C 
BRANCH  15  16
ATOM     16  C   UNL     1       2.995   6.831  18.428  0.00  0.00    +0.000 A 
ATOM     17  C   UNL     1       2.439   6.907  19.714  0.00  0.00    +0.000 A 
ATOM     18  C   UNL     1       1.685   8.020  20.093  0.00  0.00    +0.000 A 
ATOM     19  C   UNL     1       1.498   9.073  19.200  0.00  0.00    +0.000 A 
ATOM     20  C   UNL     1       2.095   9.034  17.941  0.00  0.00    +0.000 A 
ATOM     21  C   UNL     1       2.849   7.922  17.559  0.00  0.00    +0.000 A 
ENDBRANCH  15  16
ENDBRANCH  14  15
BRANCH  14  22
ATOM     22  C   UNL     1       3.498   3.426  19.124  0.00  0.00    +0.000 C 
BRANCH  22  23
ATOM     23  C   UNL     1       2.082   3.521  18.632  0.00  0.00    +0.000 C 
ATOM     24  C   UNL     1       1.211   2.288  18.650  0.00  0.00    +0.000 C 
ATOM     25  C   UNL     1       0.923   3.421  19.593  0.00  0.00    +0.000 C 
ENDBRANCH  22  23
ENDBRANCH  14  22
ENDBRANCH   1  14
TORSDOF 7
ENDMDL
MODEL 2
REMARK VINA RESULT:      -8.4      0.600      1.146
REMARK  Name = 
REMARK  9 active torsions:
REMARK  status: ('A' for Active; 'I' for Inactive)
REMARK    1  A    between atoms: C_1  and  C_2
REMARK    2  A    between atoms: C_5  and  C_6
REMARK    3  A    between atoms: C_8  and  C_9
REMARK    4  A    between atoms: C_9  and  N_10
REMARK    5  A    between atoms: N_10  and  C_11
REMARK    6  A    between atoms: N_10  and  C_18
REMARK    7  A    between atoms: C_11  and  C_12
REMARK    8  A    between atoms: C_18  and  C_19
REMARK    9  A    between atoms: C_22  and  C_23
REMARK                            x       y       z     vdW  Elec       q    Type
REMARK                         _______ _______ _______ _____ _____    ______ ____
ROOT
ATOM      1  C   UNL     1       5.232   4.977  18.847  0.00  0.00    +0.000 C 
ENDROOT
BRANCH   1   4
ATOM      2  C   UNL     1       6.393   4.881  15.470  0.00  0.00    +0.000 A 
ATOM      3  N   UNL     1       5.592   4.433  16.423  0.00  0.00    +0.000 NA
ATOM      4  C   UNL     1       5.919   5.193  17.537  0.00  0.00    +0.000 A 
ATOM      5  C   UNL     1       6.920   6.079  17.201  0.00  0.00    +0.000 A 
ATOM      6  C   UNL     1       7.645   7.164  17.880  0.00  0.00    +0.000 C 
ATOM      7  O   UNL     1       7.240   5.873  15.896  0.00  0.00    +0.000 OA
BRANCH   2  12
ATOM      8  C   UNL     1       4.419   3.014  11.487  0.00  0.00    +0.000 C 
ATOM      9  C   UNL     1       5.538   3.588  12.253  0.00  0.00    +0.000 A 
ATOM     10  C   UNL     1       6.871   3.828  11.990  0.00  0.00    +0.000 A 
ATOM     11  C   UNL     1       7.410   4.393  13.173  0.00  0.00    +0.000 A 
ATOM     12  C   UNL     1       6.385   4.453  14.107  0.00  0.00    +0.000 A 
ATOM     13  O   UNL     1       5.243   3.965  13.521  0.00  0.00    +0.000 OA
ENDBRANCH   2  12
ENDBRANCH   1   4
BRANCH   1  14
ATOM     14  N   UNL     1       3.789   5.305  18.807  0.00  0.00    +0.000 NA
BRANCH  14  15
ATOM     15  C   UNL     1       3.536   6.486  17.939  0.00  0.00    +0.000 C 
BRANCH  15  16
ATOM     16  C   UNL     1       2.542   7.463  18.546  0.00  0.00    +0.000 A 
ATOM     17  C   UNL     1       2.073   8.555  17.800  0.00  0.00    +0.000 A 
ATOM     18  C   UNL     1       1.304   9.549  18.409  0.00  0.00    +0.000 A 
ATOM     19  C   UNL     1       0.982   9.452  19.761  0.00  0.00    +0.000 A 
ATOM     20  C   UNL     1       1.394   8.342  20.498  0.00  0.00    +0.000 A 
ATOM     21  C   UNL     1       2.162   7.346  19.892  0.00  0.00    +0.000 A 
ENDBRANCH  15  16
ENDBRANCH  14  15
BRANCH  14  22
ATOM     22  C   UNL     1       3.029   4.141  18.301  0.00  0.00    +0.000 C 
BRANCH  22  23
ATOM     23  C   UNL     1       1.796   3.870  19.115  0.00  0.00    +0.000 C 
ATOM     24  C   UNL     1       0.936   2.676  18.776  0.00  0.00    +0.000 C 
ATOM     25  C   UNL     1       1.733   2.685  20.049  0.00  0.00    +0.000 C 
ENDBRANCH  22  23
ENDBRANCH  14  22
ENDBRANCH   1  14
TORSDOF 7
ENDMDL
MODEL 3
REMARK VINA RESULT:      -8.1      1.255      3.504
REMARK  Name = 
REMARK  9 active torsions:
REMARK  status: ('A' for Active; 'I' for Inactive)
REMARK    1  A    between atoms: C_1  and  C_2
REMARK    2  A    between atoms: C_5  and  C_6
REMARK    3  A    between atoms: C_8  and  C_9
REMARK    4  A    between atoms: C_9  and  N_10
REMARK    5  A    between atoms: N_10  and  C_11
REMARK    6  A    between atoms: N_10  and  C_18
REMARK    7  A    between atoms: C_11  and  C_12
REMARK    8  A    between atoms: C_18  and  C_19
REMARK    9  A    between atoms: C_22  and  C_23
REMARK                            x       y       z     vdW  Elec       q    Type
REMARK                         _______ _______ _______ _____ _____    ______ ____
ROOT
ATOM      1  C   UNL     1       5.022   6.653  18.006  0.00  0.00    +0.000 C 
ENDROOT
BRANCH   1   4
ATOM      2  C   UNL     1       6.089   4.666  15.236  0.00  0.00    +0.000 A 
ATOM      3  N   UNL     1       5.238   5.525  15.774  0.00  0.00    +0.000 NA
ATOM      4  C   UNL     1       5.725   5.737  17.056  0.00  0.00    +0.000 A 
ATOM      5  C   UNL     1       6.865   4.984  17.237  0.00  0.00    +0.000 A 
ATOM      6  C   UNL     1       7.859   4.809  18.306  0.00  0.00    +0.000 C 
ATOM      7  O   UNL     1       7.091   4.286  16.093  0.00  0.00    +0.000 OA
BRANCH   2  12
ATOM      8  C   UNL     1       3.941   3.071  11.225  0.00  0.00    +0.000 C 
ATOM      9  C   UNL     1       5.121   3.437  12.025  0.00  0.00    +0.000 A 
ATOM     10  C   UNL     1       6.485   3.389  11.821  0.00  0.00    +0.000 A 
ATOM     11  C   UNL     1       7.078   3.883  13.009  0.00  0.00    +0.000 A 
ATOM     12  C   UNL     1       6.050   4.190  13.889  0.00  0.00    +0.000 A 
ATOM     13  O   UNL     1       4.858   3.920  13.264  0.00  0.00    +0.000 OA
ENDBRANCH   2  12
ENDBRANCH   1   4
BRANCH   1  14
ATOM     14  N   UNL     1       3.549   6.621  17.862  0.00  0.00    +0.000 NA
BRANCH  14  15
ATOM     15  C   UNL     1       2.894   6.348  19.169  0.00  0.00    +0.000 C 
BRANCH  15  16
ATOM     16  C   UNL     1       2.125   5.036  19.181  0.00  0.00    +0.000 A 
ATOM     17  C   UNL     1       1.497   4.591  20.353  0.00  0.00    +0.000 A 
ATOM     18  C   UNL     1       0.946   3.309  20.418  0.00  0.00    +0.000 A 
ATOM     19  C   UNL     1       1.001   2.470  19.307  0.00  0.00    +0.000 A 
ATOM     20  C   UNL     1       1.570   2.923  18.118  0.00  0.00    +0.000 A 
ATOM     21  C   UNL     1       2.122   4.204  18.051  0.00  0.00    +0.000 A 
ENDBRANCH  15  16
ENDBRANCH  14  15
BRANCH  14  22
ATOM     22  C   UNL     1       3.075   7.916  17.326  0.00  0.00    +0.000 C 
BRANCH  22  23
ATOM     23  C   UNL     1       2.136   8.612  18.270  0.00  0.00    +0.000 C 
ATOM     24  C   UNL     1       1.947  10.105  18.156  0.00  0.00    +0.000 C 
ATOM     25  C   UNL     1       0.827   9.179  17.779  0.00  0.00    +0.000 C 
ENDBRANCH  22  23
ENDBRANCH  14  22
ENDBRANCH   1  14
TORSDOF 7
ENDMDL
MODEL 4
REMARK VINA RESULT:      -8.0      1.230      3.610
REMARK  Name = 
REMARK  9 active torsions:
REMARK  status: ('A' for Active; 'I' for Inactive)
REMARK    1  A    between atoms: C_1  and  C_2
REMARK    2  A    between atoms: C_5  and  C_6
REMARK    3  A    between atoms: C_8  and  C_9
REMARK    4  A    between atoms: C_9  and  N_10
REMARK    5  A    between atoms: N_10  and  C_11
REMARK    6  A    between atoms: N_10  and  C_18
REMARK    7  A    between atoms: C_11  and  C_12
REMARK    8  A    between atoms: C_18  and  C_19
REMARK    9  A    between atoms: C_22  and  C_23
REMARK                            x       y       z     vdW  Elec       q    Type
REMARK                         _______ _______ _______ _____ _____    ______ ____
ROOT
ATOM      1  C   UNL     1       4.642   7.179  17.504  0.00  0.00    +0.000 C 
ENDROOT
BRANCH   1   4
ATOM      2  C   UNL     1       6.393   5.216  15.087  0.00  0.00    +0.000 A 
ATOM      3  N   UNL     1       5.358   5.969  15.425  0.00  0.00    +0.000 NA
ATOM      4  C   UNL     1       5.604   6.325  16.744  0.00  0.00    +0.000 A 
ATOM      5  C   UNL     1       6.795   5.760  17.149  0.00  0.00    +0.000 A 
ATOM      6  C   UNL     1       7.624   5.797  18.363  0.00  0.00    +0.000 C 
ATOM      7  O   UNL     1       7.291   5.039  16.109  0.00  0.00    +0.000 OA
BRANCH   2  12
ATOM      8  C   UNL     1       5.753   2.063  11.496  0.00  0.00    +0.000 C 
ATOM      9  C   UNL     1       6.392   3.236  12.115  0.00  0.00    +0.000 A 
ATOM     10  C   UNL     1       7.404   4.098  11.744  0.00  0.00    +0.000 A 
ATOM     11  C   UNL     1       7.548   5.018  12.812  0.00  0.00    +0.000 A 
ATOM     12  C   UNL     1       6.631   4.663  13.791  0.00  0.00    +0.000 A 
ATOM     13  O   UNL     1       5.925   3.576  13.341  0.00  0.00    +0.000 OA
ENDBRANCH   2  12
ENDBRANCH   1   4
BRANCH   1  14
ATOM     14  N   UNL     1       3.402   6.464  17.882  0.00  0.00    +0.000 NA
BRANCH  14  15
ATOM     15  C   UNL     1       3.444   6.047  19.309  0.00  0.00    +0.000 C 
BRANCH  15  16
ATOM     16  C   UNL     1       2.722   4.732  19.560  0.00  0.00    +0.000 A 
ATOM     17  C   UNL     1       2.765   3.705  18.606  0.00  0.00    +0.000 A 
ATOM     18  C   UNL     1       1.960   2.572  18.750  0.00  0.00    +0.000 A 
ATOM     19  C   UNL     1       1.122   2.448  19.856  0.00  0.00    +0.000 A 
ATOM     20  C   UNL     1       1.116   3.436  20.840  0.00  0.00    +0.000 A 
ATOM     21  C   UNL     1       1.919   4.569  20.699  0.00  0.00    +0.000 A 
ENDBRANCH  15  16
ENDBRANCH  14  15
BRANCH  14  22
ATOM     22  C   UNL     1       2.234   7.342  17.651  0.00  0.00    +0.000 C 
BRANCH  22  23
ATOM     23  C   UNL     1       2.374   8.668  18.343  0.00  0.00    +0.000 C 
ATOM     24  C   UNL     1       1.442   9.796  17.972  0.00  0.00    +0.000 C 
ATOM     25  C   UNL     1       1.327   9.144  19.320  0.00  0.00    +0.000 C 
ENDBRANCH  22  23
ENDBRANCH  14  22
ENDBRANCH   1  14
TORSDOF 7
ENDMDL
MODEL 5
REMARK VINA RESULT:      -8.0      3.182      6.553
REMARK  Name = 
REMARK  9 active torsions:
REMARK  status: ('A' for Active; 'I' for Inactive)
REMARK    1  A    between atoms: C_1  and  C_2
REMARK    2  A    between atoms: C_5  and  C_6
REMARK    3  A    between atoms: C_8  and  C_9
REMARK    4  A    between atoms: C_9  and  N_10
REMARK    5  A    between atoms: N_10  and  C_11
REMARK    6  A    between atoms: N_10  and  C_18
REMARK    7  A    between atoms: C_11  and  C_12
REMARK    8  A    between atoms: C_18  and  C_19
REMARK    9  A    between atoms: C_22  and  C_23
REMARK                            x       y       z     vdW  Elec       q    Type
REMARK                         _______ _______ _______ _____ _____    ______ ____
ROOT
ATOM      1  C   UNL     1       5.913   6.902  16.565  0.00  0.00    +0.000 C 
ENDROOT
BRANCH   1   4
ATOM      2  C   UNL     1       8.367   8.850  18.281  0.00  0.00    +0.000 A 
ATOM      3  N   UNL     1       7.391   8.754  17.391  0.00  0.00    +0.000 NA
ATOM      4  C   UNL     1       7.003   7.423  17.445  0.00  0.00    +0.000 A 
ATOM      5  C   UNL     1       7.774   6.765  18.379  0.00  0.00    +0.000 A 
ATOM      6  C   UNL     1       7.826   5.407  18.942  0.00  0.00    +0.000 C 
ATOM      7  O   UNL     1       8.656   7.660  18.899  0.00  0.00    +0.000 OA
BRANCH   2  12
ATOM      8  C   UNL     1       9.985  12.209  21.338  0.00  0.00    +0.000 C 
ATOM      9  C   UNL     1       9.803  11.635  19.995  0.00  0.00    +0.000 A 
ATOM     10  C   UNL     1      10.122  12.041  18.715  0.00  0.00    +0.000 A 
ATOM     11  C   UNL     1       9.650  11.022  17.850  0.00  0.00    +0.000 A 
ATOM     12  C   UNL     1       9.049  10.054  18.641  0.00  0.00    +0.000 A 
ATOM     13  O   UNL     1       9.162  10.441  19.953  0.00  0.00    +0.000 OA
ENDBRANCH   2  12
ENDBRANCH   1   4
BRANCH   1  14
ATOM     14  N   UNL     1       5.143   5.799  17.183  0.00  0.00    +0.000 NA
BRANCH  14  15
ATOM     15  C   UNL     1       3.718   6.186  17.367  0.00  0.00    +0.000 C 
BRANCH  15  16
ATOM     16  C   UNL     1       2.987   5.292  18.357  0.00  0.00    +0.000 A 
ATOM     17  C   UNL     1       1.979   4.421  17.917  0.00  0.00    +0.000 A 
ATOM     18  C   UNL     1       1.186   3.735  18.839  0.00  0.00    +0.000 A 
ATOM     19  C   UNL     1       1.407   3.896  20.205  0.00  0.00    +0.000 A 
ATOM     20  C   UNL     1       2.444   4.713  20.652  0.00  0.00    +0.000 A 
ATOM     21  C   UNL     1       3.239   5.401  19.733  0.00  0.00    +0.000 A 
ENDBRANCH  15  16
ENDBRANCH  14  15
BRANCH  14  22
ATOM     22  C   UNL     1       5.228   4.595  16.329  0.00  0.00    +0.000 C 
BRANCH  22  23
ATOM     23  C   UNL     1       5.632   4.924  14.921  0.00  0.00    +0.000 C 
ATOM     24  C   UNL     1       7.011   4.540  14.439  0.00  0.00    +0.000 C 
ATOM     25  C   UNL     1       5.804   3.834  13.891  0.00  0.00    +0.000 C 
ENDBRANCH  22  23
ENDBRANCH  14  22
ENDBRANCH   1  14
TORSDOF 7
ENDMDL
MODEL 6
REMARK VINA RESULT:      -8.0      1.439      3.812
REMARK  Name = 
REMARK  9 active torsions:
REMARK  status: ('A' for Active; 'I' for Inactive)
REMARK    1  A    between atoms: C_1  and  C_2
REMARK    2  A    between atoms: C_5  and  C_6
REMARK    3  A    between atoms: C_8  and  C_9
REMARK    4  A    between atoms: C_9  and  N_10
REMARK    5  A    between atoms: N_10  and  C_11
REMARK    6  A    between atoms: N_10  and  C_18
REMARK    7  A    between atoms: C_11  and  C_12
REMARK    8  A    between atoms: C_18  and  C_19
REMARK    9  A    between atoms: C_22  and  C_23
REMARK                            x       y       z     vdW  Elec       q    Type
REMARK                         _______ _______ _______ _____ _____    ______ ____
ROOT
ATOM      1  C   UNL     1       4.206   6.932  17.972  0.00  0.00    +0.000 C 
ENDROOT
BRANCH   1   4
ATOM      2  C   UNL     1       5.582   4.750  15.501  0.00  0.00    +0.000 A 
ATOM      3  N   UNL     1       5.060   5.917  15.841  0.00  0.00    +0.000 NA
ATOM      4  C   UNL     1       4.817   5.806  17.202  0.00  0.00    +0.000 A 
ATOM      5  C   UNL     1       5.210   4.555  17.630  0.00  0.00    +0.000 A 
ATOM      6  C   UNL     1       5.276   3.850  18.919  0.00  0.00    +0.000 C 
ATOM      7  O   UNL     1       5.678   3.872  16.552  0.00  0.00    +0.000 OA
BRANCH   2  12
ATOM      8  C   UNL     1       5.600   2.272  11.365  0.00  0.00    +0.000 C 
ATOM      9  C   UNL     1       6.133   3.285  12.291  0.00  0.00    +0.000 A 
ATOM     10  C   UNL     1       7.225   4.128  12.281  0.00  0.00    +0.000 A 
ATOM     11  C   UNL     1       7.174   4.851  13.500  0.00  0.00    +0.000 A 
ATOM     12  C   UNL     1       6.065   4.400  14.202  0.00  0.00    +0.000 A 
ATOM     13  O   UNL     1       5.434   3.449  13.441  0.00  0.00    +0.000 OA
ENDBRANCH   2  12
ENDBRANCH   1   4
BRANCH   1  14
ATOM     14  N   UNL     1       2.739   6.805  18.123  0.00  0.00    +0.000 NA
BRANCH  14  15
ATOM     15  C   UNL     1       2.366   6.635  19.553  0.00  0.00    +0.000 C 
BRANCH  15  16
ATOM     16  C   UNL     1       1.949   5.211  19.888  0.00  0.00    +0.000 A 
ATOM     17  C   UNL     1       2.074   4.725  21.198  0.00  0.00    +0.000 A 
ATOM     18  C   UNL     1       1.865   3.372  21.473  0.00  0.00    +0.000 A 
ATOM     19  C   UNL     1       1.510   2.499  20.447  0.00  0.00    +0.000 A 
ATOM     20  C   UNL     1       1.326   2.983  19.152  0.00  0.00    +0.000 A 
ATOM     21  C   UNL     1       1.534   4.335  18.874  0.00  0.00    +0.000 A 
ENDBRANCH  15  16
ENDBRANCH  14  15
BRANCH  14  22
ATOM     22  C   UNL     1       2.078   8.009  17.573  0.00  0.00    +0.000 C 
BRANCH  22  23
ATOM     23  C   UNL     1       1.699   8.989  18.646  0.00  0.00    +0.000 C 
ATOM     24  C   UNL     1       1.770  10.468  18.353  0.00  0.00    +0.000 C 
ATOM     25  C   UNL     1       0.435   9.805  18.535  0.00  0.00    +0.000 C 
ENDBRANCH  22  23
ENDBRANCH  14  22
ENDBRANCH   1  14
TORSDOF 7
ENDMDL
MODEL 7
REMARK VINA RESULT:      -7.9      1.481      3.928
REMARK  Name = 
REMARK  9 active torsions:
REMARK  status: ('A' for Active; 'I' for Inactive)
REMARK    1  A    between atoms: C_1  and  C_2
REMARK    2  A    between atoms: C_5  and  C_6
REMARK    3  A    between atoms: C_8  and  C_9
REMARK    4  A    between atoms: C_9  and  N_10
REMARK    5  A    between atoms: N_10  and  C_11
REMARK    6  A    between atoms: N_10  and  C_18
REMARK    7  A    between atoms: C_11  and  C_12
REMARK    8  A    between atoms: C_18  and  C_19
REMARK    9  A    between atoms: C_22  and  C_23
REMARK                            x       y       z     vdW  Elec       q    Type
REMARK                         _______ _______ _______ _____ _____    ______ ____
ROOT
ATOM      1  C   UNL     1       4.294   6.592  18.313  0.00  0.00    +0.000 C 
ENDROOT
BRANCH   1   4
ATOM      2  C   UNL     1       5.305   4.503  15.598  0.00  0.00    +0.000 A 
ATOM      3  N   UNL     1       4.983   5.696  16.072  0.00  0.00    +0.000 NA
ATOM      4  C   UNL     1       4.714   5.473  17.415  0.00  0.00    +0.000 A 
ATOM      5  C   UNL     1       4.887   4.135  17.695  0.00  0.00    +0.000 A 
ATOM      6  C   UNL     1       4.824   3.288  18.895  0.00  0.00    +0.000 C 
ATOM      7  O   UNL     1       5.243   3.509  16.541  0.00  0.00    +0.000 OA
BRANCH   2  12
ATOM      8  C   UNL     1       4.851   2.711  11.144  0.00  0.00    +0.000 C 
ATOM      9  C   UNL     1       5.588   3.411  12.209  0.00  0.00    +0.000 A 
ATOM     10  C   UNL     1       6.860   3.935  12.325  0.00  0.00    +0.000 A 
ATOM     11  C   UNL     1       6.947   4.468  13.636  0.00  0.00    +0.000 A 
ATOM     12  C   UNL     1       5.733   4.226  14.262  0.00  0.00    +0.000 A 
ATOM     13  O   UNL     1       4.910   3.588  13.369  0.00  0.00    +0.000 OA
ENDBRANCH   2  12
ENDBRANCH   1   4
BRANCH   1  14
ATOM     14  N   UNL     1       2.839   6.860  18.268  0.00  0.00    +0.000 NA
BRANCH  14  15
ATOM     15  C   UNL     1       2.225   6.682  19.612  0.00  0.00    +0.000 C 
BRANCH  15  16
ATOM     16  C   UNL     1       2.007   5.221  19.972  0.00  0.00    +0.000 A 
ATOM     17  C   UNL     1       1.350   4.360  19.080  0.00  0.00    +0.000 A 
ATOM     18  C   UNL     1       0.989   3.071  19.478  0.00  0.00    +0.000 A 
ATOM     19  C   UNL     1       1.299   2.625  20.761  0.00  0.00    +0.000 A 
ATOM     20  C   UNL     1       2.004   3.451  21.635  0.00  0.00    +0.000 A 
ATOM     21  C   UNL     1       2.366   4.740  21.241  0.00  0.00    +0.000 A 
ENDBRANCH  15  16
ENDBRANCH  14  15
BRANCH  14  22
ATOM     22  C   UNL     1       2.602   8.239  17.788  0.00  0.00    +0.000 C 
BRANCH  22  23
ATOM     23  C   UNL     1       1.627   8.982  18.656  0.00  0.00    +0.000 C 
ATOM     24  C   UNL     1       1.534  10.485  18.542  0.00  0.00    +0.000 C 
ATOM     25  C   UNL     1       0.399   9.627  18.061  0.00  0.00    +0.000 C 
ENDBRANCH  22  23
ENDBRANCH  14  22
ENDBRANCH   1  14
TORSDOF 7
ENDMDL
MODEL 8
REMARK VINA RESULT:      -7.9      3.042      6.375
REMARK  Name = 
REMARK  9 active torsions:
REMARK  status: ('A' for Active; 'I' for Inactive)
REMARK    1  A    between atoms: C_1  and  C_2
REMARK    2  A    between atoms: C_5  and  C_6
REMARK    3  A    between atoms: C_8  and  C_9
REMARK    4  A    between atoms: C_9  and  N_10
REMARK    5  A    between atoms: N_10  and  C_11
REMARK    6  A    between atoms: N_10  and  C_18
REMARK    7  A    between atoms: C_11  and  C_12
REMARK    8  A    between atoms: C_18  and  C_19
REMARK    9  A    between atoms: C_22  and  C_23
REMARK                            x       y       z     vdW  Elec       q    Type
REMARK                         _______ _______ _______ _____ _____    ______ ____
ROOT
ATOM      1  C   UNL     1       5.587   6.929  16.628  0.00  0.00    +0.000 C 
ENDROOT
BRANCH   1   4
ATOM      2  C   UNL     1       8.207   8.772  18.210  0.00  0.00    +0.000 A 
ATOM      3  N   UNL     1       7.147   8.729  17.418  0.00  0.00    +0.000 NA
ATOM      4  C   UNL     1       6.761   7.397  17.427  0.00  0.00    +0.000 A 
ATOM      5  C   UNL     1       7.619   6.683  18.236  0.00  0.00    +0.000 A 
ATOM      6  C   UNL     1       7.721   5.293  18.704  0.00  0.00    +0.000 C 
ATOM      7  O   UNL     1       8.551   7.546  18.721  0.00  0.00    +0.000 OA
BRANCH   2  12
ATOM      8  C   UNL     1      10.336  13.020  17.395  0.00  0.00    +0.000 C 
ATOM      9  C   UNL     1       9.932  11.898  18.258  0.00  0.00    +0.000 A 
ATOM     10  C   UNL     1      10.142  11.568  19.582  0.00  0.00    +0.000 A 
ATOM     11  C   UNL     1       9.487  10.328  19.787  0.00  0.00    +0.000 A 
ATOM     12  C   UNL     1       8.926   9.952  18.575  0.00  0.00    +0.000 A 
ATOM     13  O   UNL     1       9.200  10.931  17.653  0.00  0.00    +0.000 OA
ENDBRANCH   2  12
ENDBRANCH   1   4
BRANCH   1  14
ATOM     14  N   UNL     1       4.884   5.782  17.245  0.00  0.00    +0.000 NA
BRANCH  14  15
ATOM     15  C   UNL     1       3.504   6.163  17.653  0.00  0.00    +0.000 C 
BRANCH  15  16
ATOM     16  C   UNL     1       2.798   5.068  18.438  0.00  0.00    +0.000 A 
ATOM     17  C   UNL     1       3.278   4.675  19.696  0.00  0.00    +0.000 A 
ATOM     18  C   UNL     1       2.745   3.554  20.337  0.00  0.00    +0.000 A 
ATOM     19  C   UNL     1       1.717   2.830  19.737  0.00  0.00    +0.000 A 
ATOM     20  C   UNL     1       1.193   3.247  18.514  0.00  0.00    +0.000 A 
ATOM     21  C   UNL     1       1.723   4.367  17.871  0.00  0.00    +0.000 A 
ENDBRANCH  15  16
ENDBRANCH  14  15
BRANCH  14  22
ATOM     22  C   UNL     1       4.829   4.658  16.285  0.00  0.00    +0.000 C 
BRANCH  22  23
ATOM     23  C   UNL     1       5.509   4.987  14.987  0.00  0.00    +0.000 C 
ATOM     24  C   UNL     1       6.868   4.395  14.695  0.00  0.00    +0.000 C 
ATOM     25  C   UNL     1       5.670   3.940  13.912  0.00  0.00    +0.000 C 
ENDBRANCH  22  23
ENDBRANCH  14  22
ENDBRANCH   1  14
TORSDOF 7
ENDMDL
MODEL 9
REMARK VINA RESULT:      -7.9      1.454      3.655
REMARK  Name = 
REMARK  9 active torsions:
REMARK  status: ('A' for Active; 'I' for Inactive)
REMARK    1  A    between atoms: C_1  and  C_2
REMARK    2  A    between atoms: C_5  and  C_6
REMARK    3  A    between atoms: C_8  and  C_9
REMARK    4  A    between atoms: C_9  and  N_10
REMARK    5  A    between atoms: N_10  and  C_11
REMARK    6  A    between atoms: N_10  and  C_18
REMARK    7  A    between atoms: C_11  and  C_12
REMARK    8  A    between atoms: C_18  and  C_19
REMARK    9  A    between atoms: C_22  and  C_23
REMARK                            x       y       z     vdW  Elec       q    Type
REMARK                         _______ _______ _______ _____ _____    ______ ____
ROOT
ATOM      1  C   UNL     1       5.445   6.935  16.907  0.00  0.00    +0.000 C 
ENDROOT
BRANCH   1   4
ATOM      2  C   UNL     1       5.878   4.337  14.494  0.00  0.00    +0.000 A 
ATOM      3  N   UNL     1       5.300   5.464  14.879  0.00  0.00    +0.000 NA
ATOM      4  C   UNL     1       5.855   5.731  16.122  0.00  0.00    +0.000 A 
ATOM      5  C   UNL     1       6.757   4.737  16.437  0.00  0.00    +0.000 A 
ATOM      6  C   UNL     1       7.694   4.468  17.538  0.00  0.00    +0.000 C 
ATOM      7  O   UNL     1       6.762   3.838  15.417  0.00  0.00    +0.000 OA
BRANCH   2  12
ATOM      8  C   UNL     1       3.385   3.101  10.556  0.00  0.00    +0.000 C 
ATOM      9  C   UNL     1       4.581   3.076  11.415  0.00  0.00    +0.000 A 
ATOM     10  C   UNL     1       5.796   2.424  11.366  0.00  0.00    +0.000 A 
ATOM     11  C   UNL     1       6.505   2.827  12.525  0.00  0.00    +0.000 A 
ATOM     12  C   UNL     1       5.682   3.689  13.235  0.00  0.00    +0.000 A 
ATOM     13  O   UNL     1       4.511   3.838  12.533  0.00  0.00    +0.000 OA
ENDBRANCH   2  12
ENDBRANCH   1   4
BRANCH   1  14
ATOM     14  N   UNL     1       4.088   6.817  17.485  0.00  0.00    +0.000 NA
BRANCH  14  15
ATOM     15  C   UNL     1       4.111   6.008  18.734  0.00  0.00    +0.000 C 
BRANCH  15  16
ATOM     16  C   UNL     1       3.411   4.666  18.580  0.00  0.00    +0.000 A 
ATOM     17  C   UNL     1       4.139   3.471  18.671  0.00  0.00    +0.000 A 
ATOM     18  C   UNL     1       3.539   2.251  18.353  0.00  0.00    +0.000 A 
ATOM     19  C   UNL     1       2.202   2.213  17.961  0.00  0.00    +0.000 A 
ATOM     20  C   UNL     1       1.453   3.388  17.924  0.00  0.00    +0.000 A 
ATOM     21  C   UNL     1       2.051   4.609  18.241  0.00  0.00    +0.000 A 
ENDBRANCH  15  16
ENDBRANCH  14  15
BRANCH  14  22
ATOM     22  C   UNL     1       3.552   8.166  17.774  0.00  0.00    +0.000 C 
BRANCH  22  23
ATOM     23  C   UNL     1       2.069   8.150  18.008  0.00  0.00    +0.000 C 
ATOM     24  C   UNL     1       1.514   8.761  19.272  0.00  0.00    +0.000 C 
ATOM     25  C   UNL     1       1.264   9.425  17.949  0.00  0.00    +0.000 C 
ENDBRANCH  22  23
ENDBRANCH  14  22
ENDBRANCH   1  14
TORSDOF 7
ENDMDL
