MODEL 1
REMARK VINA RESULT:      -8.1      0.000      0.000
REMARK  Name = 
REMARK  8 active torsions:
REMARK  status: ('A' for Active; 'I' for Inactive)
REMARK    1  A    between atoms: C_1  and  O_2
REMARK    2  A    between atoms: O_2  and  C_3
REMARK    3  A    between atoms: C_3  and  C_4
REMARK    4  A    between atoms: C_4  and  C_5
REMARK    5  A    between atoms: C_8  and  C_9
REMARK    6  A    between atoms: C_9  and  N_10
REMARK    7  A    between atoms: N_10  and  C_11
REMARK    8  A    between atoms: C_12  and  C_14
REMARK                            x       y       z     vdW  Elec       q    Type
REMARK                         _______ _______ _______ _____ _____    ______ ____
ROOT
ATOM      1  N   UNL     1       5.147   5.533  17.124  0.00  0.00    +0.000 N 
ATOM      2  C   UNL     1       5.258   6.964  16.884  0.00  0.00    +0.000 C 
ATOM      3  C   UNL     1       3.965   4.831  17.315  0.00  0.00    +0.000 C 
ATOM      4  O   UNL     1       4.023   3.605  17.428  0.00  0.00    +0.000 OA
ENDROOT
BRANCH   3   5
ATOM      5  C   UNL     1       2.631   5.571  17.540  0.00  0.00    +0.000 C 
ATOM      6  C   UNL     1       2.818   6.577  18.689  0.00  0.00    +0.000 C 
ATOM      7  O   UNL     1       3.036   5.968  19.970  0.00  0.00    +0.000 OA
ATOM      8  C   UNL     1       2.386   4.789  20.206  0.00  0.00    +0.000 A 
ATOM      9  C   UNL     1       2.629   4.183  21.437  0.00  0.00    +0.000 A 
ATOM     10  C   UNL     1       2.004   2.979  21.760  0.00  0.00    +0.000 A 
ATOM     11  C   UNL     1       1.104   2.399  20.868  0.00  0.00    +0.000 A 
ATOM     12  C   UNL     1       0.868   2.997  19.631  0.00  0.00    +0.000 A 
ATOM     13  C   UNL     1       1.549   4.169  19.277  0.00  0.00    +0.000 A 
ATOM     14  C   UNL     1       1.398   4.750  17.906  0.00  0.00    +0.000 C 
ENDBRANCH   3   5
BRANCH   1  15
ATOM     15  C   UNL     1       6.381   4.741  16.993  0.00  0.00    +0.000 C 
BRANCH  15  19
ATOM     16  C   UNL     1       7.082   4.456  13.520  0.00  0.00    +0.000 A 
ATOM     17  N   UNL     1       7.839   5.526  13.798  0.00  0.00    +0.000 NA
ATOM     18  O   UNL     1       7.715   5.651  15.184  0.00  0.00    +0.000 OA
ATOM     19  C   UNL     1       6.882   4.648  15.597  0.00  0.00    +0.000 A 
ATOM     20  N   UNL     1       6.483   3.873  14.612  0.00  0.00    +0.000 NA
BRANCH  16  21
ATOM     21  C   UNL     1       6.745   4.043  12.139  0.00  0.00    +0.000 C 
BRANCH  21  22
ATOM     22  C   UNL     1       5.700   2.931  12.177  0.00  0.00    +0.000 C 
BRANCH  22  24
ATOM     23  C   UNL     1       3.872   3.276  10.753  0.00  0.00    +0.000 C 
ATOM     24  O   UNL     1       4.381   3.467  12.069  0.00  0.00    +0.000 OA
ENDBRANCH  22  24
ENDBRANCH  21  22
ENDBRANCH  16  21
ENDBRANCH  15  19
ENDBRANCH   1  15
TORSDOF 6
ENDMDL
MODEL 2
REMARK VINA RESULT:      -7.5      3.024      5.058
REMARK  Name = 
REMARK  8 active torsions:
REMARK  status: ('A' for Active; 'I' for Inactive)
REMARK    1  A    between atoms: C_1  and  O_2
REMARK    2  A    between atoms: O_2  and  C_3
REMARK    3  A    between atoms: C_3  and  C_4
REMARK    4  A    between atoms: C_4  and  C_5
REMARK    5  A    between atoms: C_8  and  C_9
REMARK    6  A    between atoms: C_9  and  N_10
REMARK    7  A    between atoms: N_10  and  C_11
REMARK    8  A    between atoms: C_12  and  C_14
REMARK                            x       y       z     vdW  Elec       q    Type
REMARK                         _______ _______ _______ _____ _____    ______ ____
ROOT
ATOM      1  N   UNL     1       5.264   5.178  17.082  0.00  0.00    +0.000 N 
ATOM      2  C   UNL     1       4.898   4.961  15.690  0.00  0.00    +0.000 C 
ATOM      3  C   UNL     1       4.387   5.470  18.117  0.00  0.00    +0.000 C 
ATOM      4  O   UNL     1       4.835   5.548  19.262  0.00  0.00    +0.000 OA
ENDROOT
BRANCH   3   5
ATOM      5  C   UNL     1       2.918   5.843  17.829  0.00  0.00    +0.000 C 
ATOM      6  C   UNL     1       2.402   6.720  18.983  0.00  0.00    +0.000 C 
ATOM      7  O   UNL     1       2.290   6.032  20.237  0.00  0.00    +0.000 OA
ATOM      8  C   UNL     1       1.933   4.713  20.182  0.00  0.00    +0.000 A 
ATOM      9  C   UNL     1       1.862   4.039  21.398  0.00  0.00    +0.000 A 
ATOM     10  C   UNL     1       1.501   2.691  21.432  0.00  0.00    +0.000 A 
ATOM     11  C   UNL     1       1.175   2.027  20.252  0.00  0.00    +0.000 A 
ATOM     12  C   UNL     1       1.258   2.696  19.031  0.00  0.00    +0.000 A 
ATOM     13  C   UNL     1       1.687   4.029  18.990  0.00  0.00    +0.000 A 
ATOM     14  C   UNL     1       1.899   4.718  17.678  0.00  0.00    +0.000 C 
ENDBRANCH   3   5
BRANCH   1  15
ATOM     15  C   UNL     1       6.663   4.907  17.448  0.00  0.00    +0.000 C 
BRANCH  15  19
ATOM     16  C   UNL     1       8.129   8.105  17.959  0.00  0.00    +0.000 A 
ATOM     17  N   UNL     1       8.568   7.496  19.069  0.00  0.00    +0.000 NA
ATOM     18  O   UNL     1       8.128   6.179  18.903  0.00  0.00    +0.000 OA
ATOM     19  C   UNL     1       7.458   6.136  17.712  0.00  0.00    +0.000 A 
ATOM     20  N   UNL     1       7.449   7.291  17.083  0.00  0.00    +0.000 NA
BRANCH  16  21
ATOM     21  C   UNL     1       8.189   9.571  17.767  0.00  0.00    +0.000 C 
BRANCH  21  22
ATOM     22  C   UNL     1       9.086  10.193  18.834  0.00  0.00    +0.000 C 
BRANCH  22  24
ATOM     23  C   UNL     1      10.980  11.571  18.860  0.00  0.00    +0.000 C 
ATOM     24  O   UNL     1       9.649  11.421  18.375  0.00  0.00    +0.000 OA
ENDBRANCH  22  24
ENDBRANCH  21  22
ENDBRANCH  16  21
ENDBRANCH  15  19
ENDBRANCH   1  15
TORSDOF 6
ENDMDL
MODEL 3
REMARK VINA RESULT:      -7.5      1.005      1.214
REMARK  Name = 
REMARK  8 active torsions:
REMARK  status: ('A' for Active; 'I' for Inactive)
REMARK    1  A    between atoms: C_1  and  O_2
REMARK    2  A    between atoms: O_2  and  C_3
REMARK    3  A    between atoms: C_3  and  C_4
REMARK    4  A    between atoms: C_4  and  C_5
REMARK    5  A    between atoms: C_8  and  C_9
REMARK    6  A    between atoms: C_9  and  N_10
REMARK    7  A    between atoms: N_10  and  C_11
REMARK    8  A    between atoms: C_12  and  C_14
REMARK                            x       y       z     vdW  Elec       q    Type
REMARK                         _______ _______ _______ _____ _____    ______ ____
ROOT
ATOM      1  N   UNL     1       4.539   4.573  17.149  0.00  0.00    +0.000 N 
ATOM      2  C   UNL     1       3.699   3.469  16.707  0.00  0.00    +0.000 C 
ATOM      3  C   UNL     1       4.093   5.746  17.741  0.00  0.00    +0.000 C 
ATOM      4  O   UNL     1       4.931   6.559  18.137  0.00  0.00    +0.000 OA
ENDROOT
BRANCH   3   5
ATOM      5  C   UNL     1       2.593   6.103  17.763  0.00  0.00    +0.000 C 
ATOM      6  C   UNL     1       2.326   7.020  18.968  0.00  0.00    +0.000 C 
ATOM      7  O   UNL     1       2.494   6.379  20.241  0.00  0.00    +0.000 OA
ATOM      8  C   UNL     1       2.149   5.058  20.311  0.00  0.00    +0.000 A 
ATOM      9  C   UNL     1       2.348   4.429  21.538  0.00  0.00    +0.000 A 
ATOM     10  C   UNL     1       2.020   3.083  21.696  0.00  0.00    +0.000 A 
ATOM     11  C   UNL     1       1.456   2.374  20.638  0.00  0.00    +0.000 A 
ATOM     12  C   UNL     1       1.267   2.996  19.405  0.00  0.00    +0.000 A 
ATOM     13  C   UNL     1       1.661   4.328  19.225  0.00  0.00    +0.000 A 
ATOM     14  C   UNL     1       1.579   4.968  17.875  0.00  0.00    +0.000 C 
ENDBRANCH   3   5
BRANCH   1  15
ATOM     15  C   UNL     1       5.994   4.355  17.110  0.00  0.00    +0.000 C 
BRANCH  15  19
ATOM     16  C   UNL     1       6.863   4.413  13.664  0.00  0.00    +0.000 A 
ATOM     17  N   UNL     1       7.661   5.399  14.096  0.00  0.00    +0.000 NA
ATOM     18  O   UNL     1       7.469   5.378  15.481  0.00  0.00    +0.000 OA
ATOM     19  C   UNL     1       6.563   4.387  15.738  0.00  0.00    +0.000 A 
ATOM     20  N   UNL     1       6.176   3.749  14.654  0.00  0.00    +0.000 NA
BRANCH  16  21
ATOM     21  C   UNL     1       6.579   4.175  12.231  0.00  0.00    +0.000 C 
BRANCH  21  22
ATOM     22  C   UNL     1       6.694   2.684  11.926  0.00  0.00    +0.000 C 
BRANCH  22  24
ATOM     23  C   UNL     1       4.466   3.176  11.394  0.00  0.00    +0.000 C 
ATOM     24  O   UNL     1       5.426   2.137  11.566  0.00  0.00    +0.000 OA
ENDBRANCH  22  24
ENDBRANCH  21  22
ENDBRANCH  16  21
ENDBRANCH  15  19
ENDBRANCH   1  15
TORSDOF 6
ENDMDL
MODEL 4
REMARK VINA RESULT:      -7.4      0.925      1.064
REMARK  Name = 
REMARK  8 active torsions:
REMARK  status: ('A' for Active; 'I' for Inactive)
REMARK    1  A    between atoms: C_1  and  O_2
REMARK    2  A    between atoms: O_2  and  C_3
REMARK    3  A    between atoms: C_3  and  C_4
REMARK    4  A    between atoms: C_4  and  C_5
REMARK    5  A    between atoms: C_8  and  C_9
REMARK    6  A    between atoms: C_9  and  N_10
REMARK    7  A    between atoms: N_10  and  C_11
REMARK    8  A    between atoms: C_12  and  C_14
REMARK                            x       y       z     vdW  Elec       q    Type
REMARK                         _______ _______ _______ _____ _____    ______ ____
ROOT
ATOM      1  N   UNL     1       5.210   6.084  16.966  0.00  0.00    +0.000 N 
ATOM      2  C   UNL     1       4.752   6.780  15.772  0.00  0.00    +0.000 C 
ATOM      3  C   UNL     1       4.442   5.801  18.087  0.00  0.00    +0.000 C 
ATOM      4  O   UNL     1       4.947   5.132  18.990  0.00  0.00    +0.000 OA
ENDROOT
BRANCH   3   5
ATOM      5  C   UNL     1       3.049   6.436  18.274  0.00  0.00    +0.000 C 
ATOM      6  C   UNL     1       2.852   6.751  19.766  0.00  0.00    +0.000 C 
ATOM      7  O   UNL     1       2.759   5.588  20.602  0.00  0.00    +0.000 OA
ATOM      8  C   UNL     1       2.151   4.490  20.059  0.00  0.00    +0.000 A 
ATOM      9  C   UNL     1       2.097   3.352  20.861  0.00  0.00    +0.000 A 
ATOM     10  C   UNL     1       1.491   2.189  20.385  0.00  0.00    +0.000 A 
ATOM     11  C   UNL     1       0.905   2.175  19.121  0.00  0.00    +0.000 A 
ATOM     12  C   UNL     1       0.970   3.309  18.312  0.00  0.00    +0.000 A 
ATOM     13  C   UNL     1       1.639   4.454  18.761  0.00  0.00    +0.000 A 
ATOM     14  C   UNL     1       1.822   5.631  17.855  0.00  0.00    +0.000 C 
ENDBRANCH   3   5
BRANCH   1  15
ATOM     15  C   UNL     1       6.556   5.491  16.912  0.00  0.00    +0.000 C 
BRANCH  15  19
ATOM     16  C   UNL     1       6.916   4.211  13.615  0.00  0.00    +0.000 A 
ATOM     17  N   UNL     1       7.815   5.203  13.552  0.00  0.00    +0.000 NA
ATOM     18  O   UNL     1       7.826   5.704  14.857  0.00  0.00    +0.000 OA
ATOM     19  C   UNL     1       6.921   4.967  15.569  0.00  0.00    +0.000 A 
ATOM     20  N   UNL     1       6.350   4.022  14.854  0.00  0.00    +0.000 NA
BRANCH  16  21
ATOM     21  C   UNL     1       6.416   3.499  12.418  0.00  0.00    +0.000 C 
BRANCH  21  22
ATOM     22  C   UNL     1       4.891   3.557  12.387  0.00  0.00    +0.000 C 
BRANCH  22  24
ATOM     23  C   UNL     1       3.481   3.586  10.516  0.00  0.00    +0.000 C 
ATOM     24  O   UNL     1       4.373   2.796  11.296  0.00  0.00    +0.000 OA
ENDBRANCH  22  24
ENDBRANCH  21  22
ENDBRANCH  16  21
ENDBRANCH  15  19
ENDBRANCH   1  15
TORSDOF 6
ENDMDL
MODEL 5
REMARK VINA RESULT:      -7.3      1.502      2.110
REMARK  Name = 
REMARK  8 active torsions:
REMARK  status: ('A' for Active; 'I' for Inactive)
REMARK    1  A    between atoms: C_1  and  O_2
REMARK    2  A    between atoms: O_2  and  C_3
REMARK    3  A    between atoms: C_3  and  C_4
REMARK    4  A    between atoms: C_4  and  C_5
REMARK    5  A    between atoms: C_8  and  C_9
REMARK    6  A    between atoms: C_9  and  N_10
REMARK    7  A    between atoms: N_10  and  C_11
REMARK    8  A    between atoms: C_12  and  C_14
REMARK                            x       y       z     vdW  Elec       q    Type
REMARK                         _______ _______ _______ _____ _____    ______ ____
ROOT
ATOM      1  N   UNL     1       5.546   6.041  17.101  0.00  0.00    +0.000 N 
ATOM      2  C   UNL     1       6.897   6.276  17.589  0.00  0.00    +0.000 C 
ATOM      3  C   UNL     1       4.446   5.713  17.881  0.00  0.00    +0.000 C 
ATOM      4  O   UNL     1       3.345   5.622  17.334  0.00  0.00    +0.000 OA
ENDROOT
BRANCH   3   5
ATOM      5  C   UNL     1       4.614   5.316  19.361  0.00  0.00    +0.000 C 
ATOM      6  C   UNL     1       5.245   3.914  19.423  0.00  0.00    +0.000 C 
ATOM      7  O   UNL     1       4.394   2.867  18.933  0.00  0.00    +0.000 OA
ATOM      8  C   UNL     1       3.053   3.013  19.156  0.00  0.00    +0.000 A 
ATOM      9  C   UNL     1       2.227   2.013  18.647  0.00  0.00    +0.000 A 
ATOM     10  C   UNL     1       0.847   2.083  18.833  0.00  0.00    +0.000 A 
ATOM     11  C   UNL     1       0.294   3.133  19.563  0.00  0.00    +0.000 A 
ATOM     12  C   UNL     1       1.116   4.141  20.063  0.00  0.00    +0.000 A 
ATOM     13  C   UNL     1       2.495   4.109  19.817  0.00  0.00    +0.000 A 
ATOM     14  C   UNL     1       3.369   5.247  20.241  0.00  0.00    +0.000 C 
ENDBRANCH   3   5
BRANCH   1  15
ATOM     15  C   UNL     1       5.294   6.332  15.680  0.00  0.00    +0.000 C 
BRANCH  15  19
ATOM     16  C   UNL     1       6.218   3.969  13.191  0.00  0.00    +0.000 A 
ATOM     17  N   UNL     1       7.372   4.646  13.273  0.00  0.00    +0.000 NA
ATOM     18  O   UNL     1       7.140   5.541  14.322  0.00  0.00    +0.000 OA
ATOM     19  C   UNL     1       5.863   5.317  14.755  0.00  0.00    +0.000 A 
ATOM     20  N   UNL     1       5.261   4.345  14.105  0.00  0.00    +0.000 NA
BRANCH  16  21
ATOM     21  C   UNL     1       5.910   3.031  12.089  0.00  0.00    +0.000 C 
BRANCH  21  22
ATOM     22  C   UNL     1       4.422   3.100  11.757  0.00  0.00    +0.000 C 
BRANCH  22  24
ATOM     23  C   UNL     1       3.080   3.687   9.929  0.00  0.00    +0.000 C 
ATOM     24  O   UNL     1       4.167   4.087  10.758  0.00  0.00    +0.000 OA
ENDBRANCH  22  24
ENDBRANCH  21  22
ENDBRANCH  16  21
ENDBRANCH  15  19
ENDBRANCH   1  15
TORSDOF 6
ENDMDL
MODEL 6
REMARK VINA RESULT:      -7.3      3.188      5.291
REMARK  Name = 
REMARK  8 active torsions:
REMARK  status: ('A' for Active; 'I' for Inactive)
REMARK    1  A    between atoms: C_1  and  O_2
REMARK    2  A    between atoms: O_2  and  C_3
REMARK    3  A    between atoms: C_3  and  C_4
REMARK    4  A    between atoms: C_4  and  C_5
REMARK    5  A    between atoms: C_8  and  C_9
REMARK    6  A    between atoms: C_9  and  N_10
REMARK    7  A    between atoms: N_10  and  C_11
REMARK    8  A    between atoms: C_12  and  C_14
REMARK                            x       y       z     vdW  Elec       q    Type
REMARK                         _______ _______ _______ _____ _____    ______ ____
ROOT
ATOM      1  N   UNL     1       6.420   4.431  17.010  0.00  0.00    +0.000 N 
ATOM      2  C   UNL     1       6.467   4.413  15.555  0.00  0.00    +0.000 C 
ATOM      3  C   UNL     1       5.397   3.919  17.795  0.00  0.00    +0.000 C 
ATOM      4  O   UNL     1       5.533   3.935  19.020  0.00  0.00    +0.000 OA
ENDROOT
BRANCH   3   5
ATOM      5  C   UNL     1       4.056   3.486  17.168  0.00  0.00    +0.000 C 
ATOM      6  C   UNL     1       3.143   4.720  17.066  0.00  0.00    +0.000 C 
ATOM      7  O   UNL     1       2.719   5.241  18.334  0.00  0.00    +0.000 OA
ATOM      8  C   UNL     1       2.511   4.330  19.331  0.00  0.00    +0.000 A 
ATOM      9  C   UNL     1       2.135   4.843  20.571  0.00  0.00    +0.000 A 
ATOM     10  C   UNL     1       1.900   3.982  21.643  0.00  0.00    +0.000 A 
ATOM     11  C   UNL     1       2.002   2.605  21.466  0.00  0.00    +0.000 A 
ATOM     12  C   UNL     1       2.390   2.089  20.230  0.00  0.00    +0.000 A 
ATOM     13  C   UNL     1       2.694   2.955  19.173  0.00  0.00    +0.000 A 
ATOM     14  C   UNL     1       3.231   2.420  17.882  0.00  0.00    +0.000 C 
ENDBRANCH   3   5
BRANCH   1  15
ATOM     15  C   UNL     1       7.632   4.887  17.707  0.00  0.00    +0.000 C 
BRANCH  15  19
ATOM     16  C   UNL     1       8.247   8.333  18.333  0.00  0.00    +0.000 A 
ATOM     17  N   UNL     1       7.597   8.446  17.166  0.00  0.00    +0.000 NA
ATOM     18  O   UNL     1       7.210   7.131  16.890  0.00  0.00    +0.000 OA
ATOM     19  C   UNL     1       7.681   6.359  17.915  0.00  0.00    +0.000 A 
ATOM     20  N   UNL     1       8.307   7.055  18.839  0.00  0.00    +0.000 NA
BRANCH  16  21
ATOM     21  C   UNL     1       9.014   9.443  18.940  0.00  0.00    +0.000 C 
BRANCH  21  22
ATOM     22  C   UNL     1       8.892  10.689  18.066  0.00  0.00    +0.000 C 
BRANCH  22  24
ATOM     23  C   UNL     1       9.605  12.821  18.722  0.00  0.00    +0.000 C 
ATOM     24  O   UNL     1      10.019  11.547  18.240  0.00  0.00    +0.000 OA
ENDBRANCH  22  24
ENDBRANCH  21  22
ENDBRANCH  16  21
ENDBRANCH  15  19
ENDBRANCH   1  15
TORSDOF 6
ENDMDL
MODEL 7
REMARK VINA RESULT:      -7.2      1.506      2.136
REMARK  Name = 
REMARK  8 active torsions:
REMARK  status: ('A' for Active; 'I' for Inactive)
REMARK    1  A    between atoms: C_1  and  O_2
REMARK    2  A    between atoms: O_2  and  C_3
REMARK    3  A    between atoms: C_3  and  C_4
REMARK    4  A    between atoms: C_4  and  C_5
REMARK    5  A    between atoms: C_8  and  C_9
REMARK    6  A    between atoms: C_9  and  N_10
REMARK    7  A    between atoms: N_10  and  C_11
REMARK    8  A    between atoms: C_12  and  C_14
REMARK                            x       y       z     vdW  Elec       q    Type
REMARK                         _______ _______ _______ _____ _____    ______ ____
ROOT
ATOM      1  N   UNL     1       5.397   6.078  17.392  0.00  0.00    +0.000 N 
ATOM      2  C   UNL     1       6.745   6.152  17.937  0.00  0.00    +0.000 C 
ATOM      3  C   UNL     1       4.233   5.900  18.127  0.00  0.00    +0.000 C 
ATOM      4  O   UNL     1       3.154   5.939  17.534  0.00  0.00    +0.000 OA
ENDROOT
BRANCH   3   5
ATOM      5  C   UNL     1       4.289   5.507  19.617  0.00  0.00    +0.000 C 
ATOM      6  C   UNL     1       5.124   4.223  19.753  0.00  0.00    +0.000 C 
ATOM      7  O   UNL     1       4.516   3.064  19.166  0.00  0.00    +0.000 OA
ATOM      8  C   UNL     1       3.153   2.989  19.229  0.00  0.00    +0.000 A 
ATOM      9  C   UNL     1       2.563   1.881  18.625  0.00  0.00    +0.000 A 
ATOM     10  C   UNL     1       1.177   1.726  18.646  0.00  0.00    +0.000 A 
ATOM     11  C   UNL     1       0.382   2.660  19.305  0.00  0.00    +0.000 A 
ATOM     12  C   UNL     1       0.967   3.777  19.899  0.00  0.00    +0.000 A 
ATOM     13  C   UNL     1       2.352   3.970  19.818  0.00  0.00    +0.000 A 
ATOM     14  C   UNL     1       2.976   5.225  20.342  0.00  0.00    +0.000 C 
ENDBRANCH   3   5
BRANCH   1  15
ATOM     15  C   UNL     1       5.244   6.378  15.960  0.00  0.00    +0.000 C 
BRANCH  15  19
ATOM     16  C   UNL     1       6.744   4.297  13.499  0.00  0.00    +0.000 A 
ATOM     17  N   UNL     1       7.824   5.004  13.859  0.00  0.00    +0.000 NA
ATOM     18  O   UNL     1       7.352   5.786  14.918  0.00  0.00    +0.000 OA
ATOM     19  C   UNL     1       6.030   5.477  15.077  0.00  0.00    +0.000 A 
ATOM     20  N   UNL     1       5.614   4.550  14.241  0.00  0.00    +0.000 NA
BRANCH  16  21
ATOM     21  C   UNL     1       6.699   3.458  12.281  0.00  0.00    +0.000 C 
BRANCH  21  22
ATOM     22  C   UNL     1       5.247   3.188  11.897  0.00  0.00    +0.000 C 
BRANCH  22  24
ATOM     23  C   UNL     1       6.387   1.305  11.096  0.00  0.00    +0.000 C 
ATOM     24  O   UNL     1       5.109   1.902  11.294  0.00  0.00    +0.000 OA
ENDBRANCH  22  24
ENDBRANCH  21  22
ENDBRANCH  16  21
ENDBRANCH  15  19
ENDBRANCH   1  15
TORSDOF 6
ENDMDL
MODEL 8
REMARK VINA RESULT:      -7.0      3.504      5.915
REMARK  Name = 
REMARK  8 active torsions:
REMARK  status: ('A' for Active; 'I' for Inactive)
REMARK    1  A    between atoms: C_1  and  O_2
REMARK    2  A    between atoms: O_2  and  C_3
REMARK    3  A    between atoms: C_3  and  C_4
REMARK    4  A    between atoms: C_4  and  C_5
REMARK    5  A    between atoms: C_8  and  C_9
REMARK    6  A    between atoms: C_9  and  N_10
REMARK    7  A    between atoms: N_10  and  C_11
REMARK    8  A    between atoms: C_12  and  C_14
REMARK                            x       y       z     vdW  Elec       q    Type
REMARK                         _______ _______ _______ _____ _____    ______ ____
ROOT
ATOM      1  N   UNL     1       6.648   4.684  17.791  0.00  0.00    +0.000 N 
ATOM      2  C   UNL     1       6.708   4.248  16.404  0.00  0.00    +0.000 C 
ATOM      3  C   UNL     1       5.639   4.383  18.695  0.00  0.00    +0.000 C 
ATOM      4  O   UNL     1       5.766   4.757  19.862  0.00  0.00    +0.000 OA
ENDROOT
BRANCH   3   5
ATOM      5  C   UNL     1       4.320   3.737  18.224  0.00  0.00    +0.000 C 
ATOM      6  C   UNL     1       3.822   4.493  16.981  0.00  0.00    +0.000 C 
ATOM      7  O   UNL     1       3.412   5.843  17.242  0.00  0.00    +0.000 OA
ATOM      8  C   UNL     1       2.826   6.081  18.454  0.00  0.00    +0.000 A 
ATOM      9  C   UNL     1       2.462   7.400  18.719  0.00  0.00    +0.000 A 
ATOM     10  C   UNL     1       1.856   7.729  19.932  0.00  0.00    +0.000 A 
ATOM     11  C   UNL     1       1.578   6.733  20.865  0.00  0.00    +0.000 A 
ATOM     12  C   UNL     1       1.952   5.415  20.608  0.00  0.00    +0.000 A 
ATOM     13  C   UNL     1       2.624   5.095  19.421  0.00  0.00    +0.000 A 
ATOM     14  C   UNL     1       3.140   3.709  19.191  0.00  0.00    +0.000 C 
ENDBRANCH   3   5
BRANCH   1  15
ATOM     15  C   UNL     1       7.838   5.367  18.322  0.00  0.00    +0.000 C 
BRANCH  15  19
ATOM     16  C   UNL     1       8.193   8.895  18.066  0.00  0.00    +0.000 A 
ATOM     17  N   UNL     1       7.248   8.713  17.134  0.00  0.00    +0.000 NA
ATOM     18  O   UNL     1       6.957   7.350  17.239  0.00  0.00    +0.000 OA
ATOM     19  C   UNL     1       7.769   6.849  18.218  0.00  0.00    +0.000 A 
ATOM     20  N   UNL     1       8.534   7.765  18.772  0.00  0.00    +0.000 NA
BRANCH  16  21
ATOM     21  C   UNL     1       8.960  10.154  18.202  0.00  0.00    +0.000 C 
BRANCH  21  22
ATOM     22  C   UNL     1       9.344  10.365  19.664  0.00  0.00    +0.000 C 
BRANCH  22  24
ATOM     23  C   UNL     1      10.392  12.156  20.752  0.00  0.00    +0.000 C 
ATOM     24  O   UNL     1      10.542  11.134  19.771  0.00  0.00    +0.000 OA
ENDBRANCH  22  24
ENDBRANCH  21  22
ENDBRANCH  16  21
ENDBRANCH  15  19
ENDBRANCH   1  15
TORSDOF 6
ENDMDL
MODEL 9
REMARK VINA RESULT:      -6.9      2.460      4.512
REMARK  Name = 
REMARK  8 active torsions:
REMARK  status: ('A' for Active; 'I' for Inactive)
REMARK    1  A    between atoms: C_1  and  O_2
REMARK    2  A    between atoms: O_2  and  C_3
REMARK    3  A    between atoms: C_3  and  C_4
REMARK    4  A    between atoms: C_4  and  C_5
REMARK    5  A    between atoms: C_8  and  C_9
REMARK    6  A    between atoms: C_9  and  N_10
REMARK    7  A    between atoms: N_10  and  C_11
REMARK    8  A    between atoms: C_12  and  C_14
REMARK                            x       y       z     vdW  Elec       q    Type
REMARK                         _______ _______ _______ _____ _____    ______ ____
ROOT
ATOM      1  N   UNL     1       5.231   4.452  16.348  0.00  0.00    +0.000 N 
ATOM      2  C   UNL     1       4.934   4.886  14.990  0.00  0.00    +0.000 C 
ATOM      3  C   UNL     1       4.307   4.298  17.372  0.00  0.00    +0.000 C 
ATOM      4  O   UNL     1       4.697   3.845  18.450  0.00  0.00    +0.000 OA
ENDROOT
BRANCH   3   5
ATOM      5  C   UNL     1       2.865   4.824  17.225  0.00  0.00    +0.000 C 
ATOM      6  C   UNL     1       2.723   6.103  18.067  0.00  0.00    +0.000 C 
ATOM      7  O   UNL     1       2.814   5.885  19.482  0.00  0.00    +0.000 OA
ATOM      8  C   UNL     1       2.303   4.708  19.954  0.00  0.00    +0.000 A 
ATOM      9  C   UNL     1       2.426   4.484  21.324  0.00  0.00    +0.000 A 
ATOM     10  C   UNL     1       1.928   3.309  21.888  0.00  0.00    +0.000 A 
ATOM     11  C   UNL     1       1.274   2.375  21.090  0.00  0.00    +0.000 A 
ATOM     12  C   UNL     1       1.160   2.590  19.717  0.00  0.00    +0.000 A 
ATOM     13  C   UNL     1       1.721   3.736  19.138  0.00  0.00    +0.000 A 
ATOM     14  C   UNL     1       1.715   3.917  17.653  0.00  0.00    +0.000 C 
ENDBRANCH   3   5
BRANCH   1  15
ATOM     15  C   UNL     1       6.602   3.986  16.609  0.00  0.00    +0.000 C 
BRANCH  15  19
ATOM     16  C   UNL     1       8.133   6.578  18.500  0.00  0.00    +0.000 A 
ATOM     17  N   UNL     1       8.313   5.563  19.355  0.00  0.00    +0.000 NA
ATOM     18  O   UNL     1       7.835   4.459  18.643  0.00  0.00    +0.000 OA
ATOM     19  C   UNL     1       7.404   4.928  17.433  0.00  0.00    +0.000 A 
ATOM     20  N   UNL     1       7.586   6.224  17.289  0.00  0.00    +0.000 NA
BRANCH  16  21
ATOM     21  C   UNL     1       8.316   7.996  18.881  0.00  0.00    +0.000 C 
BRANCH  21  22
ATOM     22  C   UNL     1       8.102   8.888  17.660  0.00  0.00    +0.000 C 
BRANCH  22  24
ATOM     23  C   UNL     1       9.241  10.340  19.103  0.00  0.00    +0.000 C 
ATOM     24  O   UNL     1       8.383  10.252  17.969  0.00  0.00    +0.000 OA
ENDBRANCH  22  24
ENDBRANCH  21  22
ENDBRANCH  16  21
ENDBRANCH  15  19
ENDBRANCH   1  15
TORSDOF 6
ENDMDL
