MODEL 1
REMARK VINA RESULT:      -6.9      0.000      0.000
REMARK  Name = 
REMARK  4 active torsions:
REMARK  status: ('A' for Active; 'I' for Inactive)
REMARK    1  A    between atoms: C_1  and  N_2
REMARK    2  A    between atoms: C_7  and  O_8
REMARK    3  A    between atoms: C_9  and  O_10
REMARK    4  A    between atoms: C_13  and  C_14
REMARK                            x       y       z     vdW  Elec       q    Type
REMARK                         _______ _______ _______ _____ _____    ______ ____
ROOT
ATOM      1  C   UNL     1       2.232   9.189  17.749  0.00  0.00    +0.000 C 
ATOM      2  N   UNL     1       2.747   7.929  18.312  0.00  0.00    +0.000 NA
ATOM      3  C   UNL     1       2.085   7.688  19.608  0.00  0.00    +0.000 C 
ATOM      4  C   UNL     1       2.794   6.632  20.446  0.00  0.00    +0.000 C 
ATOM      5  C   UNL     1       2.450   5.237  19.993  0.00  0.00    +0.000 A 
ATOM      6  C   UNL     1       1.743   4.422  20.896  0.00  0.00    +0.000 A 
ATOM      7  C   UNL     1       1.323   3.139  20.542  0.00  0.00    +0.000 A 
ATOM      8  C   UNL     1       1.619   2.646  19.264  0.00  0.00    +0.000 A 
ATOM      9  C   UNL     1       2.335   3.440  18.360  0.00  0.00    +0.000 A 
ATOM     10  C   UNL     1       2.760   4.747  18.701  0.00  0.00    +0.000 A 
ATOM     11  C   UNL     1       3.457   5.592  17.630  0.00  0.00    +0.000 C 
ATOM     12  C   UNL     1       2.586   6.837  17.323  0.00  0.00    +0.000 C 
ENDROOT
BRANCH  11  13
ATOM     13  C   UNL     1       4.924   5.979  17.876  0.00  0.00    +0.000 A 
ATOM     14  C   UNL     1       5.601   6.955  17.114  0.00  0.00    +0.000 A 
ATOM     15  C   UNL     1       6.949   7.250  17.363  0.00  0.00    +0.000 A 
ATOM     16  C   UNL     1       7.639   6.585  18.378  0.00  0.00    +0.000 A 
ATOM     17  C   UNL     1       6.984   5.638  19.159  0.00  0.00    +0.000 A 
ATOM     18  C   UNL     1       5.639   5.341  18.917  0.00  0.00    +0.000 A 
ENDBRANCH  11  13
BRANCH   7  19
ATOM     19  O   UNL     1       0.619   2.391  21.416  0.00  0.00    +0.000 OA
ATOM     20  H   UNL     1      -0.021   2.781  22.030  0.00  0.00    +0.000 HD
ENDBRANCH   7  19
BRANCH   8  21
ATOM     21  O   UNL     1       1.207   1.417  18.884  0.00  0.00    +0.000 OA
ATOM     22  H   UNL     1       1.642   0.913  18.181  0.00  0.00    +0.000 HD
ENDBRANCH   8  21
TORSDOF 3
ENDMDL
MODEL 2
REMARK VINA RESULT:      -6.9      0.082      1.083
REMARK  Name = 
REMARK  4 active torsions:
REMARK  status: ('A' for Active; 'I' for Inactive)
REMARK    1  A    between atoms: C_1  and  N_2
REMARK    2  A    between atoms: C_7  and  O_8
REMARK    3  A    between atoms: C_9  and  O_10
REMARK    4  A    between atoms: C_13  and  C_14
REMARK                            x       y       z     vdW  Elec       q    Type
REMARK                         _______ _______ _______ _____ _____    ______ ____
ROOT
ATOM      1  C   UNL     1       2.251   9.160  17.803  0.00  0.00    +0.000 C 
ATOM      2  N   UNL     1       2.753   7.888  18.349  0.00  0.00    +0.000 NA
ATOM      3  C   UNL     1       2.091   7.639  19.643  0.00  0.00    +0.000 C 
ATOM      4  C   UNL     1       2.790   6.565  20.467  0.00  0.00    +0.000 C 
ATOM      5  C   UNL     1       2.430   5.179  19.997  0.00  0.00    +0.000 A 
ATOM      6  C   UNL     1       1.716   4.360  20.892  0.00  0.00    +0.000 A 
ATOM      7  C   UNL     1       1.282   3.087  20.522  0.00  0.00    +0.000 A 
ATOM      8  C   UNL     1       1.570   2.606  19.237  0.00  0.00    +0.000 A 
ATOM      9  C   UNL     1       2.292   3.403  18.342  0.00  0.00    +0.000 A 
ATOM     10  C   UNL     1       2.732   4.701  18.698  0.00  0.00    +0.000 A 
ATOM     11  C   UNL     1       3.436   5.552  17.636  0.00  0.00    +0.000 C 
ATOM     12  C   UNL     1       2.578   6.810  17.346  0.00  0.00    +0.000 C 
ENDROOT
BRANCH  11  13
ATOM     13  C   UNL     1       4.908   5.920  17.883  0.00  0.00    +0.000 A 
ATOM     14  C   UNL     1       5.695   5.316  18.886  0.00  0.00    +0.000 A 
ATOM     15  C   UNL     1       7.025   5.711  19.088  0.00  0.00    +0.000 A 
ATOM     16  C   UNL     1       7.593   6.704  18.290  0.00  0.00    +0.000 A 
ATOM     17  C   UNL     1       6.843   7.295  17.277  0.00  0.00    +0.000 A 
ATOM     18  C   UNL     1       5.517   6.904  17.069  0.00  0.00    +0.000 A 
ENDBRANCH  11  13
BRANCH   7  19
ATOM     19  O   UNL     1       0.571   2.335  21.389  0.00  0.00    +0.000 OA
ATOM     20  H   UNL     1      -0.375   2.166  21.268  0.00  0.00    +0.000 HD
ENDBRANCH   7  19
BRANCH   8  21
ATOM     21  O   UNL     1       1.143   1.387  18.843  0.00  0.00    +0.000 OA
ATOM     22  H   UNL     1       1.340   0.578  19.338  0.00  0.00    +0.000 HD
ENDBRANCH   8  21
TORSDOF 3
ENDMDL
MODEL 3
REMARK VINA RESULT:      -6.8      3.126      5.271
REMARK  Name = 
REMARK  4 active torsions:
REMARK  status: ('A' for Active; 'I' for Inactive)
REMARK    1  A    between atoms: C_1  and  N_2
REMARK    2  A    between atoms: C_7  and  O_8
REMARK    3  A    between atoms: C_9  and  O_10
REMARK    4  A    between atoms: C_13  and  C_14
REMARK                            x       y       z     vdW  Elec       q    Type
REMARK                         _______ _______ _______ _____ _____    ______ ____
ROOT
ATOM      1  C   UNL     1       0.853   2.955  19.474  0.00  0.00    +0.000 C 
ATOM      2  N   UNL     1       1.926   3.939  19.249  0.00  0.00    +0.000 NA
ATOM      3  C   UNL     1       3.195   3.370  19.741  0.00  0.00    +0.000 C 
ATOM      4  C   UNL     1       4.287   4.419  19.904  0.00  0.00    +0.000 C 
ATOM      5  C   UNL     1       4.932   4.761  18.586  0.00  0.00    +0.000 A 
ATOM      6  C   UNL     1       6.293   4.434  18.430  0.00  0.00    +0.000 A 
ATOM      7  C   UNL     1       6.958   4.653  17.224  0.00  0.00    +0.000 A 
ATOM      8  C   UNL     1       6.263   5.219  16.146  0.00  0.00    +0.000 A 
ATOM      9  C   UNL     1       4.915   5.564  16.291  0.00  0.00    +0.000 A 
ATOM     10  C   UNL     1       4.222   5.340  17.506  0.00  0.00    +0.000 A 
ATOM     11  C   UNL     1       2.724   5.657  17.563  0.00  0.00    +0.000 C 
ATOM     12  C   UNL     1       1.941   4.345  17.824  0.00  0.00    +0.000 C 
ENDROOT
BRANCH  11  13
ATOM     13  C   UNL     1       2.272   6.779  18.511  0.00  0.00    +0.000 A 
ATOM     14  C   UNL     1       2.059   6.582  19.892  0.00  0.00    +0.000 A 
ATOM     15  C   UNL     1       1.618   7.634  20.706  0.00  0.00    +0.000 A 
ATOM     16  C   UNL     1       1.392   8.899  20.161  0.00  0.00    +0.000 A 
ATOM     17  C   UNL     1       1.621   9.123  18.807  0.00  0.00    +0.000 A 
ATOM     18  C   UNL     1       2.062   8.077  17.989  0.00  0.00    +0.000 A 
ENDBRANCH  11  13
BRANCH   7  19
ATOM     19  O   UNL     1       8.253   4.299  17.090  0.00  0.00    +0.000 OA
ATOM     20  H   UNL     1       8.755   3.900  17.816  0.00  0.00    +0.000 HD
ENDBRANCH   7  19
BRANCH   8  21
ATOM     21  O   UNL     1       6.874   5.421  14.959  0.00  0.00    +0.000 OA
ATOM     22  H   UNL     1       7.822   5.272  14.825  0.00  0.00    +0.000 HD
ENDBRANCH   8  21
TORSDOF 3
ENDMDL
MODEL 4
REMARK VINA RESULT:      -6.6      2.945      5.479
REMARK  Name = 
REMARK  4 active torsions:
REMARK  status: ('A' for Active; 'I' for Inactive)
REMARK    1  A    between atoms: C_1  and  N_2
REMARK    2  A    between atoms: C_7  and  O_8
REMARK    3  A    between atoms: C_9  and  O_10
REMARK    4  A    between atoms: C_13  and  C_14
REMARK                            x       y       z     vdW  Elec       q    Type
REMARK                         _______ _______ _______ _____ _____    ______ ____
ROOT
ATOM      1  C   UNL     1       1.925   7.947  20.141  0.00  0.00    +0.000 C 
ATOM      2  N   UNL     1       2.507   6.862  19.331  0.00  0.00    +0.000 NA
ATOM      3  C   UNL     1       2.906   7.415  18.024  0.00  0.00    +0.000 C 
ATOM      4  C   UNL     1       3.170   6.335  16.982  0.00  0.00    +0.000 C 
ATOM      5  C   UNL     1       4.532   5.715  17.155  0.00  0.00    +0.000 A 
ATOM      6  C   UNL     1       5.465   5.907  16.119  0.00  0.00    +0.000 A 
ATOM      7  C   UNL     1       6.771   5.427  16.218  0.00  0.00    +0.000 A 
ATOM      8  C   UNL     1       7.163   4.730  17.369  0.00  0.00    +0.000 A 
ATOM      9  C   UNL     1       6.242   4.517  18.401  0.00  0.00    +0.000 A 
ATOM     10  C   UNL     1       4.916   5.005  18.320  0.00  0.00    +0.000 A 
ATOM     11  C   UNL     1       3.991   4.816  19.527  0.00  0.00    +0.000 C 
ATOM     12  C   UNL     1       3.601   6.207  20.087  0.00  0.00    +0.000 C 
ENDROOT
BRANCH  11  13
ATOM     13  C   UNL     1       2.757   3.918  19.341  0.00  0.00    +0.000 A 
ATOM     14  C   UNL     1       1.617   3.996  20.168  0.00  0.00    +0.000 A 
ATOM     15  C   UNL     1       0.529   3.133  19.972  0.00  0.00    +0.000 A 
ATOM     16  C   UNL     1       0.558   2.188  18.946  0.00  0.00    +0.000 A 
ATOM     17  C   UNL     1       1.661   2.111  18.102  0.00  0.00    +0.000 A 
ATOM     18  C   UNL     1       2.748   2.971  18.291  0.00  0.00    +0.000 A 
ENDBRANCH  11  13
BRANCH   7  19
ATOM     19  O   UNL     1       7.654   5.654  15.223  0.00  0.00    +0.000 OA
ATOM     20  H   UNL     1       8.349   5.019  14.996  0.00  0.00    +0.000 HD
ENDBRANCH   7  19
BRANCH   8  21
ATOM     21  O   UNL     1       8.427   4.273  17.504  0.00  0.00    +0.000 OA
ATOM     22  H   UNL     1       8.985   4.494  18.264  0.00  0.00    +0.000 HD
ENDBRANCH   8  21
TORSDOF 3
ENDMDL
MODEL 5
REMARK VINA RESULT:      -6.6      2.747      3.914
REMARK  Name = 
REMARK  4 active torsions:
REMARK  status: ('A' for Active; 'I' for Inactive)
REMARK    1  A    between atoms: C_1  and  N_2
REMARK    2  A    between atoms: C_7  and  O_8
REMARK    3  A    between atoms: C_9  and  O_10
REMARK    4  A    between atoms: C_13  and  C_14
REMARK                            x       y       z     vdW  Elec       q    Type
REMARK                         _______ _______ _______ _____ _____    ______ ____
ROOT
ATOM      1  C   UNL     1       7.821   7.987  17.541  0.00  0.00    +0.000 C 
ATOM      2  N   UNL     1       7.056   6.746  17.332  0.00  0.00    +0.000 NA
ATOM      3  C   UNL     1       7.218   5.889  18.522  0.00  0.00    +0.000 C 
ATOM      4  C   UNL     1       6.790   4.448  18.274  0.00  0.00    +0.000 C 
ATOM      5  C   UNL     1       5.293   4.292  18.346  0.00  0.00    +0.000 A 
ATOM      6  C   UNL     1       4.777   3.491  19.382  0.00  0.00    +0.000 A 
ATOM      7  C   UNL     1       3.403   3.341  19.568  0.00  0.00    +0.000 A 
ATOM      8  C   UNL     1       2.515   3.991  18.700  0.00  0.00    +0.000 A 
ATOM      9  C   UNL     1       3.013   4.778  17.656  0.00  0.00    +0.000 A 
ATOM     10  C   UNL     1       4.405   4.948  17.459  0.00  0.00    +0.000 A 
ATOM     11  C   UNL     1       4.876   5.898  16.352  0.00  0.00    +0.000 C 
ATOM     12  C   UNL     1       5.650   7.076  16.995  0.00  0.00    +0.000 C 
ENDROOT
BRANCH  11  13
ATOM     13  C   UNL     1       5.657   5.286  15.178  0.00  0.00    +0.000 A 
ATOM     14  C   UNL     1       6.940   5.728  14.793  0.00  0.00    +0.000 A 
ATOM     15  C   UNL     1       7.596   5.154  13.695  0.00  0.00    +0.000 A 
ATOM     16  C   UNL     1       6.989   4.127  12.971  0.00  0.00    +0.000 A 
ATOM     17  C   UNL     1       5.734   3.658  13.349  0.00  0.00    +0.000 A 
ATOM     18  C   UNL     1       5.076   4.225  14.444  0.00  0.00    +0.000 A 
ENDBRANCH  11  13
BRANCH   7  19
ATOM     19  O   UNL     1       2.935   2.594  20.590  0.00  0.00    +0.000 OA
ATOM     20  H   UNL     1       2.286   2.936  21.223  0.00  0.00    +0.000 HD
ENDBRANCH   7  19
BRANCH   8  21
ATOM     21  O   UNL     1       1.179   3.882  18.869  0.00  0.00    +0.000 OA
ATOM     22  H   UNL     1       0.602   4.651  18.987  0.00  0.00    +0.000 HD
ENDBRANCH   8  21
TORSDOF 3
ENDMDL
MODEL 6
REMARK VINA RESULT:      -6.6      2.947      5.455
REMARK  Name = 
REMARK  4 active torsions:
REMARK  status: ('A' for Active; 'I' for Inactive)
REMARK    1  A    between atoms: C_1  and  N_2
REMARK    2  A    between atoms: C_7  and  O_8
REMARK    3  A    between atoms: C_9  and  O_10
REMARK    4  A    between atoms: C_13  and  C_14
REMARK                            x       y       z     vdW  Elec       q    Type
REMARK                         _______ _______ _______ _____ _____    ______ ____
ROOT
ATOM      1  C   UNL     1       1.935   7.920  20.148  0.00  0.00    +0.000 C 
ATOM      2  N   UNL     1       2.519   6.830  19.347  0.00  0.00    +0.000 NA
ATOM      3  C   UNL     1       2.908   7.371  18.031  0.00  0.00    +0.000 C 
ATOM      4  C   UNL     1       3.172   6.282  17.000  0.00  0.00    +0.000 C 
ATOM      5  C   UNL     1       4.539   5.672  17.171  0.00  0.00    +0.000 A 
ATOM      6  C   UNL     1       5.464   5.860  16.127  0.00  0.00    +0.000 A 
ATOM      7  C   UNL     1       6.774   5.388  16.224  0.00  0.00    +0.000 A 
ATOM      8  C   UNL     1       7.176   4.705  17.379  0.00  0.00    +0.000 A 
ATOM      9  C   UNL     1       6.263   4.497  18.419  0.00  0.00    +0.000 A 
ATOM     10  C   UNL     1       4.933   4.977  18.340  0.00  0.00    +0.000 A 
ATOM     11  C   UNL     1       4.017   4.794  19.555  0.00  0.00    +0.000 C 
ATOM     12  C   UNL     1       3.621   6.189  20.103  0.00  0.00    +0.000 C 
ENDROOT
BRANCH  11  13
ATOM     13  C   UNL     1       2.787   3.888  19.385  0.00  0.00    +0.000 A 
ATOM     14  C   UNL     1       2.638   2.985  18.311  0.00  0.00    +0.000 A 
ATOM     15  C   UNL     1       1.481   2.202  18.189  0.00  0.00    +0.000 A 
ATOM     16  C   UNL     1       0.462   2.299  19.138  0.00  0.00    +0.000 A 
ATOM     17  C   UNL     1       0.600   3.163  20.220  0.00  0.00    +0.000 A 
ATOM     18  C   UNL     1       1.752   3.945  20.348  0.00  0.00    +0.000 A 
ENDBRANCH  11  13
BRANCH   7  19
ATOM     19  O   UNL     1       7.650   5.611  15.222  0.00  0.00    +0.000 OA
ATOM     20  H   UNL     1       7.371   5.958  14.361  0.00  0.00    +0.000 HD
ENDBRANCH   7  19
BRANCH   8  21
ATOM     21  O   UNL     1       8.444   4.257  17.511  0.00  0.00    +0.000 OA
ATOM     22  H   UNL     1       8.910   3.787  16.804  0.00  0.00    +0.000 HD
ENDBRANCH   8  21
TORSDOF 3
ENDMDL
MODEL 7
REMARK VINA RESULT:      -6.4      3.131      5.155
REMARK  Name = 
REMARK  4 active torsions:
REMARK  status: ('A' for Active; 'I' for Inactive)
REMARK    1  A    between atoms: C_1  and  N_2
REMARK    2  A    between atoms: C_7  and  O_8
REMARK    3  A    between atoms: C_9  and  O_10
REMARK    4  A    between atoms: C_13  and  C_14
REMARK                            x       y       z     vdW  Elec       q    Type
REMARK                         _______ _______ _______ _____ _____    ______ ____
ROOT
ATOM      1  C   UNL     1       0.875   2.927  19.522  0.00  0.00    +0.000 C 
ATOM      2  N   UNL     1       1.937   3.918  19.277  0.00  0.00    +0.000 NA
ATOM      3  C   UNL     1       3.214   3.369  19.770  0.00  0.00    +0.000 C 
ATOM      4  C   UNL     1       4.297   4.431  19.912  0.00  0.00    +0.000 C 
ATOM      5  C   UNL     1       4.931   4.762  18.586  0.00  0.00    +0.000 A 
ATOM      6  C   UNL     1       6.294   4.447  18.426  0.00  0.00    +0.000 A 
ATOM      7  C   UNL     1       6.950   4.655  17.213  0.00  0.00    +0.000 A 
ATOM      8  C   UNL     1       6.244   5.199  16.132  0.00  0.00    +0.000 A 
ATOM      9  C   UNL     1       4.893   5.533  16.281  0.00  0.00    +0.000 A 
ATOM     10  C   UNL     1       4.209   5.319  17.502  0.00  0.00    +0.000 A 
ATOM     11  C   UNL     1       2.708   5.621  17.563  0.00  0.00    +0.000 C 
ATOM     12  C   UNL     1       1.940   4.305  17.846  0.00  0.00    +0.000 C 
ENDROOT
BRANCH  11  13
ATOM     13  C   UNL     1       2.250   6.751  18.498  0.00  0.00    +0.000 A 
ATOM     14  C   UNL     1       2.037   8.075  18.059  0.00  0.00    +0.000 A 
ATOM     15  C   UNL     1       1.647   9.075  18.962  0.00  0.00    +0.000 A 
ATOM     16  C   UNL     1       1.453   8.770  20.310  0.00  0.00    +0.000 A 
ATOM     17  C   UNL     1       1.631   7.465  20.759  0.00  0.00    +0.000 A 
ATOM     18  C   UNL     1       2.019   6.463  19.864  0.00  0.00    +0.000 A 
ENDBRANCH  11  13
BRANCH   7  19
ATOM     19  O   UNL     1       8.249   4.313  17.078  0.00  0.00    +0.000 OA
ATOM     20  H   UNL     1       8.538   3.625  16.461  0.00  0.00    +0.000 HD
ENDBRANCH   7  19
BRANCH   8  21
ATOM     21  O   UNL     1       6.846   5.392  14.939  0.00  0.00    +0.000 OA
ATOM     22  H   UNL     1       6.435   5.894  14.219  0.00  0.00    +0.000 HD
ENDBRANCH   8  21
TORSDOF 3
ENDMDL
MODEL 8
REMARK VINA RESULT:      -6.3      2.739      3.941
REMARK  Name = 
REMARK  4 active torsions:
REMARK  status: ('A' for Active; 'I' for Inactive)
REMARK    1  A    between atoms: C_1  and  N_2
REMARK    2  A    between atoms: C_7  and  O_8
REMARK    3  A    between atoms: C_9  and  O_10
REMARK    4  A    between atoms: C_13  and  C_14
REMARK                            x       y       z     vdW  Elec       q    Type
REMARK                         _______ _______ _______ _____ _____    ______ ____
ROOT
ATOM      1  C   UNL     1       7.823   7.943  17.493  0.00  0.00    +0.000 C 
ATOM      2  N   UNL     1       7.041   6.709  17.303  0.00  0.00    +0.000 NA
ATOM      3  C   UNL     1       7.213   5.855  18.494  0.00  0.00    +0.000 C 
ATOM      4  C   UNL     1       6.765   4.418  18.260  0.00  0.00    +0.000 C 
ATOM      5  C   UNL     1       5.268   4.279  18.357  0.00  0.00    +0.000 A 
ATOM      6  C   UNL     1       4.760   3.489  19.405  0.00  0.00    +0.000 A 
ATOM      7  C   UNL     1       3.388   3.354  19.615  0.00  0.00    +0.000 A 
ATOM      8  C   UNL     1       2.493   4.010  18.758  0.00  0.00    +0.000 A 
ATOM      9  C   UNL     1       2.982   4.786  17.702  0.00  0.00    +0.000 A 
ATOM     10  C   UNL     1       4.372   4.941  17.481  0.00  0.00    +0.000 A 
ATOM     11  C   UNL     1       4.836   5.880  16.363  0.00  0.00    +0.000 C 
ATOM     12  C   UNL     1       5.634   7.053  16.987  0.00  0.00    +0.000 C 
ENDROOT
BRANCH  11  13
ATOM     13  C   UNL     1       5.591   5.255  15.179  0.00  0.00    +0.000 A 
ATOM     14  C   UNL     1       5.078   4.182  14.419  0.00  0.00    +0.000 A 
ATOM     15  C   UNL     1       5.822   3.630  13.367  0.00  0.00    +0.000 A 
ATOM     16  C   UNL     1       7.080   4.143  13.049  0.00  0.00    +0.000 A 
ATOM     17  C   UNL     1       7.594   5.219  13.768  0.00  0.00    +0.000 A 
ATOM     18  C   UNL     1       6.856   5.775  14.818  0.00  0.00    +0.000 A 
ENDBRANCH  11  13
BRANCH   7  19
ATOM     19  O   UNL     1       2.929   2.617  20.648  0.00  0.00    +0.000 OA
ATOM     20  H   UNL     1       3.500   2.012  21.143  0.00  0.00    +0.000 HD
ENDBRANCH   7  19
BRANCH   8  21
ATOM     21  O   UNL     1       1.159   3.917  18.949  0.00  0.00    +0.000 OA
ATOM     22  H   UNL     1       0.617   4.668  19.232  0.00  0.00    +0.000 HD
ENDBRANCH   8  21
TORSDOF 3
ENDMDL
MODEL 9
REMARK VINA RESULT:      -6.2      2.850      5.421
REMARK  Name = 
REMARK  4 active torsions:
REMARK  status: ('A' for Active; 'I' for Inactive)
REMARK    1  A    between atoms: C_1  and  N_2
REMARK    2  A    between atoms: C_7  and  O_8
REMARK    3  A    between atoms: C_9  and  O_10
REMARK    4  A    between atoms: C_13  and  C_14
REMARK                            x       y       z     vdW  Elec       q    Type
REMARK                         _______ _______ _______ _____ _____    ______ ____
ROOT
ATOM      1  C   UNL     1       1.046   7.817  20.574  0.00  0.00    +0.000 C 
ATOM      2  N   UNL     1       1.900   6.912  19.786  0.00  0.00    +0.000 NA
ATOM      3  C   UNL     1       2.426   7.656  18.625  0.00  0.00    +0.000 C 
ATOM      4  C   UNL     1       3.007   6.744  17.553  0.00  0.00    +0.000 C 
ATOM      5  C   UNL     1       4.397   6.282  17.908  0.00  0.00    +0.000 A 
ATOM      6  C   UNL     1       5.450   6.707  17.075  0.00  0.00    +0.000 A 
ATOM      7  C   UNL     1       6.777   6.385  17.360  0.00  0.00    +0.000 A 
ATOM      8  C   UNL     1       7.071   5.614  18.494  0.00  0.00    +0.000 A 
ATOM      9  C   UNL     1       6.033   5.172  19.323  0.00  0.00    +0.000 A 
ATOM     10  C   UNL     1       4.682   5.497  19.052  0.00  0.00    +0.000 A 
ATOM     11  C   UNL     1       3.609   5.057  20.054  0.00  0.00    +0.000 C 
ATOM     12  C   UNL     1       2.938   6.316  20.660  0.00  0.00    +0.000 C 
ENDROOT
BRANCH  11  13
ATOM     13  C   UNL     1       2.562   4.041  19.570  0.00  0.00    +0.000 A 
ATOM     14  C   UNL     1       2.747   3.227  18.432  0.00  0.00    +0.000 A 
ATOM     15  C   UNL     1       1.746   2.336  18.019  0.00  0.00    +0.000 A 
ATOM     16  C   UNL     1       0.554   2.235  18.736  0.00  0.00    +0.000 A 
ATOM     17  C   UNL     1       0.361   3.009  19.877  0.00  0.00    +0.000 A 
ATOM     18  C   UNL     1       1.356   3.898  20.296  0.00  0.00    +0.000 A 
ENDBRANCH  11  13
BRANCH   7  19
ATOM     19  O   UNL     1       7.769   6.832  16.563  0.00  0.00    +0.000 OA
ATOM     20  H   UNL     1       8.329   6.231  16.050  0.00  0.00    +0.000 HD
ENDBRANCH   7  19
BRANCH   8  21
ATOM     21  O   UNL     1       8.347   5.306  18.808  0.00  0.00    +0.000 OA
ATOM     22  H   UNL     1       8.578   4.714  19.540  0.00  0.00    +0.000 HD
ENDBRANCH   8  21
TORSDOF 3
ENDMDL
