MODEL 1
REMARK VINA RESULT:      -8.0      0.000      0.000
REMARK  Name = 
REMARK  12 active torsions:
REMARK  status: ('A' for Active; 'I' for Inactive)
REMARK    1  A    between atoms: C_1  and  O_2
REMARK    2  A    between atoms: O_2  and  P_3
REMARK    3  A    between atoms: P_3  and  C_5
REMARK    4  A    between atoms: P_3  and  O_31
REMARK    5  A    between atoms: C_6  and  C_7
REMARK    6  A    between atoms: C_9  and  C_10
REMARK    7  A    between atoms: C_10  and  O_12
REMARK    8  A    between atoms: O_12  and  C_13
REMARK    9  A    between atoms: C_13  and  C_14
REMARK   10  A    between atoms: N_20  and  S_21
REMARK   11  A    between atoms: S_21  and  C_24
REMARK   12  A    between atoms: O_31  and  C_32
REMARK                            x       y       z     vdW  Elec       q    Type
REMARK                         _______ _______ _______ _____ _____    ______ ____
ROOT
ATOM      1  C   UNL     1       2.975   7.691  17.767  0.00  0.00    +0.000 A 
ATOM      2  C   UNL     1       4.305   7.906  17.316  0.00  0.00    +0.000 A 
ATOM      3  C   UNL     1       5.032   6.723  17.453  0.00  0.00    +0.000 A 
ATOM      4  N   UNL     1       4.142   5.798  17.952  0.00  0.00    +0.000 N 
ATOM      5  C   UNL     1       2.894   6.360  18.122  0.00  0.00    +0.000 A 
ENDROOT
BRANCH   4   6
ATOM      6  S   UNL     1       4.521   4.195  18.433  0.00  0.00    +0.000 S 
ATOM      7  O   UNL     1       4.595   3.429  17.205  0.00  0.00    +0.000 OA
ATOM      8  O   UNL     1       5.672   4.316  19.313  0.00  0.00    +0.000 OA
BRANCH   6   9
ATOM      9  C   UNL     1       3.163   3.652  19.431  0.00  0.00    +0.000 A 
ATOM     10  C   UNL     1       2.242   2.729  18.922  0.00  0.00    +0.000 A 
ATOM     11  C   UNL     1       1.193   2.284  19.727  0.00  0.00    +0.000 A 
ATOM     12  C   UNL     1       1.073   2.744  21.041  0.00  0.00    +0.000 A 
ATOM     13  C   UNL     1       2.013   3.641  21.555  0.00  0.00    +0.000 A 
ATOM     14  C   UNL     1       3.062   4.093  20.755  0.00  0.00    +0.000 A 
ENDBRANCH   6   9
ENDBRANCH   4   6
BRANCH   1  16
ATOM     15  C   UNL     1       1.376   9.127  19.025  0.00  0.00    +0.000 C 
ATOM     16  C   UNL     1       1.951   8.691  17.885  0.00  0.00    +0.000 C 
BRANCH  15  17
ATOM     17  P   UNL     1       0.158  10.509  19.119  0.00  0.00    +0.000 P 
ATOM     18  O   UNL     1      -1.200  10.214  19.774  0.00  0.00    +0.000 OA
BRANCH  17  20
ATOM     19  C   UNL     1      -1.886   9.976  17.462  0.00  0.00    +0.000 C 
ATOM     20  O   UNL     1      -0.481  10.018  17.589  0.00  0.00    +0.000 OA
ENDBRANCH  17  20
BRANCH  17  21
ATOM     21  O   UNL     1       0.798  11.000  20.650  0.00  0.00    +0.000 OA
ATOM     22  C   UNL     1       0.045  10.573  21.770  0.00  0.00    +0.000 C 
ENDBRANCH  17  21
ENDBRANCH  15  17
ENDBRANCH   1  16
BRANCH   3  23
ATOM     23  C   UNL     1       6.429   6.496  17.176  0.00  0.00    +0.000 C 
ATOM     24  O   UNL     1       7.335   6.595  17.989  0.00  0.00    +0.000 OA
BRANCH  23  25
ATOM     25  O   UNL     1       6.566   6.140  15.874  0.00  0.00    +0.000 OA
BRANCH  25  26
ATOM     26  C   UNL     1       7.107   4.841  15.611  0.00  0.00    +0.000 C 
BRANCH  26  27
ATOM     27  C   UNL     1       6.862   4.510  14.162  0.00  0.00    +0.000 A 
ATOM     28  C   UNL     1       5.828   3.639  13.789  0.00  0.00    +0.000 A 
ATOM     29  C   UNL     1       5.626   3.317  12.447  0.00  0.00    +0.000 A 
ATOM     30  C   UNL     1       6.459   3.853  11.467  0.00  0.00    +0.000 A 
ATOM     31  C   UNL     1       7.497   4.710  11.828  0.00  0.00    +0.000 A 
ATOM     32  C   UNL     1       7.700   5.035  13.170  0.00  0.00    +0.000 A 
ENDBRANCH  26  27
ENDBRANCH  25  26
ENDBRANCH  23  25
ENDBRANCH   3  23
TORSDOF 10
ENDMDL
MODEL 2
REMARK VINA RESULT:      -8.0      0.613      1.993
REMARK  Name = 
REMARK  12 active torsions:
REMARK  status: ('A' for Active; 'I' for Inactive)
REMARK    1  A    between atoms: C_1  and  O_2
REMARK    2  A    between atoms: O_2  and  P_3
REMARK    3  A    between atoms: P_3  and  C_5
REMARK    4  A    between atoms: P_3  and  O_31
REMARK    5  A    between atoms: C_6  and  C_7
REMARK    6  A    between atoms: C_9  and  C_10
REMARK    7  A    between atoms: C_10  and  O_12
REMARK    8  A    between atoms: O_12  and  C_13
REMARK    9  A    between atoms: C_13  and  C_14
REMARK   10  A    between atoms: N_20  and  S_21
REMARK   11  A    between atoms: S_21  and  C_24
REMARK   12  A    between atoms: O_31  and  C_32
REMARK                            x       y       z     vdW  Elec       q    Type
REMARK                         _______ _______ _______ _____ _____    ______ ____
ROOT
ATOM      1  C   UNL     1       2.536   7.828  17.930  0.00  0.00    +0.000 A 
ATOM      2  C   UNL     1       3.800   8.125  17.352  0.00  0.00    +0.000 A 
ATOM      3  C   UNL     1       4.614   6.994  17.428  0.00  0.00    +0.000 A 
ATOM      4  N   UNL     1       3.840   6.019  18.016  0.00  0.00    +0.000 N 
ATOM      5  C   UNL     1       2.579   6.500  18.301  0.00  0.00    +0.000 A 
ENDROOT
BRANCH   4   6
ATOM      6  S   UNL     1       4.370   4.452  18.471  0.00  0.00    +0.000 S 
ATOM      7  O   UNL     1       4.503   3.713  17.231  0.00  0.00    +0.000 OA
ATOM      8  O   UNL     1       5.513   4.666  19.343  0.00  0.00    +0.000 OA
BRANCH   6   9
ATOM      9  C   UNL     1       3.077   3.772  19.472  0.00  0.00    +0.000 A 
ATOM     10  C   UNL     1       3.071   3.989  20.855  0.00  0.00    +0.000 A 
ATOM     11  C   UNL     1       2.031   3.474  21.630  0.00  0.00    +0.000 A 
ATOM     12  C   UNL     1       0.992   2.763  21.027  0.00  0.00    +0.000 A 
ATOM     13  C   UNL     1       0.986   2.576  19.642  0.00  0.00    +0.000 A 
ATOM     14  C   UNL     1       2.024   3.084  18.861  0.00  0.00    +0.000 A 
ENDBRANCH   6   9
ENDBRANCH   4   6
BRANCH   1  16
ATOM     15  C   UNL     1       1.033   9.245  19.320  0.00  0.00    +0.000 C 
ATOM     16  C   UNL     1       1.463   8.760  18.138  0.00  0.00    +0.000 C 
BRANCH  15  17
ATOM     17  P   UNL     1      -0.267  10.540  19.510  0.00  0.00    +0.000 P 
ATOM     18  O   UNL     1       0.075  11.962  19.039  0.00  0.00    +0.000 OA
BRANCH  17  20
ATOM     19  C   UNL     1      -0.374  11.811  21.872  0.00  0.00    +0.000 C 
ATOM     20  O   UNL     1       0.368  10.913  21.075  0.00  0.00    +0.000 OA
ENDBRANCH  17  20
BRANCH  17  21
ATOM     21  O   UNL     1      -0.901  10.166  17.944  0.00  0.00    +0.000 OA
ATOM     22  C   UNL     1      -2.200  10.671  17.696  0.00  0.00    +0.000 C 
ENDBRANCH  17  21
ENDBRANCH  15  17
ENDBRANCH   1  16
BRANCH   3  23
ATOM     23  C   UNL     1       5.991   6.856  17.020  0.00  0.00    +0.000 C 
ATOM     24  O   UNL     1       6.961   7.167  17.694  0.00  0.00    +0.000 OA
BRANCH  23  25
ATOM     25  O   UNL     1       6.029   6.311  15.779  0.00  0.00    +0.000 OA
BRANCH  25  26
ATOM     26  C   UNL     1       7.066   5.359  15.520  0.00  0.00    +0.000 C 
BRANCH  26  27
ATOM     27  C   UNL     1       6.795   4.715  14.186  0.00  0.00    +0.000 A 
ATOM     28  C   UNL     1       7.664   4.913  13.103  0.00  0.00    +0.000 A 
ATOM     29  C   UNL     1       7.391   4.334  11.863  0.00  0.00    +0.000 A 
ATOM     30  C   UNL     1       6.244   3.561  11.691  0.00  0.00    +0.000 A 
ATOM     31  C   UNL     1       5.368   3.368  12.758  0.00  0.00    +0.000 A 
ATOM     32  C   UNL     1       5.640   3.945  13.999  0.00  0.00    +0.000 A 
ENDBRANCH  26  27
ENDBRANCH  25  26
ENDBRANCH  23  25
ENDBRANCH   3  23
TORSDOF 10
ENDMDL
MODEL 3
REMARK VINA RESULT:      -8.0      0.762      1.851
REMARK  Name = 
REMARK  12 active torsions:
REMARK  status: ('A' for Active; 'I' for Inactive)
REMARK    1  A    between atoms: C_1  and  O_2
REMARK    2  A    between atoms: O_2  and  P_3
REMARK    3  A    between atoms: P_3  and  C_5
REMARK    4  A    between atoms: P_3  and  O_31
REMARK    5  A    between atoms: C_6  and  C_7
REMARK    6  A    between atoms: C_9  and  C_10
REMARK    7  A    between atoms: C_10  and  O_12
REMARK    8  A    between atoms: O_12  and  C_13
REMARK    9  A    between atoms: C_13  and  C_14
REMARK   10  A    between atoms: N_20  and  S_21
REMARK   11  A    between atoms: S_21  and  C_24
REMARK   12  A    between atoms: O_31  and  C_32
REMARK                            x       y       z     vdW  Elec       q    Type
REMARK                         _______ _______ _______ _____ _____    ______ ____
ROOT
ATOM      1  C   UNL     1       2.798   7.751  18.015  0.00  0.00    +0.000 A 
ATOM      2  C   UNL     1       4.026   7.938  17.326  0.00  0.00    +0.000 A 
ATOM      3  C   UNL     1       4.729   6.732  17.308  0.00  0.00    +0.000 A 
ATOM      4  N   UNL     1       3.920   5.823  17.952  0.00  0.00    +0.000 N 
ATOM      5  C   UNL     1       2.743   6.416  18.361  0.00  0.00    +0.000 A 
ENDROOT
BRANCH   4   6
ATOM      6  S   UNL     1       4.332   4.202  18.333  0.00  0.00    +0.000 S 
ATOM      7  O   UNL     1       4.320   3.492  17.069  0.00  0.00    +0.000 OA
ATOM      8  O   UNL     1       5.542   4.286  19.134  0.00  0.00    +0.000 OA
BRANCH   6   9
ATOM      9  C   UNL     1       3.047   3.609  19.398  0.00  0.00    +0.000 A 
ATOM     10  C   UNL     1       1.935   2.952  18.859  0.00  0.00    +0.000 A 
ATOM     11  C   UNL     1       0.943   2.462  19.710  0.00  0.00    +0.000 A 
ATOM     12  C   UNL     1       1.069   2.610  21.092  0.00  0.00    +0.000 A 
ATOM     13  C   UNL     1       2.196   3.239  21.627  0.00  0.00    +0.000 A 
ATOM     14  C   UNL     1       3.189   3.735  20.783  0.00  0.00    +0.000 A 
ENDBRANCH   6   9
ENDBRANCH   4   6
BRANCH   1  16
ATOM     15  C   UNL     1       1.365   9.078  19.559  0.00  0.00    +0.000 C 
ATOM     16  C   UNL     1       1.846   8.777  18.336  0.00  0.00    +0.000 C 
BRANCH  15  17
ATOM     17  P   UNL     1       0.241  10.495  19.923  0.00  0.00    +0.000 P 
ATOM     18  O   UNL     1       0.805  11.912  19.745  0.00  0.00    +0.000 OA
BRANCH  17  20
ATOM     19  C   UNL     1       1.241   9.251  22.082  0.00  0.00    +0.000 C 
ATOM     20  O   UNL     1       0.799  10.486  21.560  0.00  0.00    +0.000 OA
ENDBRANCH  17  20
BRANCH  17  21
ATOM     21  O   UNL     1      -0.318  10.502  18.285  0.00  0.00    +0.000 OA
ATOM     22  C   UNL     1      -1.541  11.185  18.081  0.00  0.00    +0.000 C 
ENDBRANCH  17  21
ENDBRANCH  15  17
ENDBRANCH   1  16
BRANCH   3  23
ATOM     23  C   UNL     1       6.042   6.471  16.771  0.00  0.00    +0.000 C 
ATOM     24  O   UNL     1       7.096   6.688  17.348  0.00  0.00    +0.000 OA
BRANCH  23  25
ATOM     25  O   UNL     1       5.911   5.933  15.534  0.00  0.00    +0.000 OA
BRANCH  25  26
ATOM     26  C   UNL     1       6.966   5.075  15.085  0.00  0.00    +0.000 C 
BRANCH  26  27
ATOM     27  C   UNL     1       6.501   4.363  13.842  0.00  0.00    +0.000 A 
ATOM     28  C   UNL     1       7.378   4.143  12.770  0.00  0.00    +0.000 A 
ATOM     29  C   UNL     1       6.931   3.506  11.611  0.00  0.00    +0.000 A 
ATOM     30  C   UNL     1       5.604   3.093  11.508  0.00  0.00    +0.000 A 
ATOM     31  C   UNL     1       4.721   3.319  12.564  0.00  0.00    +0.000 A 
ATOM     32  C   UNL     1       5.167   3.953  13.724  0.00  0.00    +0.000 A 
ENDBRANCH  26  27
ENDBRANCH  25  26
ENDBRANCH  23  25
ENDBRANCH   3  23
TORSDOF 10
ENDMDL
MODEL 4
REMARK VINA RESULT:      -7.9      1.243      1.923
REMARK  Name = 
REMARK  12 active torsions:
REMARK  status: ('A' for Active; 'I' for Inactive)
REMARK    1  A    between atoms: C_1  and  O_2
REMARK    2  A    between atoms: O_2  and  P_3
REMARK    3  A    between atoms: P_3  and  C_5
REMARK    4  A    between atoms: P_3  and  O_31
REMARK    5  A    between atoms: C_6  and  C_7
REMARK    6  A    between atoms: C_9  and  C_10
REMARK    7  A    between atoms: C_10  and  O_12
REMARK    8  A    between atoms: O_12  and  C_13
REMARK    9  A    between atoms: C_13  and  C_14
REMARK   10  A    between atoms: N_20  and  S_21
REMARK   11  A    between atoms: S_21  and  C_24
REMARK   12  A    between atoms: O_31  and  C_32
REMARK                            x       y       z     vdW  Elec       q    Type
REMARK                         _______ _______ _______ _____ _____    ______ ____
ROOT
ATOM      1  C   UNL     1       3.394   7.435  17.606  0.00  0.00    +0.000 A 
ATOM      2  C   UNL     1       4.497   7.336  16.715  0.00  0.00    +0.000 A 
ATOM      3  C   UNL     1       5.041   6.054  16.800  0.00  0.00    +0.000 A 
ATOM      4  N   UNL     1       4.257   5.379  17.709  0.00  0.00    +0.000 N 
ATOM      5  C   UNL     1       3.247   6.190  18.183  0.00  0.00    +0.000 A 
ENDROOT
BRANCH   4   6
ATOM      6  S   UNL     1       4.539   3.793  18.298  0.00  0.00    +0.000 S 
ATOM      7  O   UNL     1       4.575   2.944  17.124  0.00  0.00    +0.000 OA
ATOM      8  O   UNL     1       5.690   3.904  19.179  0.00  0.00    +0.000 OA
BRANCH   6   9
ATOM      9  C   UNL     1       3.145   3.397  19.317  0.00  0.00    +0.000 A 
ATOM     10  C   UNL     1       3.270   3.400  20.710  0.00  0.00    +0.000 A 
ATOM     11  C   UNL     1       2.158   3.116  21.504  0.00  0.00    +0.000 A 
ATOM     12  C   UNL     1       0.922   2.849  20.911  0.00  0.00    +0.000 A 
ATOM     13  C   UNL     1       0.795   2.878  19.520  0.00  0.00    +0.000 A 
ATOM     14  C   UNL     1       1.903   3.157  18.720  0.00  0.00    +0.000 A 
ENDBRANCH   6   9
ENDBRANCH   4   6
BRANCH   1  16
ATOM     15  C   UNL     1       1.658   8.759  18.801  0.00  0.00    +0.000 C 
ATOM     16  C   UNL     1       2.639   8.623  17.886  0.00  0.00    +0.000 C 
BRANCH  15  17
ATOM     17  P   UNL     1       0.814  10.351  19.202  0.00  0.00    +0.000 P 
ATOM     18  O   UNL     1       1.249  11.083  20.479  0.00  0.00    +0.000 OA
BRANCH  17  20
ATOM     19  C   UNL     1       0.023   9.027  21.399  0.00  0.00    +0.000 C 
ATOM     20  O   UNL     1      -0.361   9.469  20.115  0.00  0.00    +0.000 OA
ENDBRANCH  17  20
BRANCH  17  21
ATOM     21  O   UNL     1       1.989  11.232  18.287  0.00  0.00    +0.000 OA
ATOM     22  C   UNL     1       2.170  12.575  18.695  0.00  0.00    +0.000 C 
ENDBRANCH  17  21
ENDBRANCH  15  17
ENDBRANCH   1  16
BRANCH   3  23
ATOM     23  C   UNL     1       6.201   5.529  16.123  0.00  0.00    +0.000 C 
ATOM     24  O   UNL     1       7.298   5.357  16.631  0.00  0.00    +0.000 OA
BRANCH  23  25
ATOM     25  O   UNL     1       5.868   5.244  14.839  0.00  0.00    +0.000 OA
BRANCH  25  26
ATOM     26  C   UNL     1       6.937   4.889  13.956  0.00  0.00    +0.000 C 
BRANCH  26  27
ATOM     27  C   UNL     1       6.402   3.929  12.926  0.00  0.00    +0.000 A 
ATOM     28  C   UNL     1       5.026   3.847  12.666  0.00  0.00    +0.000 A 
ATOM     29  C   UNL     1       4.538   2.935  11.730  0.00  0.00    +0.000 A 
ATOM     30  C   UNL     1       5.415   2.090  11.053  0.00  0.00    +0.000 A 
ATOM     31  C   UNL     1       6.784   2.155  11.314  0.00  0.00    +0.000 A 
ATOM     32  C   UNL     1       7.275   3.068  12.248  0.00  0.00    +0.000 A 
ENDBRANCH  26  27
ENDBRANCH  25  26
ENDBRANCH  23  25
ENDBRANCH   3  23
TORSDOF 10
ENDMDL
MODEL 5
REMARK VINA RESULT:      -7.9      0.729      1.172
REMARK  Name = 
REMARK  12 active torsions:
REMARK  status: ('A' for Active; 'I' for Inactive)
REMARK    1  A    between atoms: C_1  and  O_2
REMARK    2  A    between atoms: O_2  and  P_3
REMARK    3  A    between atoms: P_3  and  C_5
REMARK    4  A    between atoms: P_3  and  O_31
REMARK    5  A    between atoms: C_6  and  C_7
REMARK    6  A    between atoms: C_9  and  C_10
REMARK    7  A    between atoms: C_10  and  O_12
REMARK    8  A    between atoms: O_12  and  C_13
REMARK    9  A    between atoms: C_13  and  C_14
REMARK   10  A    between atoms: N_20  and  S_21
REMARK   11  A    between atoms: S_21  and  C_24
REMARK   12  A    between atoms: O_31  and  C_32
REMARK                            x       y       z     vdW  Elec       q    Type
REMARK                         _______ _______ _______ _____ _____    ______ ____
ROOT
ATOM      1  C   UNL     1       3.175   7.691  17.794  0.00  0.00    +0.000 A 
ATOM      2  C   UNL     1       4.387   7.755  17.055  0.00  0.00    +0.000 A 
ATOM      3  C   UNL     1       4.998   6.501  17.067  0.00  0.00    +0.000 A 
ATOM      4  N   UNL     1       4.151   5.683  17.780  0.00  0.00    +0.000 N 
ATOM      5  C   UNL     1       3.037   6.380  18.202  0.00  0.00    +0.000 A 
ENDROOT
BRANCH   4   6
ATOM      6  S   UNL     1       4.458   4.054  18.220  0.00  0.00    +0.000 S 
ATOM      7  O   UNL     1       4.451   3.309  16.976  0.00  0.00    +0.000 OA
ATOM      8  O   UNL     1       5.641   4.095  19.063  0.00  0.00    +0.000 OA
BRANCH   6   9
ATOM      9  C   UNL     1       3.105   3.564  19.252  0.00  0.00    +0.000 A 
ATOM     10  C   UNL     1       3.180   3.736  20.638  0.00  0.00    +0.000 A 
ATOM     11  C   UNL     1       2.096   3.375  21.439  0.00  0.00    +0.000 A 
ATOM     12  C   UNL     1       0.935   2.862  20.858  0.00  0.00    +0.000 A 
ATOM     13  C   UNL     1       0.852   2.721  19.471  0.00  0.00    +0.000 A 
ATOM     14  C   UNL     1       1.933   3.076  18.664  0.00  0.00    +0.000 A 
ENDBRANCH   6   9
ENDBRANCH   4   6
BRANCH   1  16
ATOM     15  C   UNL     1       1.479   8.903  19.155  0.00  0.00    +0.000 C 
ATOM     16  C   UNL     1       2.314   8.798  18.101  0.00  0.00    +0.000 C 
BRANCH  15  17
ATOM     17  P   UNL     1       0.494  10.408  19.564  0.00  0.00    +0.000 P 
ATOM     18  O   UNL     1      -0.954  10.203  20.033  0.00  0.00    +0.000 OA
BRANCH  17  20
ATOM     19  C   UNL     1      -1.255   9.788  17.624  0.00  0.00    +0.000 C 
ATOM     20  O   UNL     1      -0.053  10.465  17.924  0.00  0.00    +0.000 OA
ENDBRANCH  17  20
BRANCH  17  21
ATOM     21  O   UNL     1       1.042  10.351  21.204  0.00  0.00    +0.000 OA
ATOM     22  C   UNL     1       0.416   9.365  22.003  0.00  0.00    +0.000 C 
ENDBRANCH  17  21
ENDBRANCH  15  17
ENDBRANCH   1  16
BRANCH   3  23
ATOM     23  C   UNL     1       6.268   6.120  16.497  0.00  0.00    +0.000 C 
ATOM     24  O   UNL     1       7.335   6.117  17.091  0.00  0.00    +0.000 OA
BRANCH  23  25
ATOM     25  O   UNL     1       6.077   5.753  15.206  0.00  0.00    +0.000 OA
BRANCH  25  26
ATOM     26  C   UNL     1       7.084   4.929  14.610  0.00  0.00    +0.000 C 
BRANCH  26  27
ATOM     27  C   UNL     1       6.460   4.168  13.470  0.00  0.00    +0.000 A 
ATOM     28  C   UNL     1       5.070   3.996  13.396  0.00  0.00    +0.000 A 
ATOM     29  C   UNL     1       4.505   3.266  12.349  0.00  0.00    +0.000 A 
ATOM     30  C   UNL     1       5.320   2.694  11.375  0.00  0.00    +0.000 A 
ATOM     31  C   UNL     1       6.704   2.849  11.447  0.00  0.00    +0.000 A 
ATOM     32  C   UNL     1       7.272   3.580  12.491  0.00  0.00    +0.000 A 
ENDBRANCH  26  27
ENDBRANCH  25  26
ENDBRANCH  23  25
ENDBRANCH   3  23
TORSDOF 10
ENDMDL
MODEL 6
REMARK VINA RESULT:      -7.9      3.982      7.198
REMARK  Name = 
REMARK  12 active torsions:
REMARK  status: ('A' for Active; 'I' for Inactive)
REMARK    1  A    between atoms: C_1  and  O_2
REMARK    2  A    between atoms: O_2  and  P_3
REMARK    3  A    between atoms: P_3  and  C_5
REMARK    4  A    between atoms: P_3  and  O_31
REMARK    5  A    between atoms: C_6  and  C_7
REMARK    6  A    between atoms: C_9  and  C_10
REMARK    7  A    between atoms: C_10  and  O_12
REMARK    8  A    between atoms: O_12  and  C_13
REMARK    9  A    between atoms: C_13  and  C_14
REMARK   10  A    between atoms: N_20  and  S_21
REMARK   11  A    between atoms: S_21  and  C_24
REMARK   12  A    between atoms: O_31  and  C_32
REMARK                            x       y       z     vdW  Elec       q    Type
REMARK                         _______ _______ _______ _____ _____    ______ ____
ROOT
ATOM      1  C   UNL     1       8.068   8.435  18.262  0.00  0.00    +0.000 A 
ATOM      2  C   UNL     1       6.895   8.608  17.481  0.00  0.00    +0.000 A 
ATOM      3  C   UNL     1       6.407   7.357  17.102  0.00  0.00    +0.000 A 
ATOM      4  N   UNL     1       7.260   6.439  17.673  0.00  0.00    +0.000 N 
ATOM      5  C   UNL     1       8.250   7.073  18.396  0.00  0.00    +0.000 A 
ENDROOT
BRANCH   4   6
ATOM      6  S   UNL     1       7.213   4.741  17.440  0.00  0.00    +0.000 S 
ATOM      7  O   UNL     1       7.396   4.540  16.016  0.00  0.00    +0.000 OA
ATOM      8  O   UNL     1       8.154   4.190  18.402  0.00  0.00    +0.000 OA
BRANCH   6   9
ATOM      9  C   UNL     1       5.597   4.223  17.944  0.00  0.00    +0.000 A 
ATOM     10  C   UNL     1       4.761   3.554  17.043  0.00  0.00    +0.000 A 
ATOM     11  C   UNL     1       3.500   3.123  17.460  0.00  0.00    +0.000 A 
ATOM     12  C   UNL     1       3.084   3.342  18.775  0.00  0.00    +0.000 A 
ATOM     13  C   UNL     1       3.935   3.982  19.680  0.00  0.00    +0.000 A 
ATOM     14  C   UNL     1       5.194   4.418  19.269  0.00  0.00    +0.000 A 
ENDBRANCH   6   9
ENDBRANCH   4   6
BRANCH   1  16
ATOM     15  C   UNL     1       9.187  10.655  18.141  0.00  0.00    +0.000 C 
ATOM     16  C   UNL     1       8.921   9.482  18.750  0.00  0.00    +0.000 C 
BRANCH  15  17
ATOM     17  P   UNL     1      10.189  12.015  18.883  0.00  0.00    +0.000 P 
ATOM     18  O   UNL     1      11.464  11.624  19.644  0.00  0.00    +0.000 OA
BRANCH  17  20
ATOM     19  C   UNL     1       9.779  12.513  21.489  0.00  0.00    +0.000 C 
ATOM     20  O   UNL     1       9.277  11.857  20.344  0.00  0.00    +0.000 OA
ENDBRANCH  17  20
BRANCH  17  21
ATOM     21  O   UNL     1      11.101  12.173  17.420  0.00  0.00    +0.000 OA
ATOM     22  C   UNL     1      11.240  13.501  16.951  0.00  0.00    +0.000 C 
ENDBRANCH  17  21
ENDBRANCH  15  17
ENDBRANCH   1  16
BRANCH   3  23
ATOM     23  C   UNL     1       5.276   7.057  16.259  0.00  0.00    +0.000 C 
ATOM     24  O   UNL     1       5.310   6.368  15.251  0.00  0.00    +0.000 OA
BRANCH  23  25
ATOM     25  O   UNL     1       4.172   7.648  16.779  0.00  0.00    +0.000 OA
BRANCH  25  26
ATOM     26  C   UNL     1       3.273   6.812  17.515  0.00  0.00    +0.000 C 
BRANCH  26  27
ATOM     27  C   UNL     1       2.461   7.684  18.437  0.00  0.00    +0.000 A 
ATOM     28  C   UNL     1       2.243   7.310  19.770  0.00  0.00    +0.000 A 
ATOM     29  C   UNL     1       1.466   8.111  20.609  0.00  0.00    +0.000 A 
ATOM     30  C   UNL     1       0.894   9.284  20.123  0.00  0.00    +0.000 A 
ATOM     31  C   UNL     1       1.096   9.658  18.795  0.00  0.00    +0.000 A 
ATOM     32  C   UNL     1       1.873   8.860  17.954  0.00  0.00    +0.000 A 
ENDBRANCH  26  27
ENDBRANCH  25  26
ENDBRANCH  23  25
ENDBRANCH   3  23
TORSDOF 10
ENDMDL
MODEL 7
REMARK VINA RESULT:      -7.9      1.010      1.566
REMARK  Name = 
REMARK  12 active torsions:
REMARK  status: ('A' for Active; 'I' for Inactive)
REMARK    1  A    between atoms: C_1  and  O_2
REMARK    2  A    between atoms: O_2  and  P_3
REMARK    3  A    between atoms: P_3  and  C_5
REMARK    4  A    between atoms: P_3  and  O_31
REMARK    5  A    between atoms: C_6  and  C_7
REMARK    6  A    between atoms: C_9  and  C_10
REMARK    7  A    between atoms: C_10  and  O_12
REMARK    8  A    between atoms: O_12  and  C_13
REMARK    9  A    between atoms: C_13  and  C_14
REMARK   10  A    between atoms: N_20  and  S_21
REMARK   11  A    between atoms: S_21  and  C_24
REMARK   12  A    between atoms: O_31  and  C_32
REMARK                            x       y       z     vdW  Elec       q    Type
REMARK                         _______ _______ _______ _____ _____    ______ ____
ROOT
ATOM      1  C   UNL     1       3.297   7.638  17.730  0.00  0.00    +0.000 A 
ATOM      2  C   UNL     1       4.459   7.660  16.912  0.00  0.00    +0.000 A 
ATOM      3  C   UNL     1       5.037   6.391  16.903  0.00  0.00    +0.000 A 
ATOM      4  N   UNL     1       4.217   5.605  17.682  0.00  0.00    +0.000 N 
ATOM      5  C   UNL     1       3.152   6.336  18.165  0.00  0.00    +0.000 A 
ENDROOT
BRANCH   4   6
ATOM      6  S   UNL     1       4.510   3.973  18.123  0.00  0.00    +0.000 S 
ATOM      7  O   UNL     1       4.524   3.231  16.878  0.00  0.00    +0.000 OA
ATOM      8  O   UNL     1       5.677   4.008  18.989  0.00  0.00    +0.000 OA
BRANCH   6   9
ATOM      9  C   UNL     1       3.136   3.486  19.129  0.00  0.00    +0.000 A 
ATOM     10  C   UNL     1       3.189   3.649  20.517  0.00  0.00    +0.000 A 
ATOM     11  C   UNL     1       2.089   3.291  21.298  0.00  0.00    +0.000 A 
ATOM     12  C   UNL     1       0.934   2.789  20.693  0.00  0.00    +0.000 A 
ATOM     13  C   UNL     1       0.874   2.658  19.304  0.00  0.00    +0.000 A 
ATOM     14  C   UNL     1       1.971   3.011  18.518  0.00  0.00    +0.000 A 
ENDBRANCH   6   9
ENDBRANCH   4   6
BRANCH   1  16
ATOM     15  C   UNL     1       1.198   8.975  17.739  0.00  0.00    +0.000 C 
ATOM     16  C   UNL     1       2.487   8.771  18.077  0.00  0.00    +0.000 C 
BRANCH  15  17
ATOM     17  P   UNL     1       0.174  10.393  18.326  0.00  0.00    +0.000 P 
ATOM     18  O   UNL     1      -0.684  10.177  19.582  0.00  0.00    +0.000 OA
BRANCH  17  20
ATOM     19  C   UNL     1      -2.225  10.698  17.159  0.00  0.00    +0.000 C 
ATOM     20  O   UNL     1      -1.132   9.824  17.345  0.00  0.00    +0.000 OA
ENDBRANCH  17  20
BRANCH  17  21
ATOM     21  O   UNL     1       1.481  10.961  19.307  0.00  0.00    +0.000 OA
ATOM     22  C   UNL     1       1.358  12.305  19.736  0.00  0.00    +0.000 C 
ENDBRANCH  17  21
ENDBRANCH  15  17
ENDBRANCH   1  16
BRANCH   3  23
ATOM     23  C   UNL     1       6.256   5.968  16.257  0.00  0.00    +0.000 C 
ATOM     24  O   UNL     1       7.366   5.982  16.766  0.00  0.00    +0.000 OA
BRANCH  23  25
ATOM     25  O   UNL     1       5.963   5.541  15.004  0.00  0.00    +0.000 OA
BRANCH  25  26
ATOM     26  C   UNL     1       7.028   4.943  14.257  0.00  0.00    +0.000 C 
BRANCH  26  27
ATOM     27  C   UNL     1       6.426   4.038  13.214  0.00  0.00    +0.000 A 
ATOM     28  C   UNL     1       7.243   3.280  12.363  0.00  0.00    +0.000 A 
ATOM     29  C   UNL     1       6.676   2.466  11.381  0.00  0.00    +0.000 A 
ATOM     30  C   UNL     1       5.292   2.409  11.234  0.00  0.00    +0.000 A 
ATOM     31  C   UNL     1       4.472   3.169  12.067  0.00  0.00    +0.000 A 
ATOM     32  C   UNL     1       5.036   3.982  13.051  0.00  0.00    +0.000 A 
ENDBRANCH  26  27
ENDBRANCH  25  26
ENDBRANCH  23  25
ENDBRANCH   3  23
TORSDOF 10
ENDMDL
MODEL 8
REMARK VINA RESULT:      -7.8      1.058      1.501
REMARK  Name = 
REMARK  12 active torsions:
REMARK  status: ('A' for Active; 'I' for Inactive)
REMARK    1  A    between atoms: C_1  and  O_2
REMARK    2  A    between atoms: O_2  and  P_3
REMARK    3  A    between atoms: P_3  and  C_5
REMARK    4  A    between atoms: P_3  and  O_31
REMARK    5  A    between atoms: C_6  and  C_7
REMARK    6  A    between atoms: C_9  and  C_10
REMARK    7  A    between atoms: C_10  and  O_12
REMARK    8  A    between atoms: O_12  and  C_13
REMARK    9  A    between atoms: C_13  and  C_14
REMARK   10  A    between atoms: N_20  and  S_21
REMARK   11  A    between atoms: S_21  and  C_24
REMARK   12  A    between atoms: O_31  and  C_32
REMARK                            x       y       z     vdW  Elec       q    Type
REMARK                         _______ _______ _______ _____ _____    ______ ____
ROOT
ATOM      1  C   UNL     1       2.684   7.885  18.076  0.00  0.00    +0.000 A 
ATOM      2  C   UNL     1       3.930   8.094  17.426  0.00  0.00    +0.000 A 
ATOM      3  C   UNL     1       4.644   6.895  17.409  0.00  0.00    +0.000 A 
ATOM      4  N   UNL     1       3.825   5.968  18.013  0.00  0.00    +0.000 N 
ATOM      5  C   UNL     1       2.631   6.544  18.397  0.00  0.00    +0.000 A 
ENDROOT
BRANCH   4   6
ATOM      6  S   UNL     1       4.240   4.344  18.378  0.00  0.00    +0.000 S 
ATOM      7  O   UNL     1       4.239   3.648  17.106  0.00  0.00    +0.000 OA
ATOM      8  O   UNL     1       5.444   4.423  19.189  0.00  0.00    +0.000 OA
BRANCH   6   9
ATOM      9  C   UNL     1       2.950   3.734  19.427  0.00  0.00    +0.000 A 
ATOM     10  C   UNL     1       1.789   3.188  18.868  0.00  0.00    +0.000 A 
ATOM     11  C   UNL     1       0.792   2.682  19.704  0.00  0.00    +0.000 A 
ATOM     12  C   UNL     1       0.960   2.705  21.090  0.00  0.00    +0.000 A 
ATOM     13  C   UNL     1       2.135   3.223  21.642  0.00  0.00    +0.000 A 
ATOM     14  C   UNL     1       3.134   3.733  20.814  0.00  0.00    +0.000 A 
ENDBRANCH   6   9
ENDBRANCH   4   6
BRANCH   1  16
ATOM     15  C   UNL     1       1.205   9.182  19.602  0.00  0.00    +0.000 C 
ATOM     16  C   UNL     1       1.714   8.897  18.386  0.00  0.00    +0.000 C 
BRANCH  15  17
ATOM     17  P   UNL     1       0.057  10.583  19.955  0.00  0.00    +0.000 P 
ATOM     18  O   UNL     1       0.612  11.770  20.754  0.00  0.00    +0.000 OA
BRANCH  17  20
ATOM     19  C   UNL     1      -0.209   8.411  21.510  0.00  0.00    +0.000 C 
ATOM     20  O   UNL     1      -0.396   9.807  21.433  0.00  0.00    +0.000 OA
ENDBRANCH  17  20
BRANCH  17  21
ATOM     21  O   UNL     1       0.510  11.357  18.475  0.00  0.00    +0.000 OA
ATOM     22  C   UNL     1       1.173  12.598  18.636  0.00  0.00    +0.000 C 
ENDBRANCH  17  21
ENDBRANCH  15  17
ENDBRANCH   1  16
BRANCH   3  23
ATOM     23  C   UNL     1       5.974   6.654  16.906  0.00  0.00    +0.000 C 
ATOM     24  O   UNL     1       7.010   6.899  17.506  0.00  0.00    +0.000 OA
BRANCH  23  25
ATOM     25  O   UNL     1       5.884   6.100  15.672  0.00  0.00    +0.000 OA
BRANCH  25  26
ATOM     26  C   UNL     1       6.905   5.167  15.304  0.00  0.00    +0.000 C 
BRANCH  26  27
ATOM     27  C   UNL     1       6.510   4.519  14.003  0.00  0.00    +0.000 A 
ATOM     28  C   UNL     1       5.236   3.955  13.840  0.00  0.00    +0.000 A 
ATOM     29  C   UNL     1       4.888   3.332  12.640  0.00  0.00    +0.000 A 
ATOM     30  C   UNL     1       5.810   3.259  11.598  0.00  0.00    +0.000 A 
ATOM     31  C   UNL     1       7.083   3.806  11.755  0.00  0.00    +0.000 A 
ATOM     32  C   UNL     1       7.432   4.431  12.953  0.00  0.00    +0.000 A 
ENDBRANCH  26  27
ENDBRANCH  25  26
ENDBRANCH  23  25
ENDBRANCH   3  23
TORSDOF 10
ENDMDL
MODEL 9
REMARK VINA RESULT:      -7.8      1.223      1.736
REMARK  Name = 
REMARK  12 active torsions:
REMARK  status: ('A' for Active; 'I' for Inactive)
REMARK    1  A    between atoms: C_1  and  O_2
REMARK    2  A    between atoms: O_2  and  P_3
REMARK    3  A    between atoms: P_3  and  C_5
REMARK    4  A    between atoms: P_3  and  O_31
REMARK    5  A    between atoms: C_6  and  C_7
REMARK    6  A    between atoms: C_9  and  C_10
REMARK    7  A    between atoms: C_10  and  O_12
REMARK    8  A    between atoms: O_12  and  C_13
REMARK    9  A    between atoms: C_13  and  C_14
REMARK   10  A    between atoms: N_20  and  S_21
REMARK   11  A    between atoms: S_21  and  C_24
REMARK   12  A    between atoms: O_31  and  C_32
REMARK                            x       y       z     vdW  Elec       q    Type
REMARK                         _______ _______ _______ _____ _____    ______ ____
ROOT
ATOM      1  C   UNL     1       3.509   7.486  17.645  0.00  0.00    +0.000 A 
ATOM      2  C   UNL     1       4.624   7.389  16.769  0.00  0.00    +0.000 A 
ATOM      3  C   UNL     1       5.130   6.090  16.814  0.00  0.00    +0.000 A 
ATOM      4  N   UNL     1       4.311   5.404  17.683  0.00  0.00    +0.000 N 
ATOM      5  C   UNL     1       3.316   6.225  18.172  0.00  0.00    +0.000 A 
ENDROOT
BRANCH   4   6
ATOM      6  S   UNL     1       4.537   3.789  18.216  0.00  0.00    +0.000 S 
ATOM      7  O   UNL     1       4.503   2.976  17.016  0.00  0.00    +0.000 OA
ATOM      8  O   UNL     1       5.716   3.821  19.067  0.00  0.00    +0.000 OA
BRANCH   6   9
ATOM      9  C   UNL     1       3.155   3.422  19.261  0.00  0.00    +0.000 A 
ATOM     10  C   UNL     1       3.298   3.460  20.653  0.00  0.00    +0.000 A 
ATOM     11  C   UNL     1       2.194   3.199  21.467  0.00  0.00    +0.000 A 
ATOM     12  C   UNL     1       0.951   2.921  20.896  0.00  0.00    +0.000 A 
ATOM     13  C   UNL     1       0.807   2.916  19.506  0.00  0.00    +0.000 A 
ATOM     14  C   UNL     1       1.905   3.172  18.686  0.00  0.00    +0.000 A 
ENDBRANCH   6   9
ENDBRANCH   4   6
BRANCH   1  16
ATOM     15  C   UNL     1       1.721   8.793  18.781  0.00  0.00    +0.000 C 
ATOM     16  C   UNL     1       2.783   8.685  17.957  0.00  0.00    +0.000 C 
BRANCH  15  17
ATOM     17  P   UNL     1       0.912  10.386  19.242  0.00  0.00    +0.000 P 
ATOM     18  O   UNL     1      -0.294  10.838  18.405  0.00  0.00    +0.000 OA
BRANCH  17  20
ATOM     19  C   UNL     1       2.122  12.602  18.328  0.00  0.00    +0.000 C 
ATOM     20  O   UNL     1       1.969  11.211  18.148  0.00  0.00    +0.000 OA
ENDBRANCH  17  20
BRANCH  17  21
ATOM     21  O   UNL     1      -0.144   9.561  20.336  0.00  0.00    +0.000 OA
ATOM     22  C   UNL     1      -0.436  10.271  21.525  0.00  0.00    +0.000 C 
ENDBRANCH  17  21
ENDBRANCH  15  17
ENDBRANCH   1  16
BRANCH   3  23
ATOM     23  C   UNL     1       6.286   5.557  16.136  0.00  0.00    +0.000 C 
ATOM     24  O   UNL     1       7.341   5.255  16.672  0.00  0.00    +0.000 OA
BRANCH  23  25
ATOM     25  O   UNL     1       6.003   5.433  14.816  0.00  0.00    +0.000 OA
BRANCH  25  26
ATOM     26  C   UNL     1       7.047   4.935  13.972  0.00  0.00    +0.000 C 
BRANCH  26  27
ATOM     27  C   UNL     1       6.435   4.000  12.963  0.00  0.00    +0.000 A 
ATOM     28  C   UNL     1       5.047   3.963  12.766  0.00  0.00    +0.000 A 
ATOM     29  C   UNL     1       4.488   3.073  11.848  0.00  0.00    +0.000 A 
ATOM     30  C   UNL     1       5.306   2.206  11.127  0.00  0.00    +0.000 A 
ATOM     31  C   UNL     1       6.686   2.227  11.324  0.00  0.00    +0.000 A 
ATOM     32  C   UNL     1       7.248   3.117  12.240  0.00  0.00    +0.000 A 
ENDBRANCH  26  27
ENDBRANCH  25  26
ENDBRANCH  23  25
ENDBRANCH   3  23
TORSDOF 10
ENDMDL
