MODEL 1
REMARK VINA RESULT:      -8.5      0.000      0.000
REMARK  Name = 
REMARK  7 active torsions:
REMARK  status: ('A' for Active; 'I' for Inactive)
REMARK    1  A    between atoms: C_5  and  C_6
REMARK    2  A    between atoms: C_6  and  C_7
REMARK    3  A    between atoms: N_10  and  C_11
REMARK    4  A    between atoms: C_11  and  C_12
REMARK    5  A    between atoms: C_12  and  C_13
REMARK    6  A    between atoms: C_13  and  C_14
REMARK    7  A    between atoms: C_14  and  N_15
REMARK                            x       y       z     vdW  Elec       q    Type
REMARK                         _______ _______ _______ _____ _____    ______ ____
ROOT
ATOM      1  C   UNL     1       4.598   4.326  17.021  0.00  0.00    +0.000 C 
ATOM      2  C   UNL     1       5.510   4.312  15.793  0.00  0.00    +0.000 C 
ATOM      3  C   UNL     1       6.774   5.090  16.135  0.00  0.00    +0.000 C 
ATOM      4  N   UNL     1       6.519   6.465  16.591  0.00  0.00    +0.000 NA
ATOM      5  C   UNL     1       5.427   6.593  17.573  0.00  0.00    +0.000 C 
ATOM      6  C   UNL     1       4.170   5.778  17.226  0.00  0.00    +0.000 C 
ENDROOT
BRANCH   1   7
ATOM      7  C   UNL     1       3.456   3.308  16.932  0.00  0.00    +0.000 C 
BRANCH   7  12
ATOM      8  F   UNL     1       1.246   2.910  22.114  0.00  0.00    +0.000 F 
ATOM      9  C   UNL     1       1.755   2.946  20.876  0.00  0.00    +0.000 A 
ATOM     10  C   UNL     1       0.942   3.320  19.815  0.00  0.00    +0.000 A 
ATOM     11  C   UNL     1       1.478   3.374  18.529  0.00  0.00    +0.000 A 
ATOM     12  C   UNL     1       2.838   3.090  18.304  0.00  0.00    +0.000 A 
ATOM     13  C   UNL     1       3.634   2.692  19.386  0.00  0.00    +0.000 A 
ATOM     14  C   UNL     1       3.091   2.618  20.672  0.00  0.00    +0.000 A 
ENDBRANCH   7  12
ENDBRANCH   1   7
BRANCH   4  15
ATOM     15  C   UNL     1       7.751   7.065  17.141  0.00  0.00    +0.000 C 
BRANCH  15  16
ATOM     16  C   UNL     1       7.545   8.451  17.760  0.00  0.00    +0.000 C 
BRANCH  16  17
ATOM     17  C   UNL     1       8.748   8.890  18.595  0.00  0.00    +0.000 C 
BRANCH  17  18
ATOM     18  C   UNL     1       9.159  10.312  18.223  0.00  0.00    +0.000 C 
BRANCH  18  19
ATOM     19  N   UNL     1       9.958  10.930  19.280  0.00  0.00    +0.000 NA
ATOM     20  O   UNL     1      11.300  11.268  18.842  0.00  0.00    +0.000 OA
ATOM     21  C   UNL     1      11.316  12.399  17.975  0.00  0.00    +0.000 C 
ATOM     22  C   UNL     1      10.648  13.614  18.625  0.00  0.00    +0.000 C 
ATOM     23  C   UNL     1      10.615  14.805  17.644  0.00  0.00    +0.000 C 
ATOM     24  C   UNL     1      11.377  15.935  18.328  0.00  0.00    +0.000 C 
ATOM     25  C   UNL     1      12.329  15.227  19.275  0.00  0.00    +0.000 C 
ATOM     26  C   UNL     1      11.475  14.102  19.836  0.00  0.00    +0.000 C 
ATOM     27  C   UNL     1       9.241  13.198  19.055  0.00  0.00    +0.000 C 
ATOM     28  O   UNL     1       9.259  12.046  19.894  0.00  0.00    +0.000 OA
ENDBRANCH  18  19
ENDBRANCH  17  18
ENDBRANCH  16  17
ENDBRANCH  15  16
ENDBRANCH   4  15
TORSDOF 7
ENDMDL
MODEL 2
REMARK VINA RESULT:      -8.0      1.158      1.857
REMARK  Name = 
REMARK  7 active torsions:
REMARK  status: ('A' for Active; 'I' for Inactive)
REMARK    1  A    between atoms: C_5  and  C_6
REMARK    2  A    between atoms: C_6  and  C_7
REMARK    3  A    between atoms: N_10  and  C_11
REMARK    4  A    between atoms: C_11  and  C_12
REMARK    5  A    between atoms: C_12  and  C_13
REMARK    6  A    between atoms: C_13  and  C_14
REMARK    7  A    between atoms: C_14  and  N_15
REMARK                            x       y       z     vdW  Elec       q    Type
REMARK                         _______ _______ _______ _____ _____    ______ ____
ROOT
ATOM      1  C   UNL     1       4.258   4.568  17.020  0.00  0.00    +0.000 C 
ATOM      2  C   UNL     1       3.919   5.766  17.908  0.00  0.00    +0.000 C 
ATOM      3  C   UNL     1       4.906   6.882  17.591  0.00  0.00    +0.000 C 
ATOM      4  N   UNL     1       6.316   6.489  17.746  0.00  0.00    +0.000 NA
ATOM      5  C   UNL     1       6.653   5.178  17.163  0.00  0.00    +0.000 C 
ATOM      6  C   UNL     1       5.631   4.071  17.470  0.00  0.00    +0.000 C 
ENDROOT
BRANCH   1   7
ATOM      7  C   UNL     1       3.150   3.510  16.992  0.00  0.00    +0.000 C 
BRANCH   7  12
ATOM      8  F   UNL     1       1.296   3.045  22.307  0.00  0.00    +0.000 F 
ATOM      9  C   UNL     1       1.708   3.102  21.034  0.00  0.00    +0.000 A 
ATOM     10  C   UNL     1       0.915   3.736  20.088  0.00  0.00    +0.000 A 
ATOM     11  C   UNL     1       1.354   3.811  18.767  0.00  0.00    +0.000 A 
ATOM     12  C   UNL     1       2.603   3.283  18.393  0.00  0.00    +0.000 A 
ATOM     13  C   UNL     1       3.377   2.626  19.359  0.00  0.00    +0.000 A 
ATOM     14  C   UNL     1       2.927   2.535  20.679  0.00  0.00    +0.000 A 
ENDBRANCH   7  12
ENDBRANCH   1   7
BRANCH   4  15
ATOM     15  C   UNL     1       7.206   7.524  17.184  0.00  0.00    +0.000 C 
BRANCH  15  16
ATOM     16  C   UNL     1       8.176   8.129  18.203  0.00  0.00    +0.000 C 
BRANCH  16  17
ATOM     17  C   UNL     1       8.405   9.621  17.961  0.00  0.00    +0.000 C 
BRANCH  17  18
ATOM     18  C   UNL     1       9.187  10.232  19.120  0.00  0.00    +0.000 C 
BRANCH  18  19
ATOM     19  N   UNL     1      10.114  11.262  18.654  0.00  0.00    +0.000 NA
ATOM     20  O   UNL     1       9.448  12.518  18.352  0.00  0.00    +0.000 OA
ATOM     21  C   UNL     1       9.048  13.212  19.530  0.00  0.00    +0.000 C 
ATOM     22  C   UNL     1      10.231  13.451  20.471  0.00  0.00    +0.000 C 
ATOM     23  C   UNL     1       9.762  14.144  21.769  0.00  0.00    +0.000 C 
ATOM     24  C   UNL     1      10.537  15.454  21.851  0.00  0.00    +0.000 C 
ATOM     25  C   UNL     1      10.873  15.783  20.408  0.00  0.00    +0.000 C 
ATOM     26  C   UNL     1      11.243  14.427  19.829  0.00  0.00    +0.000 C 
ATOM     27  C   UNL     1      10.881  12.098  20.757  0.00  0.00    +0.000 C 
ATOM     28  O   UNL     1      11.240  11.415  19.558  0.00  0.00    +0.000 OA
ENDBRANCH  18  19
ENDBRANCH  17  18
ENDBRANCH  16  17
ENDBRANCH  15  16
ENDBRANCH   4  15
TORSDOF 7
ENDMDL
MODEL 3
REMARK VINA RESULT:      -7.8      6.726      9.546
REMARK  Name = 
REMARK  7 active torsions:
REMARK  status: ('A' for Active; 'I' for Inactive)
REMARK    1  A    between atoms: C_5  and  C_6
REMARK    2  A    between atoms: C_6  and  C_7
REMARK    3  A    between atoms: N_10  and  C_11
REMARK    4  A    between atoms: C_11  and  C_12
REMARK    5  A    between atoms: C_12  and  C_13
REMARK    6  A    between atoms: C_13  and  C_14
REMARK    7  A    between atoms: C_14  and  N_15
REMARK                            x       y       z     vdW  Elec       q    Type
REMARK                         _______ _______ _______ _____ _____    ______ ____
ROOT
ATOM      1  C   UNL     1      -0.620  10.108  19.448  0.00  0.00    +0.000 C 
ATOM      2  C   UNL     1       0.740  10.418  18.820  0.00  0.00    +0.000 C 
ATOM      3  C   UNL     1       1.577   9.146  18.855  0.00  0.00    +0.000 C 
ATOM      4  N   UNL     1       1.733   8.576  20.203  0.00  0.00    +0.000 NA
ATOM      5  C   UNL     1       0.491   8.523  20.993  0.00  0.00    +0.000 C 
ATOM      6  C   UNL     1      -0.355   9.805  20.923  0.00  0.00    +0.000 C 
ENDROOT
BRANCH   1   7
ATOM      7  C   UNL     1      -1.669  11.192  19.176  0.00  0.00    +0.000 C 
BRANCH   7  12
ATOM      8  F   UNL     1      -4.374  10.238  14.311  0.00  0.00    +0.000 F 
ATOM      9  C   UNL     1      -3.767  10.420  15.490  0.00  0.00    +0.000 A 
ATOM     10  C   UNL     1      -2.613   9.706  15.780  0.00  0.00    +0.000 A 
ATOM     11  C   UNL     1      -1.971   9.909  17.000  0.00  0.00    +0.000 A 
ATOM     12  C   UNL     1      -2.459  10.854  17.921  0.00  0.00    +0.000 A 
ATOM     13  C   UNL     1      -3.639  11.547  17.618  0.00  0.00    +0.000 A 
ATOM     14  C   UNL     1      -4.293  11.328  16.402  0.00  0.00    +0.000 A 
ENDBRANCH   7  12
ENDBRANCH   1   7
BRANCH   4  15
ATOM     15  C   UNL     1       2.330   7.228  20.128  0.00  0.00    +0.000 C 
BRANCH  15  16
ATOM     16  C   UNL     1       1.461   6.129  20.747  0.00  0.00    +0.000 C 
BRANCH  16  17
ATOM     17  C   UNL     1       2.209   4.801  20.859  0.00  0.00    +0.000 C 
BRANCH  17  18
ATOM     18  C   UNL     1       2.479   4.227  19.471  0.00  0.00    +0.000 C 
BRANCH  18  19
ATOM     19  N   UNL     1       3.858   3.757  19.348  0.00  0.00    +0.000 NA
ATOM     20  O   UNL     1       4.069   2.949  18.159  0.00  0.00    +0.000 OA
ATOM     21  C   UNL     1       4.081   3.733  16.969  0.00  0.00    +0.000 C 
ATOM     22  C   UNL     1       5.124   4.851  17.043  0.00  0.00    +0.000 C 
ATOM     23  C   UNL     1       5.072   5.727  15.773  0.00  0.00    +0.000 C 
ATOM     24  C   UNL     1       6.459   5.645  15.147  0.00  0.00    +0.000 C 
ATOM     25  C   UNL     1       7.008   4.312  15.624  0.00  0.00    +0.000 C 
ATOM     26  C   UNL     1       6.551   4.257  17.073  0.00  0.00    +0.000 C 
ATOM     27  C   UNL     1       4.844   5.667  18.304  0.00  0.00    +0.000 C 
ATOM     28  O   UNL     1       4.808   4.850  19.471  0.00  0.00    +0.000 OA
ENDBRANCH  18  19
ENDBRANCH  17  18
ENDBRANCH  16  17
ENDBRANCH  15  16
ENDBRANCH   4  15
TORSDOF 7
ENDMDL
MODEL 4
REMARK VINA RESULT:      -7.8      1.366      1.977
REMARK  Name = 
REMARK  7 active torsions:
REMARK  status: ('A' for Active; 'I' for Inactive)
REMARK    1  A    between atoms: C_5  and  C_6
REMARK    2  A    between atoms: C_6  and  C_7
REMARK    3  A    between atoms: N_10  and  C_11
REMARK    4  A    between atoms: C_11  and  C_12
REMARK    5  A    between atoms: C_12  and  C_13
REMARK    6  A    between atoms: C_13  and  C_14
REMARK    7  A    between atoms: C_14  and  N_15
REMARK                            x       y       z     vdW  Elec       q    Type
REMARK                         _______ _______ _______ _____ _____    ______ ____
ROOT
ATOM      1  C   UNL     1       4.069   5.664  17.772  0.00  0.00    +0.000 C 
ATOM      2  C   UNL     1       4.826   4.880  18.844  0.00  0.00    +0.000 C 
ATOM      3  C   UNL     1       6.087   5.658  19.197  0.00  0.00    +0.000 C 
ATOM      4  N   UNL     1       6.950   5.945  18.041  0.00  0.00    +0.000 NA
ATOM      5  C   UNL     1       6.235   6.430  16.847  0.00  0.00    +0.000 C 
ATOM      6  C   UNL     1       4.950   5.650  16.523  0.00  0.00    +0.000 C 
ENDROOT
BRANCH   1   7
ATOM      7  C   UNL     1       2.631   5.173  17.571  0.00  0.00    +0.000 C 
BRANCH   7  12
ATOM      8  F   UNL     1       1.375   2.109  22.146  0.00  0.00    +0.000 F 
ATOM      9  C   UNL     1       1.613   2.839  21.049  0.00  0.00    +0.000 A 
ATOM     10  C   UNL     1       1.673   4.221  21.150  0.00  0.00    +0.000 A 
ATOM     11  C   UNL     1       1.939   4.979  20.010  0.00  0.00    +0.000 A 
ATOM     12  C   UNL     1       2.182   4.356  18.772  0.00  0.00    +0.000 A 
ATOM     13  C   UNL     1       2.093   2.960  18.689  0.00  0.00    +0.000 A 
ATOM     14  C   UNL     1       1.807   2.202  19.828  0.00  0.00    +0.000 A 
ENDBRANCH   7  12
ENDBRANCH   1   7
BRANCH   4  15
ATOM     15  C   UNL     1       8.006   6.908  18.410  0.00  0.00    +0.000 C 
BRANCH  15  16
ATOM     16  C   UNL     1       8.130   8.093  17.447  0.00  0.00    +0.000 C 
BRANCH  16  17
ATOM     17  C   UNL     1       7.884   9.429  18.148  0.00  0.00    +0.000 C 
BRANCH  17  18
ATOM     18  C   UNL     1       9.128   9.859  18.921  0.00  0.00    +0.000 C 
BRANCH  18  19
ATOM     19  N   UNL     1       9.840  10.932  18.231  0.00  0.00    +0.000 NA
ATOM     20  O   UNL     1       9.034  12.132  18.081  0.00  0.00    +0.000 OA
ATOM     21  C   UNL     1       8.879  12.835  19.311  0.00  0.00    +0.000 C 
ATOM     22  C   UNL     1      10.233  13.179  19.935  0.00  0.00    +0.000 C 
ATOM     23  C   UNL     1      10.041  13.880  21.298  0.00  0.00    +0.000 C 
ATOM     24  C   UNL     1      10.718  15.239  21.172  0.00  0.00    +0.000 C 
ATOM     25  C   UNL     1      10.675  15.545  19.686  0.00  0.00    +0.000 C 
ATOM     26  C   UNL     1      10.991  14.199  19.054  0.00  0.00    +0.000 C 
ATOM     27  C   UNL     1      11.027  11.881  20.075  0.00  0.00    +0.000 C 
ATOM     28  O   UNL     1      11.137  11.187  18.834  0.00  0.00    +0.000 OA
ENDBRANCH  18  19
ENDBRANCH  17  18
ENDBRANCH  16  17
ENDBRANCH  15  16
ENDBRANCH   4  15
TORSDOF 7
ENDMDL
MODEL 5
REMARK VINA RESULT:      -7.8      6.618      9.598
REMARK  Name = 
REMARK  7 active torsions:
REMARK  status: ('A' for Active; 'I' for Inactive)
REMARK    1  A    between atoms: C_5  and  C_6
REMARK    2  A    between atoms: C_6  and  C_7
REMARK    3  A    between atoms: N_10  and  C_11
REMARK    4  A    between atoms: C_11  and  C_12
REMARK    5  A    between atoms: C_12  and  C_13
REMARK    6  A    between atoms: C_13  and  C_14
REMARK    7  A    between atoms: C_14  and  N_15
REMARK                            x       y       z     vdW  Elec       q    Type
REMARK                         _______ _______ _______ _____ _____    ______ ____
ROOT
ATOM      1  C   UNL     1      -0.652  10.173  19.457  0.00  0.00    +0.000 C 
ATOM      2  C   UNL     1       0.727  10.454  18.858  0.00  0.00    +0.000 C 
ATOM      3  C   UNL     1       1.526   9.159  18.885  0.00  0.00    +0.000 C 
ATOM      4  N   UNL     1       1.643   8.562  20.224  0.00  0.00    +0.000 NA
ATOM      5  C   UNL     1       0.386   8.531  20.993  0.00  0.00    +0.000 C 
ATOM      6  C   UNL     1      -0.422   9.838  20.931  0.00  0.00    +0.000 C 
ENDROOT
BRANCH   1   7
ATOM      7  C   UNL     1      -1.664  11.292  19.186  0.00  0.00    +0.000 C 
BRANCH   7  12
ATOM      8  F   UNL     1      -4.517  10.077  14.465  0.00  0.00    +0.000 F 
ATOM      9  C   UNL     1      -3.812  10.410  15.554  0.00  0.00    +0.000 A 
ATOM     10  C   UNL     1      -4.329  11.341  16.443  0.00  0.00    +0.000 A 
ATOM     11  C   UNL     1      -3.603  11.674  17.585  0.00  0.00    +0.000 A 
ATOM     12  C   UNL     1      -2.373  11.049  17.863  0.00  0.00    +0.000 A 
ATOM     13  C   UNL     1      -1.859  10.129  16.939  0.00  0.00    +0.000 A 
ATOM     14  C   UNL     1      -2.578   9.811  15.784  0.00  0.00    +0.000 A 
ENDBRANCH   7  12
ENDBRANCH   1   7
BRANCH   4  15
ATOM     15  C   UNL     1       2.202   7.198  20.136  0.00  0.00    +0.000 C 
BRANCH  15  16
ATOM     16  C   UNL     1       1.368   6.137  20.861  0.00  0.00    +0.000 C 
BRANCH  16  17
ATOM     17  C   UNL     1       1.979   4.741  20.733  0.00  0.00    +0.000 C 
BRANCH  17  18
ATOM     18  C   UNL     1       3.361   4.825  20.091  0.00  0.00    +0.000 C 
BRANCH  18  19
ATOM     19  N   UNL     1       3.490   3.887  18.977  0.00  0.00    +0.000 NA
ATOM     20  O   UNL     1       3.055   4.457  17.714  0.00  0.00    +0.000 OA
ATOM     21  C   UNL     1       3.983   5.409  17.203  0.00  0.00    +0.000 C 
ATOM     22  C   UNL     1       5.384   4.808  17.060  0.00  0.00    +0.000 C 
ATOM     23  C   UNL     1       6.386   5.875  16.571  0.00  0.00    +0.000 C 
ATOM     24  C   UNL     1       6.959   5.345  15.261  0.00  0.00    +0.000 C 
ATOM     25  C   UNL     1       5.879   4.424  14.723  0.00  0.00    +0.000 C 
ATOM     26  C   UNL     1       5.391   3.709  15.973  0.00  0.00    +0.000 C 
ATOM     27  C   UNL     1       5.787   4.236  18.419  0.00  0.00    +0.000 C 
ATOM     28  O   UNL     1       4.822   3.311  18.916  0.00  0.00    +0.000 OA
ENDBRANCH  18  19
ENDBRANCH  17  18
ENDBRANCH  16  17
ENDBRANCH  15  16
ENDBRANCH   4  15
TORSDOF 7
ENDMDL
MODEL 6
REMARK VINA RESULT:      -7.7      1.476      2.116
REMARK  Name = 
REMARK  7 active torsions:
REMARK  status: ('A' for Active; 'I' for Inactive)
REMARK    1  A    between atoms: C_5  and  C_6
REMARK    2  A    between atoms: C_6  and  C_7
REMARK    3  A    between atoms: N_10  and  C_11
REMARK    4  A    between atoms: C_11  and  C_12
REMARK    5  A    between atoms: C_12  and  C_13
REMARK    6  A    between atoms: C_13  and  C_14
REMARK    7  A    between atoms: C_14  and  N_15
REMARK                            x       y       z     vdW  Elec       q    Type
REMARK                         _______ _______ _______ _____ _____    ______ ____
ROOT
ATOM      1  C   UNL     1       5.514   4.836  16.972  0.00  0.00    +0.000 C 
ATOM      2  C   UNL     1       6.994   4.850  17.354  0.00  0.00    +0.000 C 
ATOM      3  C   UNL     1       7.326   6.228  17.911  0.00  0.00    +0.000 C 
ATOM      4  N   UNL     1       7.006   7.331  16.992  0.00  0.00    +0.000 NA
ATOM      5  C   UNL     1       5.686   7.225  16.343  0.00  0.00    +0.000 C 
ATOM      6  C   UNL     1       5.357   5.820  15.813  0.00  0.00    +0.000 C 
ENDROOT
BRANCH   1   7
ATOM      7  C   UNL     1       4.971   3.425  16.718  0.00  0.00    +0.000 C 
BRANCH   7  12
ATOM      8  F   UNL     1       0.019   2.455  19.253  0.00  0.00    +0.000 F 
ATOM      9  C   UNL     1       1.215   2.707  18.705  0.00  0.00    +0.000 A 
ATOM     10  C   UNL     1       2.188   1.718  18.710  0.00  0.00    +0.000 A 
ATOM     11  C   UNL     1       3.426   1.974  18.123  0.00  0.00    +0.000 A 
ATOM     12  C   UNL     1       3.684   3.208  17.497  0.00  0.00    +0.000 A 
ATOM     13  C   UNL     1       2.695   4.200  17.525  0.00  0.00    +0.000 A 
ATOM     14  C   UNL     1       1.461   3.949  18.131  0.00  0.00    +0.000 A 
ENDBRANCH   7  12
ENDBRANCH   1   7
BRANCH   4  15
ATOM     15  C   UNL     1       7.112   8.630  17.686  0.00  0.00    +0.000 C 
BRANCH  15  16
ATOM     16  C   UNL     1       8.544   9.014  18.069  0.00  0.00    +0.000 C 
BRANCH  16  17
ATOM     17  C   UNL     1       8.792  10.516  17.929  0.00  0.00    +0.000 C 
BRANCH  17  18
ATOM     18  C   UNL     1      10.000  10.934  18.762  0.00  0.00    +0.000 C 
BRANCH  18  19
ATOM     19  N   UNL     1      10.900  11.798  18.000  0.00  0.00    +0.000 NA
ATOM     20  O   UNL     1      10.256  13.021  17.554  0.00  0.00    +0.000 OA
ATOM     21  C   UNL     1      10.049  13.942  18.622  0.00  0.00    +0.000 C 
ATOM     22  C   UNL     1      11.357  14.265  19.347  0.00  0.00    +0.000 C 
ATOM     23  C   UNL     1      11.098  15.209  20.540  0.00  0.00    +0.000 C 
ATOM     24  C   UNL     1      11.934  16.457  20.280  0.00  0.00    +0.000 C 
ATOM     25  C   UNL     1      12.088  16.498  18.770  0.00  0.00    +0.000 C 
ATOM     26  C   UNL     1      12.316  15.038  18.413  0.00  0.00    +0.000 C 
ATOM     27  C   UNL     1      11.980  12.944  19.798  0.00  0.00    +0.000 C 
ATOM     28  O   UNL     1      12.144  12.034  18.713  0.00  0.00    +0.000 OA
ENDBRANCH  18  19
ENDBRANCH  17  18
ENDBRANCH  16  17
ENDBRANCH  15  16
ENDBRANCH   4  15
TORSDOF 7
ENDMDL
MODEL 7
REMARK VINA RESULT:      -7.6      6.751      9.644
REMARK  Name = 
REMARK  7 active torsions:
REMARK  status: ('A' for Active; 'I' for Inactive)
REMARK    1  A    between atoms: C_5  and  C_6
REMARK    2  A    between atoms: C_6  and  C_7
REMARK    3  A    between atoms: N_10  and  C_11
REMARK    4  A    between atoms: C_11  and  C_12
REMARK    5  A    between atoms: C_12  and  C_13
REMARK    6  A    between atoms: C_13  and  C_14
REMARK    7  A    between atoms: C_14  and  N_15
REMARK                            x       y       z     vdW  Elec       q    Type
REMARK                         _______ _______ _______ _____ _____    ______ ____
ROOT
ATOM      1  C   UNL     1       0.329  10.166  19.109  0.00  0.00    +0.000 C 
ATOM      2  C   UNL     1       1.603  10.044  18.272  0.00  0.00    +0.000 C 
ATOM      3  C   UNL     1       2.054   8.590  18.308  0.00  0.00    +0.000 C 
ATOM      4  N   UNL     1       2.262   8.067  19.668  0.00  0.00    +0.000 NA
ATOM      5  C   UNL     1       1.194   8.410  20.625  0.00  0.00    +0.000 C 
ATOM      6  C   UNL     1       0.732   9.875  20.554  0.00  0.00    +0.000 C 
ENDROOT
BRANCH   1   7
ATOM      7  C   UNL     1      -0.413  11.488  18.885  0.00  0.00    +0.000 C 
BRANCH   7  12
ATOM      8  F   UNL     1      -5.868  10.777  17.606  0.00  0.00    +0.000 F 
ATOM      9  C   UNL     1      -4.582  10.907  17.957  0.00  0.00    +0.000 A 
ATOM     10  C   UNL     1      -3.636  10.053  17.408  0.00  0.00    +0.000 A 
ATOM     11  C   UNL     1      -2.295  10.201  17.759  0.00  0.00    +0.000 A 
ATOM     12  C   UNL     1      -1.889  11.227  18.633  0.00  0.00    +0.000 A 
ATOM     13  C   UNL     1      -2.864  12.063  19.193  0.00  0.00    +0.000 A 
ATOM     14  C   UNL     1      -4.211  11.901  18.856  0.00  0.00    +0.000 A 
ENDBRANCH   7  12
ENDBRANCH   1   7
BRANCH   4  15
ATOM     15  C   UNL     1       2.446   6.603  19.637  0.00  0.00    +0.000 C 
BRANCH  15  16
ATOM     16  C   UNL     1       1.391   5.827  20.431  0.00  0.00    +0.000 C 
BRANCH  16  17
ATOM     17  C   UNL     1       1.525   4.316  20.239  0.00  0.00    +0.000 C 
BRANCH  17  18
ATOM     18  C   UNL     1       2.948   3.866  20.557  0.00  0.00    +0.000 C 
BRANCH  18  19
ATOM     19  N   UNL     1       3.492   3.027  19.491  0.00  0.00    +0.000 NA
ATOM     20  O   UNL     1       2.823   3.234  18.218  0.00  0.00    +0.000 OA
ATOM     21  C   UNL     1       3.181   4.475  17.616  0.00  0.00    +0.000 C 
ATOM     22  C   UNL     1       4.697   4.599  17.445  0.00  0.00    +0.000 C 
ATOM     23  C   UNL     1       5.065   5.977  16.854  0.00  0.00    +0.000 C 
ATOM     24  C   UNL     1       5.804   5.693  15.551  0.00  0.00    +0.000 C 
ATOM     25  C   UNL     1       5.284   4.336  15.112  0.00  0.00    +0.000 C 
ATOM     26  C   UNL     1       5.211   3.563  16.419  0.00  0.00    +0.000 C 
ATOM     27  C   UNL     1       5.341   4.381  18.813  0.00  0.00    +0.000 C 
ATOM     28  O   UNL     1       4.937   3.147  19.402  0.00  0.00    +0.000 OA
ENDBRANCH  18  19
ENDBRANCH  17  18
ENDBRANCH  16  17
ENDBRANCH  15  16
ENDBRANCH   4  15
TORSDOF 7
ENDMDL
MODEL 8
REMARK VINA RESULT:      -7.6      1.138      1.338
REMARK  Name = 
REMARK  7 active torsions:
REMARK  status: ('A' for Active; 'I' for Inactive)
REMARK    1  A    between atoms: C_5  and  C_6
REMARK    2  A    between atoms: C_6  and  C_7
REMARK    3  A    between atoms: N_10  and  C_11
REMARK    4  A    between atoms: C_11  and  C_12
REMARK    5  A    between atoms: C_12  and  C_13
REMARK    6  A    between atoms: C_13  and  C_14
REMARK    7  A    between atoms: C_14  and  N_15
REMARK                            x       y       z     vdW  Elec       q    Type
REMARK                         _______ _______ _______ _____ _____    ______ ____
ROOT
ATOM      1  C   UNL     1       5.004   4.724  17.040  0.00  0.00    +0.000 C 
ATOM      2  C   UNL     1       4.666   6.178  16.709  0.00  0.00    +0.000 C 
ATOM      3  C   UNL     1       5.959   6.982  16.744  0.00  0.00    +0.000 C 
ATOM      4  N   UNL     1       6.685   6.884  18.019  0.00  0.00    +0.000 NA
ATOM      5  C   UNL     1       6.791   5.516  18.560  0.00  0.00    +0.000 C 
ATOM      6  C   UNL     1       5.483   4.710  18.491  0.00  0.00    +0.000 C 
ENDROOT
BRANCH   1   7
ATOM      7  C   UNL     1       3.864   3.753  16.713  0.00  0.00    +0.000 C 
BRANCH   7  12
ATOM      8  F   UNL     1       0.935   3.133  21.502  0.00  0.00    +0.000 F 
ATOM      9  C   UNL     1       1.585   3.250  20.336  0.00  0.00    +0.000 A 
ATOM     10  C   UNL     1       1.368   4.369  19.545  0.00  0.00    +0.000 A 
ATOM     11  C   UNL     1       2.058   4.499  18.341  0.00  0.00    +0.000 A 
ATOM     12  C   UNL     1       2.996   3.529  17.941  0.00  0.00    +0.000 A 
ATOM     13  C   UNL     1       3.182   2.396  18.745  0.00  0.00    +0.000 A 
ATOM     14  C   UNL     1       2.475   2.257  19.942  0.00  0.00    +0.000 A 
ENDBRANCH   7  12
ENDBRANCH   1   7
BRANCH   4  15
ATOM     15  C   UNL     1       8.034   7.470  17.893  0.00  0.00    +0.000 C 
BRANCH  15  16
ATOM     16  C   UNL     1       8.071   8.990  18.082  0.00  0.00    +0.000 C 
BRANCH  16  17
ATOM     17  C   UNL     1       9.171   9.421  19.052  0.00  0.00    +0.000 C 
BRANCH  17  18
ATOM     18  C   UNL     1       9.135  10.933  19.255  0.00  0.00    +0.000 C 
BRANCH  18  19
ATOM     19  N   UNL     1      10.472  11.516  19.157  0.00  0.00    +0.000 NA
ATOM     20  O   UNL     1      10.820  11.891  17.797  0.00  0.00    +0.000 OA
ATOM     21  C   UNL     1      10.126  13.058  17.365  0.00  0.00    +0.000 C 
ATOM     22  C   UNL     1      10.359  14.234  18.316  0.00  0.00    +0.000 C 
ATOM     23  C   UNL     1       9.545  15.466  17.866  0.00  0.00    +0.000 C 
ATOM     24  C   UNL     1      10.561  16.575  17.619  0.00  0.00    +0.000 C 
ATOM     25  C   UNL     1      11.847  15.841  17.286  0.00  0.00    +0.000 C 
ATOM     26  C   UNL     1      11.838  14.681  18.269  0.00  0.00    +0.000 C 
ATOM     27  C   UNL     1       9.968  13.782  19.722  0.00  0.00    +0.000 C 
ATOM     28  O   UNL     1      10.656  12.596  20.111  0.00  0.00    +0.000 OA
ENDBRANCH  18  19
ENDBRANCH  17  18
ENDBRANCH  16  17
ENDBRANCH  15  16
ENDBRANCH   4  15
TORSDOF 7
ENDMDL
MODEL 9
REMARK VINA RESULT:      -7.6      1.044      1.256
REMARK  Name = 
REMARK  7 active torsions:
REMARK  status: ('A' for Active; 'I' for Inactive)
REMARK    1  A    between atoms: C_5  and  C_6
REMARK    2  A    between atoms: C_6  and  C_7
REMARK    3  A    between atoms: N_10  and  C_11
REMARK    4  A    between atoms: C_11  and  C_12
REMARK    5  A    between atoms: C_12  and  C_13
REMARK    6  A    between atoms: C_13  and  C_14
REMARK    7  A    between atoms: C_14  and  N_15
REMARK                            x       y       z     vdW  Elec       q    Type
REMARK                         _______ _______ _______ _____ _____    ______ ____
ROOT
ATOM      1  C   UNL     1       4.245   4.381  17.262  0.00  0.00    +0.000 C 
ATOM      2  C   UNL     1       5.028   4.636  15.973  0.00  0.00    +0.000 C 
ATOM      3  C   UNL     1       6.005   5.775  16.232  0.00  0.00    +0.000 C 
ATOM      4  N   UNL     1       5.364   7.008  16.716  0.00  0.00    +0.000 NA
ATOM      5  C   UNL     1       4.358   6.801  17.773  0.00  0.00    +0.000 C 
ATOM      6  C   UNL     1       3.398   5.629  17.507  0.00  0.00    +0.000 C 
ENDROOT
BRANCH   1   7
ATOM      7  C   UNL     1       3.476   3.055  17.245  0.00  0.00    +0.000 C 
BRANCH   7  12
ATOM      8  F   UNL     1       0.823   2.701  22.218  0.00  0.00    +0.000 F 
ATOM      9  C   UNL     1       1.449   2.724  21.034  0.00  0.00    +0.000 A 
ATOM     10  C   UNL     1       0.703   2.846  19.871  0.00  0.00    +0.000 A 
ATOM     11  C   UNL     1       1.357   2.888  18.640  0.00  0.00    +0.000 A 
ATOM     12  C   UNL     1       2.762   2.845  18.570  0.00  0.00    +0.000 A 
ATOM     13  C   UNL     1       3.493   2.698  19.756  0.00  0.00    +0.000 A 
ATOM     14  C   UNL     1       2.836   2.636  20.988  0.00  0.00    +0.000 A 
ENDBRANCH   7  12
ENDBRANCH   1   7
BRANCH   4  15
ATOM     15  C   UNL     1       6.381   7.971  17.183  0.00  0.00    +0.000 C 
BRANCH  15  16
ATOM     16  C   UNL     1       7.741   7.337  17.492  0.00  0.00    +0.000 C 
BRANCH  16  17
ATOM     17  C   UNL     1       8.478   8.079  18.607  0.00  0.00    +0.000 C 
BRANCH  17  18
ATOM     18  C   UNL     1       8.447   9.583  18.354  0.00  0.00    +0.000 C 
BRANCH  18  19
ATOM     19  N   UNL     1       9.720  10.210  18.704  0.00  0.00    +0.000 NA
ATOM     20  O   UNL     1      10.142  11.202  17.730  0.00  0.00    +0.000 OA
ATOM     21  C   UNL     1       9.370  12.398  17.811  0.00  0.00    +0.000 C 
ATOM     22  C   UNL     1       9.400  12.992  19.221  0.00  0.00    +0.000 C 
ATOM     23  C   UNL     1       8.504  14.246  19.301  0.00  0.00    +0.000 C 
ATOM     24  C   UNL     1       9.417  15.390  19.727  0.00  0.00    +0.000 C 
ATOM     25  C   UNL     1      10.796  14.968  19.252  0.00  0.00    +0.000 C 
ATOM     26  C   UNL     1      10.823  13.481  19.571  0.00  0.00    +0.000 C 
ATOM     27  C   UNL     1       8.940  11.907  20.194  0.00  0.00    +0.000 C 
ATOM     28  O   UNL     1       9.710  10.714  20.066  0.00  0.00    +0.000 OA
ENDBRANCH  18  19
ENDBRANCH  17  18
ENDBRANCH  16  17
ENDBRANCH  15  16
ENDBRANCH   4  15
TORSDOF 7
ENDMDL
