MODEL 1
REMARK VINA RESULT:      -7.8      0.000      0.000
REMARK  Name = 
REMARK  2 active torsions:
REMARK  status: ('A' for Active; 'I' for Inactive)
REMARK    1  A    between atoms: C_1  and  C_2
REMARK    2  A    between atoms: C_3  and  C_4
REMARK                            x       y       z     vdW  Elec       q    Type
REMARK                         _______ _______ _______ _____ _____    ______ ____
ROOT
ATOM      1  C   UNL     1       2.596   4.784  21.057  0.00  0.00    +0.000 C 
ATOM      2  C   UNL     1       3.194   5.208  19.735  0.00  0.00    +0.000 A 
ATOM      3  C   UNL     1       4.050   4.411  19.036  0.00  0.00    +0.000 A 
ATOM      4  C   UNL     1       4.626   4.845  17.741  0.00  0.00    +0.000 A 
ATOM      5  C   UNL     1       5.510   4.037  17.007  0.00  0.00    +0.000 A 
ATOM      6  C   UNL     1       6.033   4.483  15.791  0.00  0.00    +0.000 A 
ATOM      7  C   UNL     1       5.679   5.735  15.295  0.00  0.00    +0.000 A 
ATOM      8  C   UNL     1       4.802   6.550  16.011  0.00  0.00    +0.000 A 
ATOM      9  C   UNL     1       4.275   6.114  17.232  0.00  0.00    +0.000 A 
ATOM     10  C   UNL     1       3.352   6.947  18.007  0.00  0.00    +0.000 A 
ATOM     11  N   UNL     1       2.902   8.147  17.713  0.00  0.00    +0.000 NA
ATOM     12  C   UNL     1       2.076   8.486  18.751  0.00  0.00    +0.000 A 
ATOM     13  C   UNL     1       1.338   9.668  18.935  0.00  0.00    +0.000 A 
ATOM     14  C   UNL     1       0.549   9.811  20.081  0.00  0.00    +0.000 A 
ATOM     15  C   UNL     1       0.492   8.798  21.030  0.00  0.00    +0.000 A 
ATOM     16  C   UNL     1       1.220   7.615  20.864  0.00  0.00    +0.000 A 
ATOM     17  C   UNL     1       2.012   7.475  19.710  0.00  0.00    +0.000 A 
ATOM     18  N   UNL     1       2.846   6.476  19.218  0.00  0.00    +0.000 N 
ENDROOT
BRANCH   3  19
ATOM     19  C   UNL     1       4.398   3.056  19.628  0.00  0.00    +0.000 C 
ATOM     20  N   UNL     1       4.688   1.930  20.118  0.00  0.00    +0.000 NA
ENDBRANCH   3  19
TORSDOF 1
ENDMDL
MODEL 2
REMARK VINA RESULT:      -7.7      1.334      5.252
REMARK  Name = 
REMARK  2 active torsions:
REMARK  status: ('A' for Active; 'I' for Inactive)
REMARK    1  A    between atoms: C_1  and  C_2
REMARK    2  A    between atoms: C_3  and  C_4
REMARK                            x       y       z     vdW  Elec       q    Type
REMARK                         _______ _______ _______ _____ _____    ______ ____
ROOT
ATOM      1  C   UNL     1       3.939   2.620  19.066  0.00  0.00    +0.000 C 
ATOM      2  C   UNL     1       3.480   4.059  19.090  0.00  0.00    +0.000 A 
ATOM      3  C   UNL     1       2.660   4.544  20.065  0.00  0.00    +0.000 A 
ATOM      4  C   UNL     1       2.220   5.959  20.072  0.00  0.00    +0.000 A 
ATOM      5  C   UNL     1       1.376   6.475  21.070  0.00  0.00    +0.000 A 
ATOM      6  C   UNL     1       0.983   7.815  21.040  0.00  0.00    +0.000 A 
ATOM      7  C   UNL     1       1.428   8.652  20.020  0.00  0.00    +0.000 A 
ATOM      8  C   UNL     1       2.267   8.156  19.022  0.00  0.00    +0.000 A 
ATOM      9  C   UNL     1       2.665   6.814  19.041  0.00  0.00    +0.000 A 
ATOM     10  C   UNL     1       3.545   6.264  18.007  0.00  0.00    +0.000 A 
ATOM     11  N   UNL     1       4.066   6.884  16.971  0.00  0.00    +0.000 NA
ATOM     12  C   UNL     1       4.807   5.936  16.319  0.00  0.00    +0.000 A 
ATOM     13  C   UNL     1       5.571   6.073  15.147  0.00  0.00    +0.000 A 
ATOM     14  C   UNL     1       6.258   4.963  14.644  0.00  0.00    +0.000 A 
ATOM     15  C   UNL     1       6.190   3.736  15.294  0.00  0.00    +0.000 A 
ATOM     16  C   UNL     1       5.435   3.581  16.462  0.00  0.00    +0.000 A 
ATOM     17  C   UNL     1       4.745   4.700  16.964  0.00  0.00    +0.000 A 
ATOM     18  N   UNL     1       3.921   4.922  18.062  0.00  0.00    +0.000 N 
ENDROOT
BRANCH   3  19
ATOM     19  C   UNL     1       2.208   3.583  21.152  0.00  0.00    +0.000 C 
ATOM     20  N   UNL     1       1.833   2.785  22.054  0.00  0.00    +0.000 NA
ENDBRANCH   3  19
TORSDOF 1
ENDMDL
MODEL 3
REMARK VINA RESULT:      -7.5      1.734      5.946
REMARK  Name = 
REMARK  2 active torsions:
REMARK  status: ('A' for Active; 'I' for Inactive)
REMARK    1  A    between atoms: C_1  and  C_2
REMARK    2  A    between atoms: C_3  and  C_4
REMARK                            x       y       z     vdW  Elec       q    Type
REMARK                         _______ _______ _______ _____ _____    ______ ____
ROOT
ATOM      1  C   UNL     1       3.549   7.761  17.740  0.00  0.00    +0.000 C 
ATOM      2  C   UNL     1       3.321   6.373  18.293  0.00  0.00    +0.000 A 
ATOM      3  C   UNL     1       2.540   6.146  19.386  0.00  0.00    +0.000 A 
ATOM      4  C   UNL     1       2.328   4.777  19.914  0.00  0.00    +0.000 A 
ATOM      5  C   UNL     1       1.527   4.524  21.040  0.00  0.00    +0.000 A 
ATOM      6  C   UNL     1       1.353   3.220  21.506  0.00  0.00    +0.000 A 
ATOM      7  C   UNL     1       1.973   2.156  20.856  0.00  0.00    +0.000 A 
ATOM      8  C   UNL     1       2.772   2.389  19.736  0.00  0.00    +0.000 A 
ATOM      9  C   UNL     1       2.954   3.693  19.262  0.00  0.00    +0.000 A 
ATOM     10  C   UNL     1       3.787   3.969  18.089  0.00  0.00    +0.000 A 
ATOM     11  N   UNL     1       4.451   3.111  17.346  0.00  0.00    +0.000 NA
ATOM     12  C   UNL     1       5.064   3.867  16.383  0.00  0.00    +0.000 A 
ATOM     13  C   UNL     1       5.898   3.444  15.333  0.00  0.00    +0.000 A 
ATOM     14  C   UNL     1       6.426   4.394  14.453  0.00  0.00    +0.000 A 
ATOM     15  C   UNL     1       6.132   5.743  14.610  0.00  0.00    +0.000 A 
ATOM     16  C   UNL     1       5.304   6.183  15.649  0.00  0.00    +0.000 A 
ATOM     17  C   UNL     1       4.775   5.224  16.532  0.00  0.00    +0.000 A 
ATOM     18  N   UNL     1       3.943   5.282  17.645  0.00  0.00    +0.000 N 
ENDROOT
BRANCH   3  19
ATOM     19  C   UNL     1       1.889   7.346  20.053  0.00  0.00    +0.000 C 
ATOM     20  N   UNL     1       1.350   8.343  20.606  0.00  0.00    +0.000 NA
ENDBRANCH   3  19
TORSDOF 1
ENDMDL
MODEL 4
REMARK VINA RESULT:      -7.1      1.444      3.669
REMARK  Name = 
REMARK  2 active torsions:
REMARK  status: ('A' for Active; 'I' for Inactive)
REMARK    1  A    between atoms: C_1  and  C_2
REMARK    2  A    between atoms: C_3  and  C_4
REMARK                            x       y       z     vdW  Elec       q    Type
REMARK                         _______ _______ _______ _____ _____    ______ ____
ROOT
ATOM      1  C   UNL     1       4.083   7.014  16.748  0.00  0.00    +0.000 C 
ATOM      2  C   UNL     1       3.611   6.213  17.939  0.00  0.00    +0.000 A 
ATOM      3  C   UNL     1       3.997   4.923  18.146  0.00  0.00    +0.000 A 
ATOM      4  C   UNL     1       3.523   4.154  19.321  0.00  0.00    +0.000 A 
ATOM      5  C   UNL     1       3.911   2.823  19.551  0.00  0.00    +0.000 A 
ATOM      6  C   UNL     1       3.441   2.132  20.669  0.00  0.00    +0.000 A 
ATOM      7  C   UNL     1       2.583   2.759  21.569  0.00  0.00    +0.000 A 
ATOM      8  C   UNL     1       2.187   4.080  21.357  0.00  0.00    +0.000 A 
ATOM      9  C   UNL     1       2.651   4.781  20.238  0.00  0.00    +0.000 A 
ATOM     10  C   UNL     1       2.254   6.169  19.987  0.00  0.00    +0.000 A 
ATOM     11  N   UNL     1       1.459   6.928  20.709  0.00  0.00    +0.000 NA
ATOM     12  C   UNL     1       1.412   8.128  20.052  0.00  0.00    +0.000 A 
ATOM     13  C   UNL     1       0.705   9.292  20.400  0.00  0.00    +0.000 A 
ATOM     14  C   UNL     1       0.796  10.420  19.578  0.00  0.00    +0.000 A 
ATOM     15  C   UNL     1       1.578  10.396  18.430  0.00  0.00    +0.000 A 
ATOM     16  C   UNL     1       2.289   9.246  18.067  0.00  0.00    +0.000 A 
ATOM     17  C   UNL     1       2.194   8.114  18.897  0.00  0.00    +0.000 A 
ATOM     18  N   UNL     1       2.739   6.834  18.862  0.00  0.00    +0.000 N 
ENDROOT
BRANCH   3  19
ATOM     19  C   UNL     1       4.935   4.293  17.131  0.00  0.00    +0.000 C 
ATOM     20  N   UNL     1       5.713   3.770  16.287  0.00  0.00    +0.000 NA
ENDBRANCH   3  19
TORSDOF 1
ENDMDL
MODEL 5
REMARK VINA RESULT:      -6.7      1.672      3.762
REMARK  Name = 
REMARK  2 active torsions:
REMARK  status: ('A' for Active; 'I' for Inactive)
REMARK    1  A    between atoms: C_1  and  C_2
REMARK    2  A    between atoms: C_3  and  C_4
REMARK                            x       y       z     vdW  Elec       q    Type
REMARK                         _______ _______ _______ _____ _____    ______ ____
ROOT
ATOM      1  C   UNL     1       3.317   7.998  17.278  0.00  0.00    +0.000 C 
ATOM      2  C   UNL     1       3.022   6.949  18.325  0.00  0.00    +0.000 A 
ATOM      3  C   UNL     1       3.523   5.684  18.248  0.00  0.00    +0.000 A 
ATOM      4  C   UNL     1       3.222   4.669  19.285  0.00  0.00    +0.000 A 
ATOM      5  C   UNL     1       3.730   3.360  19.222  0.00  0.00    +0.000 A 
ATOM      6  C   UNL     1       3.422   2.433  20.219  0.00  0.00    +0.000 A 
ATOM      7  C   UNL     1       2.608   2.800  21.288  0.00  0.00    +0.000 A 
ATOM      8  C   UNL     1       2.095   4.095  21.367  0.00  0.00    +0.000 A 
ATOM      9  C   UNL     1       2.396   5.032  20.372  0.00  0.00    +0.000 A 
ATOM     10  C   UNL     1       1.873   6.399  20.426  0.00  0.00    +0.000 A 
ATOM     11  N   UNL     1       1.096   6.934  21.342  0.00  0.00    +0.000 NA
ATOM     12  C   UNL     1       0.895   8.225  20.936  0.00  0.00    +0.000 A 
ATOM     13  C   UNL     1       0.138   9.234  21.557  0.00  0.00    +0.000 A 
ATOM     14  C   UNL     1       0.065  10.499  20.964  0.00  0.00    +0.000 A 
ATOM     15  C   UNL     1       0.734  10.761  19.775  0.00  0.00    +0.000 A 
ATOM     16  C   UNL     1       1.493   9.770  19.142  0.00  0.00    +0.000 A 
ATOM     17  C   UNL     1       1.563   8.499  19.741  0.00  0.00    +0.000 A 
ATOM     18  N   UNL     1       2.197   7.304  19.416  0.00  0.00    +0.000 N 
ENDROOT
BRANCH   3  19
ATOM     19  C   UNL     1       4.405   5.343  17.059  0.00  0.00    +0.000 C 
ATOM     20  N   UNL     1       5.138   5.061  16.072  0.00  0.00    +0.000 NA
ENDBRANCH   3  19
TORSDOF 1
ENDMDL
MODEL 6
REMARK VINA RESULT:      -6.5      2.303      7.349
REMARK  Name = 
REMARK  2 active torsions:
REMARK  status: ('A' for Active; 'I' for Inactive)
REMARK    1  A    between atoms: C_1  and  C_2
REMARK    2  A    between atoms: C_3  and  C_4
REMARK                            x       y       z     vdW  Elec       q    Type
REMARK                         _______ _______ _______ _____ _____    ______ ____
ROOT
ATOM      1  C   UNL     1       2.227  10.031  17.600  0.00  0.00    +0.000 C 
ATOM      2  C   UNL     1       1.558   9.856  18.944  0.00  0.00    +0.000 A 
ATOM      3  C   UNL     1       0.881  10.869  19.555  0.00  0.00    +0.000 A 
ATOM      4  C   UNL     1       0.232  10.678  20.874  0.00  0.00    +0.000 A 
ATOM      5  C   UNL     1      -0.470  11.711  21.519  0.00  0.00    +0.000 A 
ATOM      6  C   UNL     1      -1.068  11.491  22.761  0.00  0.00    +0.000 A 
ATOM      7  C   UNL     1      -0.974  10.243  23.372  0.00  0.00    +0.000 A 
ATOM      8  C   UNL     1      -0.281   9.207  22.745  0.00  0.00    +0.000 A 
ATOM      9  C   UNL     1       0.323   9.417  21.501  0.00  0.00    +0.000 A 
ATOM     10  C   UNL     1       1.058   8.349  20.818  0.00  0.00    +0.000 A 
ATOM     11  N   UNL     1       1.259   7.115  21.226  0.00  0.00    +0.000 NA
ATOM     12  C   UNL     1       1.996   6.524  20.235  0.00  0.00    +0.000 A 
ATOM     13  C   UNL     1       2.481   5.206  20.170  0.00  0.00    +0.000 A 
ATOM     14  C   UNL     1       3.223   4.804  19.054  0.00  0.00    +0.000 A 
ATOM     15  C   UNL     1       3.480   5.695  18.018  0.00  0.00    +0.000 A 
ATOM     16  C   UNL     1       3.005   7.011  18.066  0.00  0.00    +0.000 A 
ATOM     17  C   UNL     1       2.259   7.410  19.190  0.00  0.00    +0.000 A 
ATOM     18  N   UNL     1       1.644   8.596  19.578  0.00  0.00    +0.000 N 
ENDROOT
BRANCH   3  19
ATOM     19  C   UNL     1       0.812  12.208  18.840  0.00  0.00    +0.000 C 
ATOM     20  N   UNL     1       0.755  13.319  18.247  0.00  0.00    +0.000 NA
ENDBRANCH   3  19
TORSDOF 1
ENDMDL
MODEL 7
REMARK VINA RESULT:      -6.3      5.371      8.216
REMARK  Name = 
REMARK  2 active torsions:
REMARK  status: ('A' for Active; 'I' for Inactive)
REMARK    1  A    between atoms: C_1  and  C_2
REMARK    2  A    between atoms: C_3  and  C_4
REMARK                            x       y       z     vdW  Elec       q    Type
REMARK                         _______ _______ _______ _____ _____    ______ ____
ROOT
ATOM      1  C   UNL     1       0.748  11.204  20.768  0.00  0.00    +0.000 C 
ATOM      2  C   UNL     1      -0.501  11.266  19.920  0.00  0.00    +0.000 A 
ATOM      3  C   UNL     1      -0.605  10.609  18.731  0.00  0.00    +0.000 A 
ATOM      4  C   UNL     1      -1.839  10.681  17.913  0.00  0.00    +0.000 A 
ATOM      5  C   UNL     1      -1.964  10.010  16.685  0.00  0.00    +0.000 A 
ATOM      6  C   UNL     1      -3.143  10.104  15.944  0.00  0.00    +0.000 A 
ATOM      7  C   UNL     1      -4.208  10.866  16.418  0.00  0.00    +0.000 A 
ATOM      8  C   UNL     1      -4.101  11.539  17.635  0.00  0.00    +0.000 A 
ATOM      9  C   UNL     1      -2.923  11.452  18.385  0.00  0.00    +0.000 A 
ATOM     10  C   UNL     1      -2.780  12.148  19.667  0.00  0.00    +0.000 A 
ATOM     11  N   UNL     1      -3.661  12.909  20.278  0.00  0.00    +0.000 NA
ATOM     12  C   UNL     1      -3.047  13.315  21.433  0.00  0.00    +0.000 A 
ATOM     13  C   UNL     1      -3.550  14.145  22.450  0.00  0.00    +0.000 A 
ATOM     14  C   UNL     1      -2.745  14.437  23.556  0.00  0.00    +0.000 A 
ATOM     15  C   UNL     1      -1.461  13.913  23.653  0.00  0.00    +0.000 A 
ATOM     16  C   UNL     1      -0.944  13.085  22.651  0.00  0.00    +0.000 A 
ATOM     17  C   UNL     1      -1.757  12.794  21.540  0.00  0.00    +0.000 A 
ATOM     18  N   UNL     1      -1.591  12.035  20.386  0.00  0.00    +0.000 N 
ENDROOT
BRANCH   3  19
ATOM     19  C   UNL     1       0.590   9.793  18.266  0.00  0.00    +0.000 C 
ATOM     20  N   UNL     1       1.581   9.115  17.881  0.00  0.00    +0.000 NA
ENDBRANCH   3  19
TORSDOF 1
ENDMDL
MODEL 8
REMARK VINA RESULT:      -6.3      3.085      4.311
REMARK  Name = 
REMARK  2 active torsions:
REMARK  status: ('A' for Active; 'I' for Inactive)
REMARK    1  A    between atoms: C_1  and  C_2
REMARK    2  A    between atoms: C_3  and  C_4
REMARK                            x       y       z     vdW  Elec       q    Type
REMARK                         _______ _______ _______ _____ _____    ______ ____
ROOT
ATOM      1  C   UNL     1       5.180   5.977  19.732  0.00  0.00    +0.000 C 
ATOM      2  C   UNL     1       5.183   5.362  18.352  0.00  0.00    +0.000 A 
ATOM      3  C   UNL     1       6.146   5.648  17.431  0.00  0.00    +0.000 A 
ATOM      4  C   UNL     1       6.132   5.035  16.082  0.00  0.00    +0.000 A 
ATOM      5  C   UNL     1       7.117   5.318  15.121  0.00  0.00    +0.000 A 
ATOM      6  C   UNL     1       7.067   4.720  13.860  0.00  0.00    +0.000 A 
ATOM      7  C   UNL     1       6.039   3.835  13.545  0.00  0.00    +0.000 A 
ATOM      8  C   UNL     1       5.052   3.544  14.488  0.00  0.00    +0.000 A 
ATOM      9  C   UNL     1       5.092   4.138  15.754  0.00  0.00    +0.000 A 
ATOM     10  C   UNL     1       4.071   3.852  16.765  0.00  0.00    +0.000 A 
ATOM     11  N   UNL     1       3.030   3.056  16.662  0.00  0.00    +0.000 NA
ATOM     12  C   UNL     1       2.394   3.135  17.872  0.00  0.00    +0.000 A 
ATOM     13  C   UNL     1       1.225   2.479  18.294  0.00  0.00    +0.000 A 
ATOM     14  C   UNL     1       0.741   2.707  19.587  0.00  0.00    +0.000 A 
ATOM     15  C   UNL     1       1.407   3.571  20.448  0.00  0.00    +0.000 A 
ATOM     16  C   UNL     1       2.572   4.233  20.045  0.00  0.00    +0.000 A 
ATOM     17  C   UNL     1       3.055   4.001  18.745  0.00  0.00    +0.000 A 
ATOM     18  N   UNL     1       4.146   4.463  18.015  0.00  0.00    +0.000 N 
ENDROOT
BRANCH   3  19
ATOM     19  C   UNL     1       7.244   6.619  17.833  0.00  0.00    +0.000 C 
ATOM     20  N   UNL     1       8.154   7.427  18.166  0.00  0.00    +0.000 NA
ENDBRANCH   3  19
TORSDOF 1
ENDMDL
MODEL 9
REMARK VINA RESULT:      -6.2      1.352      2.119
REMARK  Name = 
REMARK  2 active torsions:
REMARK  status: ('A' for Active; 'I' for Inactive)
REMARK    1  A    between atoms: C_1  and  C_2
REMARK    2  A    between atoms: C_3  and  C_4
REMARK                            x       y       z     vdW  Elec       q    Type
REMARK                         _______ _______ _______ _____ _____    ______ ____
ROOT
ATOM      1  C   UNL     1       0.888   7.064  21.364  0.00  0.00    +0.000 C 
ATOM      2  C   UNL     1       1.791   6.954  20.157  0.00  0.00    +0.000 A 
ATOM      3  C   UNL     1       2.481   5.815  19.868  0.00  0.00    +0.000 A 
ATOM      4  C   UNL     1       3.362   5.726  18.679  0.00  0.00    +0.000 A 
ATOM      5  C   UNL     1       4.081   4.560  18.366  0.00  0.00    +0.000 A 
ATOM      6  C   UNL     1       4.902   4.517  17.237  0.00  0.00    +0.000 A 
ATOM      7  C   UNL     1       5.012   5.632  16.410  0.00  0.00    +0.000 A 
ATOM      8  C   UNL     1       4.305   6.798  16.706  0.00  0.00    +0.000 A 
ATOM      9  C   UNL     1       3.481   6.852  17.836  0.00  0.00    +0.000 A 
ATOM     10  C   UNL     1       2.726   8.061  18.173  0.00  0.00    +0.000 A 
ATOM     11  N   UNL     1       2.698   9.206  17.527  0.00  0.00    +0.000 NA
ATOM     12  C   UNL     1       1.848  10.004  18.244  0.00  0.00    +0.000 A 
ATOM     13  C   UNL     1       1.464  11.332  17.987  0.00  0.00    +0.000 A 
ATOM     14  C   UNL     1       0.574  11.968  18.859  0.00  0.00    +0.000 A 
ATOM     15  C   UNL     1       0.072  11.299  19.968  0.00  0.00    +0.000 A 
ATOM     16  C   UNL     1       0.443   9.977  20.240  0.00  0.00    +0.000 A 
ATOM     17  C   UNL     1       1.338   9.341  19.361  0.00  0.00    +0.000 A 
ATOM     18  N   UNL     1       1.915   8.076  19.307  0.00  0.00    +0.000 N 
ENDROOT
BRANCH   3  19
ATOM     19  C   UNL     1       2.320   4.632  20.807  0.00  0.00    +0.000 C 
ATOM     20  N   UNL     1       2.185   3.650  21.587  0.00  0.00    +0.000 NA
ENDBRANCH   3  19
TORSDOF 1
ENDMDL
