MODEL 1
REMARK VINA RESULT:      -8.5      0.000      0.000
REMARK  Name = 
REMARK  10 active torsions:
REMARK  status: ('A' for Active; 'I' for Inactive)
REMARK    1  A    between atoms: C_1  and  C_2
REMARK    2  A    between atoms: C_2  and  C_3
REMARK    3  A    between atoms: C_3  and  C_4
REMARK    4  A    between atoms: C_4  and  N_5
REMARK    5  A    between atoms: C_9  and  C_10
REMARK    6  A    between atoms: C_10  and  C_11
REMARK    7  A    between atoms: C_10  and  N_20
REMARK    8  A    between atoms: N_23  and  C_24
REMARK    9  A    between atoms: C_24  and  C_25
REMARK   10  A    between atoms: C_26  and  C_27
REMARK                            x       y       z     vdW  Elec       q    Type
REMARK                         _______ _______ _______ _____ _____    ______ ____
ROOT
ATOM      1  C   UNL     1       5.303   4.357  17.156  0.00  0.00    +0.000 C 
ENDROOT
BRANCH   1   2
ATOM      2  C   UNL     1       5.709   4.298  15.715  0.00  0.00    +0.000 A 
ATOM      3  C   UNL     1       6.921   4.321  15.020  0.00  0.00    +0.000 A 
ATOM      4  C   UNL     1       6.596   4.062  13.655  0.00  0.00    +0.000 A 
ATOM      5  C   UNL     1       7.261   3.913  12.438  0.00  0.00    +0.000 A 
ATOM      6  C   UNL     1       6.664   3.054  11.501  0.00  0.00    +0.000 A 
ATOM      7  C   UNL     1       5.289   2.845  11.527  0.00  0.00    +0.000 A 
ATOM      8  C   UNL     1       4.508   3.433  12.515  0.00  0.00    +0.000 A 
ATOM      9  C   UNL     1       5.225   3.881  13.615  0.00  0.00    +0.000 A 
ATOM     10  O   UNL     1       4.700   4.156  14.820  0.00  0.00    +0.000 OA
ENDBRANCH   1   2
BRANCH   1  11
ATOM     11  N   UNL     1       5.527   5.646  17.847  0.00  0.00    +0.000 NA
ATOM     12  C   UNL     1       6.422   5.616  19.002  0.00  0.00    +0.000 C 
ATOM     13  C   UNL     1       7.868   6.099  18.813  0.00  0.00    +0.000 C 
ATOM     14  N   UNL     1       8.073   7.336  18.044  0.00  0.00    +0.000 NA
ATOM     15  C   UNL     1       7.130   7.488  16.927  0.00  0.00    +0.000 C 
ATOM     16  C   UNL     1       5.722   6.846  17.020  0.00  0.00    +0.000 C 
BRANCH  14  17
ATOM     17  C   UNL     1       8.258   8.469  18.942  0.00  0.00    +0.000 C 
BRANCH  17  18
ATOM     18  C   UNL     1       8.703   9.765  18.332  0.00  0.00    +0.000 C 
ATOM     19  C   UNL     1       9.628  10.532  18.933  0.00  0.00    +0.000 C 
BRANCH  19  20
ATOM     20  C   UNL     1      10.078  11.812  18.401  0.00  0.00    +0.000 A 
ATOM     21  C   UNL     1      11.300  11.869  17.722  0.00  0.00    +0.000 A 
ATOM     22  C   UNL     1      11.736  13.068  17.161  0.00  0.00    +0.000 A 
ATOM     23  C   UNL     1      10.956  14.215  17.279  0.00  0.00    +0.000 A 
ATOM     24  C   UNL     1       9.737  14.167  17.958  0.00  0.00    +0.000 A 
ATOM     25  C   UNL     1       9.296  12.963  18.519  0.00  0.00    +0.000 A 
ENDBRANCH  19  20
ENDBRANCH  17  18
ENDBRANCH  14  17
ENDBRANCH   1  11
BRANCH   1  30
ATOM     26  N   UNL     1       2.831   4.823  17.606  0.00  0.00    +0.000 N 
ATOM     27  N   UNL     1       1.682   4.095  17.634  0.00  0.00    +0.000 NA
ATOM     28  N   UNL     1       2.034   2.845  17.429  0.00  0.00    +0.000 NA
ATOM     29  N   UNL     1       3.384   2.731  17.267  0.00  0.00    +0.000 NA
ATOM     30  C   UNL     1       3.876   3.939  17.396  0.00  0.00    +0.000 A 
BRANCH  26  31
ATOM     31  C   UNL     1       2.760   6.125  18.239  0.00  0.00    +0.000 C 
BRANCH  31  32
ATOM     32  C   UNL     1       2.094   6.348  19.595  0.00  0.00    +0.000 C 
BRANCH  32  34
ATOM     33  C   UNL     1       1.622   4.180  20.922  0.00  0.00    +0.000 C 
ATOM     34  C   UNL     1       2.463   5.440  20.771  0.00  0.00    +0.000 C 
ENDBRANCH  32  34
ENDBRANCH  31  32
ENDBRANCH  26  31
ENDBRANCH   1  30
TORSDOF 9
ENDMDL
MODEL 2
REMARK VINA RESULT:      -8.5      0.700      1.322
REMARK  Name = 
REMARK  10 active torsions:
REMARK  status: ('A' for Active; 'I' for Inactive)
REMARK    1  A    between atoms: C_1  and  C_2
REMARK    2  A    between atoms: C_2  and  C_3
REMARK    3  A    between atoms: C_3  and  C_4
REMARK    4  A    between atoms: C_4  and  N_5
REMARK    5  A    between atoms: C_9  and  C_10
REMARK    6  A    between atoms: C_10  and  C_11
REMARK    7  A    between atoms: C_10  and  N_20
REMARK    8  A    between atoms: N_23  and  C_24
REMARK    9  A    between atoms: C_24  and  C_25
REMARK   10  A    between atoms: C_26  and  C_27
REMARK                            x       y       z     vdW  Elec       q    Type
REMARK                         _______ _______ _______ _____ _____    ______ ____
ROOT
ATOM      1  C   UNL     1       5.375   4.444  17.285  0.00  0.00    +0.000 C 
ENDROOT
BRANCH   1   2
ATOM      2  C   UNL     1       5.779   4.412  15.843  0.00  0.00    +0.000 A 
ATOM      3  C   UNL     1       6.981   4.530  15.142  0.00  0.00    +0.000 A 
ATOM      4  C   UNL     1       6.673   4.239  13.779  0.00  0.00    +0.000 A 
ATOM      5  C   UNL     1       7.343   4.139  12.560  0.00  0.00    +0.000 A 
ATOM      6  C   UNL     1       6.813   3.231  11.629  0.00  0.00    +0.000 A 
ATOM      7  C   UNL     1       5.460   2.910  11.663  0.00  0.00    +0.000 A 
ATOM      8  C   UNL     1       4.638   3.437  12.652  0.00  0.00    +0.000 A 
ATOM      9  C   UNL     1       5.321   3.947  13.747  0.00  0.00    +0.000 A 
ATOM     10  O   UNL     1       4.780   4.184  14.953  0.00  0.00    +0.000 OA
ENDBRANCH   1   2
BRANCH   1  11
ATOM     11  N   UNL     1       5.642   5.705  18.011  0.00  0.00    +0.000 NA
ATOM     12  C   UNL     1       6.583   5.625  19.127  0.00  0.00    +0.000 C 
ATOM     13  C   UNL     1       8.025   6.100  18.896  0.00  0.00    +0.000 C 
ATOM     14  N   UNL     1       8.213   7.362  18.163  0.00  0.00    +0.000 NA
ATOM     15  C   UNL     1       7.227   7.563  17.092  0.00  0.00    +0.000 C 
ATOM     16  C   UNL     1       5.817   6.932  17.219  0.00  0.00    +0.000 C 
BRANCH  14  17
ATOM     17  C   UNL     1       8.448   8.460  19.092  0.00  0.00    +0.000 C 
BRANCH  17  18
ATOM     18  C   UNL     1       8.854   9.780  18.508  0.00  0.00    +0.000 C 
ATOM     19  C   UNL     1       9.583  10.657  19.219  0.00  0.00    +0.000 C 
BRANCH  19  20
ATOM     20  C   UNL     1       9.983  11.964  18.713  0.00  0.00    +0.000 A 
ATOM     21  C   UNL     1       9.647  13.105  19.448  0.00  0.00    +0.000 A 
ATOM     22  C   UNL     1      10.055  14.366  19.015  0.00  0.00    +0.000 A 
ATOM     23  C   UNL     1      10.798  14.491  17.843  0.00  0.00    +0.000 A 
ATOM     24  C   UNL     1      11.134  13.357  17.102  0.00  0.00    +0.000 A 
ATOM     25  C   UNL     1      10.728  12.091  17.538  0.00  0.00    +0.000 A 
ENDBRANCH  19  20
ENDBRANCH  17  18
ENDBRANCH  14  17
ENDBRANCH   1  11
BRANCH   1  30
ATOM     26  N   UNL     1       2.898   4.979  17.611  0.00  0.00    +0.000 N 
ATOM     27  N   UNL     1       1.737   4.271  17.668  0.00  0.00    +0.000 NA
ATOM     28  N   UNL     1       2.077   3.003  17.587  0.00  0.00    +0.000 NA
ATOM     29  N   UNL     1       3.429   2.858  17.480  0.00  0.00    +0.000 NA
ATOM     30  C   UNL     1       3.935   4.067  17.515  0.00  0.00    +0.000 A 
BRANCH  26  31
ATOM     31  C   UNL     1       2.826   6.333  18.121  0.00  0.00    +0.000 C 
BRANCH  31  32
ATOM     32  C   UNL     1       2.478   6.651  19.574  0.00  0.00    +0.000 C 
BRANCH  32  34
ATOM     33  C   UNL     1       1.622   8.944  18.739  0.00  0.00    +0.000 C 
ATOM     34  C   UNL     1       1.830   7.997  19.913  0.00  0.00    +0.000 C 
ENDBRANCH  32  34
ENDBRANCH  31  32
ENDBRANCH  26  31
ENDBRANCH   1  30
TORSDOF 9
ENDMDL
MODEL 3
REMARK VINA RESULT:      -8.4      0.937      1.508
REMARK  Name = 
REMARK  10 active torsions:
REMARK  status: ('A' for Active; 'I' for Inactive)
REMARK    1  A    between atoms: C_1  and  C_2
REMARK    2  A    between atoms: C_2  and  C_3
REMARK    3  A    between atoms: C_3  and  C_4
REMARK    4  A    between atoms: C_4  and  N_5
REMARK    5  A    between atoms: C_9  and  C_10
REMARK    6  A    between atoms: C_10  and  C_11
REMARK    7  A    between atoms: C_10  and  N_20
REMARK    8  A    between atoms: N_23  and  C_24
REMARK    9  A    between atoms: C_24  and  C_25
REMARK   10  A    between atoms: C_26  and  C_27
REMARK                            x       y       z     vdW  Elec       q    Type
REMARK                         _______ _______ _______ _____ _____    ______ ____
ROOT
ATOM      1  C   UNL     1       5.023   4.268  17.577  0.00  0.00    +0.000 C 
ENDROOT
BRANCH   1   2
ATOM      2  C   UNL     1       5.567   4.082  16.194  0.00  0.00    +0.000 A 
ATOM      3  C   UNL     1       5.097   3.516  15.006  0.00  0.00    +0.000 A 
ATOM      4  C   UNL     1       6.072   3.826  14.010  0.00  0.00    +0.000 A 
ATOM      5  C   UNL     1       6.263   3.623  12.643  0.00  0.00    +0.000 A 
ATOM      6  C   UNL     1       6.994   4.609  11.962  0.00  0.00    +0.000 A 
ATOM      7  C   UNL     1       7.926   5.382  12.648  0.00  0.00    +0.000 A 
ATOM      8  C   UNL     1       8.095   5.227  14.018  0.00  0.00    +0.000 A 
ATOM      9  C   UNL     1       7.049   4.568  14.649  0.00  0.00    +0.000 A 
ATOM     10  O   UNL     1       6.802   4.597  15.969  0.00  0.00    +0.000 OA
ENDBRANCH   1   2
BRANCH   1  11
ATOM     11  N   UNL     1       5.371   5.538  18.252  0.00  0.00    +0.000 NA
ATOM     12  C   UNL     1       6.459   5.478  19.226  0.00  0.00    +0.000 C 
ATOM     13  C   UNL     1       7.849   5.969  18.793  0.00  0.00    +0.000 C 
ATOM     14  N   UNL     1       7.916   7.228  18.034  0.00  0.00    +0.000 NA
ATOM     15  C   UNL     1       6.788   7.409  17.110  0.00  0.00    +0.000 C 
ATOM     16  C   UNL     1       5.417   6.761  17.437  0.00  0.00    +0.000 C 
BRANCH  14  17
ATOM     17  C   UNL     1       8.263   8.336  18.916  0.00  0.00    +0.000 C 
BRANCH  17  18
ATOM     18  C   UNL     1       8.713   9.613  18.271  0.00  0.00    +0.000 C 
ATOM     19  C   UNL     1       9.697  10.352  18.811  0.00  0.00    +0.000 C 
BRANCH  19  20
ATOM     20  C   UNL     1      10.157  11.613  18.243  0.00  0.00    +0.000 A 
ATOM     21  C   UNL     1      11.518  11.773  17.967  0.00  0.00    +0.000 A 
ATOM     22  C   UNL     1      11.983  12.949  17.380  0.00  0.00    +0.000 A 
ATOM     23  C   UNL     1      11.089  13.972  17.073  0.00  0.00    +0.000 A 
ATOM     24  C   UNL     1       9.729  13.821  17.349  0.00  0.00    +0.000 A 
ATOM     25  C   UNL     1       9.262  12.640  17.934  0.00  0.00    +0.000 A 
ENDBRANCH  19  20
ENDBRANCH  17  18
ENDBRANCH  14  17
ENDBRANCH   1  11
BRANCH   1  30
ATOM     26  N   UNL     1       2.720   4.735  18.581  0.00  0.00    +0.000 N 
ATOM     27  N   UNL     1       1.430   4.438  18.264  0.00  0.00    +0.000 NA
ATOM     28  N   UNL     1       1.481   3.669  17.199  0.00  0.00    +0.000 NA
ATOM     29  N   UNL     1       2.769   3.450  16.807  0.00  0.00    +0.000 NA
ATOM     30  C   UNL     1       3.530   4.085  17.666  0.00  0.00    +0.000 A 
BRANCH  26  31
ATOM     31  C   UNL     1       2.940   5.182  19.941  0.00  0.00    +0.000 C 
BRANCH  31  32
ATOM     32  C   UNL     1       1.999   4.825  21.091  0.00  0.00    +0.000 C 
BRANCH  32  34
ATOM     33  C   UNL     1       3.065   2.470  21.070  0.00  0.00    +0.000 C 
ATOM     34  C   UNL     1       2.036   3.412  21.679  0.00  0.00    +0.000 C 
ENDBRANCH  32  34
ENDBRANCH  31  32
ENDBRANCH  26  31
ENDBRANCH   1  30
TORSDOF 9
ENDMDL
MODEL 4
REMARK VINA RESULT:      -8.2      4.401      8.823
REMARK  Name = 
REMARK  10 active torsions:
REMARK  status: ('A' for Active; 'I' for Inactive)
REMARK    1  A    between atoms: C_1  and  C_2
REMARK    2  A    between atoms: C_2  and  C_3
REMARK    3  A    between atoms: C_3  and  C_4
REMARK    4  A    between atoms: C_4  and  N_5
REMARK    5  A    between atoms: C_9  and  C_10
REMARK    6  A    between atoms: C_10  and  C_11
REMARK    7  A    between atoms: C_10  and  N_20
REMARK    8  A    between atoms: N_23  and  C_24
REMARK    9  A    between atoms: C_24  and  C_25
REMARK   10  A    between atoms: C_26  and  C_27
REMARK                            x       y       z     vdW  Elec       q    Type
REMARK                         _______ _______ _______ _____ _____    ______ ____
ROOT
ATOM      1  C   UNL     1       4.013   6.193  17.563  0.00  0.00    +0.000 C 
ENDROOT
BRANCH   1   2
ATOM      2  C   UNL     1       3.682   5.004  18.413  0.00  0.00    +0.000 A 
ATOM      3  C   UNL     1       4.413   4.095  19.182  0.00  0.00    +0.000 A 
ATOM      4  C   UNL     1       3.450   3.299  19.872  0.00  0.00    +0.000 A 
ATOM      5  C   UNL     1       3.434   2.255  20.797  0.00  0.00    +0.000 A 
ATOM      6  C   UNL     1       2.334   2.210  21.668  0.00  0.00    +0.000 A 
ATOM      7  C   UNL     1       1.118   2.764  21.282  0.00  0.00    +0.000 A 
ATOM      8  C   UNL     1       1.000   3.417  20.062  0.00  0.00    +0.000 A 
ATOM      9  C   UNL     1       2.211   3.785  19.494  0.00  0.00    +0.000 A 
ATOM     10  O   UNL     1       2.364   4.705  18.528  0.00  0.00    +0.000 OA
ENDBRANCH   1   2
BRANCH   1  11
ATOM     11  N   UNL     1       3.751   7.519  18.164  0.00  0.00    +0.000 NA
ATOM     12  C   UNL     1       3.090   8.502  17.308  0.00  0.00    +0.000 C 
ATOM     13  C   UNL     1       1.584   8.733  17.498  0.00  0.00    +0.000 C 
ATOM     14  N   UNL     1       1.085   8.846  18.878  0.00  0.00    +0.000 NA
ATOM     15  C   UNL     1       1.784   7.963  19.822  0.00  0.00    +0.000 C 
ATOM     16  C   UNL     1       3.258   7.562  19.549  0.00  0.00    +0.000 C 
BRANCH  14  17
ATOM     17  C   UNL     1       0.920  10.247  19.247  0.00  0.00    +0.000 C 
BRANCH  17  18
ATOM     18  C   UNL     1      -0.419  10.872  18.987  0.00  0.00    +0.000 C 
ATOM     19  C   UNL     1      -1.301  10.297  18.153  0.00  0.00    +0.000 C 
BRANCH  19  20
ATOM     20  C   UNL     1      -2.604  10.873  17.842  0.00  0.00    +0.000 A 
ATOM     21  C   UNL     1      -3.141  10.678  16.566  0.00  0.00    +0.000 A 
ATOM     22  C   UNL     1      -4.405  11.176  16.252  0.00  0.00    +0.000 A 
ATOM     23  C   UNL     1      -5.135  11.873  17.211  0.00  0.00    +0.000 A 
ATOM     24  C   UNL     1      -4.604  12.074  18.487  0.00  0.00    +0.000 A 
ATOM     25  C   UNL     1      -3.337  11.573  18.803  0.00  0.00    +0.000 A 
ENDBRANCH  19  20
ENDBRANCH  17  18
ENDBRANCH  14  17
ENDBRANCH   1  11
BRANCH   1  30
ATOM     26  N   UNL     1       5.808   5.621  15.837  0.00  0.00    +0.000 N 
ATOM     27  N   UNL     1       7.117   5.937  15.637  0.00  0.00    +0.000 NA
ATOM     28  N   UNL     1       7.479   6.672  16.666  0.00  0.00    +0.000 NA
ATOM     29  N   UNL     1       6.444   6.846  17.538  0.00  0.00    +0.000 NA
ATOM     30  C   UNL     1       5.426   6.186  17.042  0.00  0.00    +0.000 A 
BRANCH  26  31
ATOM     31  C   UNL     1       5.323   4.476  15.093  0.00  0.00    +0.000 C 
BRANCH  31  32
ATOM     32  C   UNL     1       6.071   3.892  13.896  0.00  0.00    +0.000 C 
BRANCH  32  34
ATOM     33  C   UNL     1       5.926   2.493  11.726  0.00  0.00    +0.000 C 
ATOM     34  C   UNL     1       5.295   3.551  12.620  0.00  0.00    +0.000 C 
ENDBRANCH  32  34
ENDBRANCH  31  32
ENDBRANCH  26  31
ENDBRANCH   1  30
TORSDOF 9
ENDMDL
MODEL 5
REMARK VINA RESULT:      -8.2      1.110      1.693
REMARK  Name = 
REMARK  10 active torsions:
REMARK  status: ('A' for Active; 'I' for Inactive)
REMARK    1  A    between atoms: C_1  and  C_2
REMARK    2  A    between atoms: C_2  and  C_3
REMARK    3  A    between atoms: C_3  and  C_4
REMARK    4  A    between atoms: C_4  and  N_5
REMARK    5  A    between atoms: C_9  and  C_10
REMARK    6  A    between atoms: C_10  and  C_11
REMARK    7  A    between atoms: C_10  and  N_20
REMARK    8  A    between atoms: N_23  and  C_24
REMARK    9  A    between atoms: C_24  and  C_25
REMARK   10  A    between atoms: C_26  and  C_27
REMARK                            x       y       z     vdW  Elec       q    Type
REMARK                         _______ _______ _______ _____ _____    ______ ____
ROOT
ATOM      1  C   UNL     1       5.434   4.190  17.334  0.00  0.00    +0.000 C 
ENDROOT
BRANCH   1   2
ATOM      2  C   UNL     1       5.909   4.068  15.919  0.00  0.00    +0.000 A 
ATOM      3  C   UNL     1       5.394   3.526  14.738  0.00  0.00    +0.000 A 
ATOM      4  C   UNL     1       6.304   3.900  13.704  0.00  0.00    +0.000 A 
ATOM      5  C   UNL     1       6.427   3.748  12.323  0.00  0.00    +0.000 A 
ATOM      6  C   UNL     1       7.090   4.781  11.639  0.00  0.00    +0.000 A 
ATOM      7  C   UNL     1       8.032   5.561  12.301  0.00  0.00    +0.000 A 
ATOM      8  C   UNL     1       8.279   5.366  13.654  0.00  0.00    +0.000 A 
ATOM      9  C   UNL     1       7.290   4.653  14.316  0.00  0.00    +0.000 A 
ATOM     10  O   UNL     1       7.113   4.630  15.647  0.00  0.00    +0.000 OA
ENDBRANCH   1   2
BRANCH   1  11
ATOM     11  N   UNL     1       5.568   5.526  17.956  0.00  0.00    +0.000 NA
ATOM     12  C   UNL     1       6.478   5.623  19.096  0.00  0.00    +0.000 C 
ATOM     13  C   UNL     1       7.880   6.203  18.858  0.00  0.00    +0.000 C 
ATOM     14  N   UNL     1       7.981   7.412  18.025  0.00  0.00    +0.000 NA
ATOM     15  C   UNL     1       7.014   7.435  16.918  0.00  0.00    +0.000 C 
ATOM     16  C   UNL     1       5.660   6.693  17.067  0.00  0.00    +0.000 C 
BRANCH  14  17
ATOM     17  C   UNL     1       8.091   8.600  18.862  0.00  0.00    +0.000 C 
BRANCH  17  18
ATOM     18  C   UNL     1       9.069   9.653  18.436  0.00  0.00    +0.000 C 
ATOM     19  C   UNL     1       9.679  10.439  19.340  0.00  0.00    +0.000 C 
BRANCH  19  20
ATOM     20  C   UNL     1      10.617  11.495  18.982  0.00  0.00    +0.000 A 
ATOM     21  C   UNL     1      10.738  11.864  17.638  0.00  0.00    +0.000 A 
ATOM     22  C   UNL     1      11.591  12.903  17.269  0.00  0.00    +0.000 A 
ATOM     23  C   UNL     1      12.330  13.573  18.240  0.00  0.00    +0.000 A 
ATOM     24  C   UNL     1      12.218  13.208  19.582  0.00  0.00    +0.000 A 
ATOM     25  C   UNL     1      11.359  12.169  19.955  0.00  0.00    +0.000 A 
ENDBRANCH  19  20
ENDBRANCH  17  18
ENDBRANCH  14  17
ENDBRANCH   1  11
BRANCH   1  30
ATOM     26  N   UNL     1       2.913   4.556  17.538  0.00  0.00    +0.000 N 
ATOM     27  N   UNL     1       1.806   3.767  17.597  0.00  0.00    +0.000 NA
ATOM     28  N   UNL     1       2.240   2.526  17.607  0.00  0.00    +0.000 NA
ATOM     29  N   UNL     1       3.603   2.477  17.558  0.00  0.00    +0.000 NA
ATOM     30  C   UNL     1       4.017   3.721  17.536  0.00  0.00    +0.000 A 
BRANCH  26  31
ATOM     31  C   UNL     1       2.723   5.929  17.960  0.00  0.00    +0.000 C 
BRANCH  31  32
ATOM     32  C   UNL     1       2.432   6.315  19.409  0.00  0.00    +0.000 C 
BRANCH  32  34
ATOM     33  C   UNL     1       1.329   7.941  21.090  0.00  0.00    +0.000 C 
ATOM     34  C   UNL     1       1.981   7.743  19.729  0.00  0.00    +0.000 C 
ENDBRANCH  32  34
ENDBRANCH  31  32
ENDBRANCH  26  31
ENDBRANCH   1  30
TORSDOF 9
ENDMDL
MODEL 6
REMARK VINA RESULT:      -8.1      2.671      4.898
REMARK  Name = 
REMARK  10 active torsions:
REMARK  status: ('A' for Active; 'I' for Inactive)
REMARK    1  A    between atoms: C_1  and  C_2
REMARK    2  A    between atoms: C_2  and  C_3
REMARK    3  A    between atoms: C_3  and  C_4
REMARK    4  A    between atoms: C_4  and  N_5
REMARK    5  A    between atoms: C_9  and  C_10
REMARK    6  A    between atoms: C_10  and  C_11
REMARK    7  A    between atoms: C_10  and  N_20
REMARK    8  A    between atoms: N_23  and  C_24
REMARK    9  A    between atoms: C_24  and  C_25
REMARK   10  A    between atoms: C_26  and  C_27
REMARK                            x       y       z     vdW  Elec       q    Type
REMARK                         _______ _______ _______ _____ _____    ______ ____
ROOT
ATOM      1  C   UNL     1       3.840   4.727  17.782  0.00  0.00    +0.000 C 
ENDROOT
BRANCH   1   2
ATOM      2  C   UNL     1       3.020   5.780  18.461  0.00  0.00    +0.000 A 
ATOM      3  C   UNL     1       2.748   6.131  19.786  0.00  0.00    +0.000 A 
ATOM      4  C   UNL     1       2.009   7.351  19.726  0.00  0.00    +0.000 A 
ATOM      5  C   UNL     1       1.441   8.267  20.612  0.00  0.00    +0.000 A 
ATOM      6  C   UNL     1       1.382   9.601  20.175  0.00  0.00    +0.000 A 
ATOM      7  C   UNL     1       1.335   9.886  18.815  0.00  0.00    +0.000 A 
ATOM      8  C   UNL     1       1.408   8.862  17.879  0.00  0.00    +0.000 A 
ATOM      9  C   UNL     1       1.898   7.666  18.383  0.00  0.00    +0.000 A 
ATOM     10  O   UNL     1       2.385   6.657  17.643  0.00  0.00    +0.000 OA
ENDBRANCH   1   2
BRANCH   1  11
ATOM     11  N   UNL     1       5.162   5.156  17.272  0.00  0.00    +0.000 NA
ATOM     12  C   UNL     1       5.204   6.441  16.578  0.00  0.00    +0.000 C 
ATOM     13  C   UNL     1       5.721   7.665  17.348  0.00  0.00    +0.000 C 
ATOM     14  N   UNL     1       6.934   7.489  18.164  0.00  0.00    +0.000 NA
ATOM     15  C   UNL     1       7.014   6.170  18.806  0.00  0.00    +0.000 C 
ATOM     16  C   UNL     1       6.334   4.948  18.135  0.00  0.00    +0.000 C 
BRANCH  14  17
ATOM     17  C   UNL     1       8.106   7.972  17.444  0.00  0.00    +0.000 C 
BRANCH  17  18
ATOM     18  C   UNL     1       8.979   8.970  18.145  0.00  0.00    +0.000 C 
ATOM     19  C   UNL     1       8.608  10.257  18.257  0.00  0.00    +0.000 C 
BRANCH  19  20
ATOM     20  C   UNL     1       9.427  11.275  18.903  0.00  0.00    +0.000 A 
ATOM     21  C   UNL     1       9.904  12.343  18.136  0.00  0.00    +0.000 A 
ATOM     22  C   UNL     1      10.652  13.357  18.734  0.00  0.00    +0.000 A 
ATOM     23  C   UNL     1      10.928  13.306  20.098  0.00  0.00    +0.000 A 
ATOM     24  C   UNL     1      10.457  12.241  20.868  0.00  0.00    +0.000 A 
ATOM     25  C   UNL     1       9.705  11.224  20.270  0.00  0.00    +0.000 A 
ENDBRANCH  19  20
ENDBRANCH  17  18
ENDBRANCH  14  17
ENDBRANCH   1  11
BRANCH   1  30
ATOM     26  N   UNL     1       3.352   2.303  18.427  0.00  0.00    +0.000 N 
ATOM     27  N   UNL     1       3.900   1.377  19.260  0.00  0.00    +0.000 NA
ATOM     28  N   UNL     1       4.879   1.986  19.893  0.00  0.00    +0.000 NA
ATOM     29  N   UNL     1       4.989   3.288  19.499  0.00  0.00    +0.000 NA
ATOM     30  C   UNL     1       4.041   3.489  18.616  0.00  0.00    +0.000 A 
BRANCH  26  31
ATOM     31  C   UNL     1       2.009   2.011  17.969  0.00  0.00    +0.000 C 
BRANCH  31  32
ATOM     32  C   UNL     1       0.783   2.131  18.874  0.00  0.00    +0.000 C 
BRANCH  32  34
ATOM     33  C   UNL     1       1.319   2.850  21.299  0.00  0.00    +0.000 C 
ATOM     34  C   UNL     1       0.744   3.229  19.941  0.00  0.00    +0.000 C 
ENDBRANCH  32  34
ENDBRANCH  31  32
ENDBRANCH  26  31
ENDBRANCH   1  30
TORSDOF 9
ENDMDL
MODEL 7
REMARK VINA RESULT:      -7.9      4.403      8.306
REMARK  Name = 
REMARK  10 active torsions:
REMARK  status: ('A' for Active; 'I' for Inactive)
REMARK    1  A    between atoms: C_1  and  C_2
REMARK    2  A    between atoms: C_2  and  C_3
REMARK    3  A    between atoms: C_3  and  C_4
REMARK    4  A    between atoms: C_4  and  N_5
REMARK    5  A    between atoms: C_9  and  C_10
REMARK    6  A    between atoms: C_10  and  C_11
REMARK    7  A    between atoms: C_10  and  N_20
REMARK    8  A    between atoms: N_23  and  C_24
REMARK    9  A    between atoms: C_24  and  C_25
REMARK   10  A    between atoms: C_26  and  C_27
REMARK                            x       y       z     vdW  Elec       q    Type
REMARK                         _______ _______ _______ _____ _____    ______ ____
ROOT
ATOM      1  C   UNL     1       4.194   6.080  16.903  0.00  0.00    +0.000 C 
ENDROOT
BRANCH   1   2
ATOM      2  C   UNL     1       3.643   4.771  17.377  0.00  0.00    +0.000 A 
ATOM      3  C   UNL     1       4.187   3.568  17.835  0.00  0.00    +0.000 A 
ATOM      4  C   UNL     1       3.082   2.782  18.283  0.00  0.00    +0.000 A 
ATOM      5  C   UNL     1       2.863   1.533  18.865  0.00  0.00    +0.000 A 
ATOM      6  C   UNL     1       1.745   1.426  19.708  0.00  0.00    +0.000 A 
ATOM      7  C   UNL     1       0.652   2.266  19.523  0.00  0.00    +0.000 A 
ATOM      8  C   UNL     1       0.682   3.254  18.547  0.00  0.00    +0.000 A 
ATOM      9  C   UNL     1       1.955   3.560  18.087  0.00  0.00    +0.000 A 
ATOM     10  O   UNL     1       2.290   4.680  17.427  0.00  0.00    +0.000 OA
ENDBRANCH   1   2
BRANCH   1  11
ATOM     11  N   UNL     1       4.060   7.223  17.835  0.00  0.00    +0.000 NA
ATOM     12  C   UNL     1       3.396   8.414  17.309  0.00  0.00    +0.000 C 
ATOM     13  C   UNL     1       1.925   8.650  17.684  0.00  0.00    +0.000 C 
ATOM     14  N   UNL     1       1.540   8.432  19.087  0.00  0.00    +0.000 NA
ATOM     15  C   UNL     1       2.254   7.313  19.717  0.00  0.00    +0.000 C 
ATOM     16  C   UNL     1       3.676   6.935  19.225  0.00  0.00    +0.000 C 
BRANCH  14  17
ATOM     17  C   UNL     1       1.488   9.700  19.804  0.00  0.00    +0.000 C 
BRANCH  17  18
ATOM     18  C   UNL     1       0.134  10.219  20.186  0.00  0.00    +0.000 C 
ATOM     19  C   UNL     1      -0.009  11.127  21.166  0.00  0.00    +0.000 C 
BRANCH  19  20
ATOM     20  C   UNL     1      -1.301  11.646  21.597  0.00  0.00    +0.000 A 
ATOM     21  C   UNL     1      -1.656  11.537  22.945  0.00  0.00    +0.000 A 
ATOM     22  C   UNL     1      -2.865  12.064  23.398  0.00  0.00    +0.000 A 
ATOM     23  C   UNL     1      -3.724  12.698  22.505  0.00  0.00    +0.000 A 
ATOM     24  C   UNL     1      -3.378  12.808  21.157  0.00  0.00    +0.000 A 
ATOM     25  C   UNL     1      -2.164  12.282  20.702  0.00  0.00    +0.000 A 
ENDBRANCH  19  20
ENDBRANCH  17  18
ENDBRANCH  14  17
ENDBRANCH   1  11
BRANCH   1  30
ATOM     26  N   UNL     1       6.054   5.406  15.286  0.00  0.00    +0.000 N 
ATOM     27  N   UNL     1       7.385   5.661  15.157  0.00  0.00    +0.000 NA
ATOM     28  N   UNL     1       7.722   6.393  16.196  0.00  0.00    +0.000 NA
ATOM     29  N   UNL     1       6.650   6.625  17.007  0.00  0.00    +0.000 NA
ATOM     30  C   UNL     1       5.632   6.004  16.462  0.00  0.00    +0.000 A 
BRANCH  26  31
ATOM     31  C   UNL     1       5.560   4.275  14.528  0.00  0.00    +0.000 C 
BRANCH  31  32
ATOM     32  C   UNL     1       6.005   3.981  13.097  0.00  0.00    +0.000 C 
BRANCH  32  34
ATOM     33  C   UNL     1       4.199   3.435  11.329  0.00  0.00    +0.000 C 
ATOM     34  C   UNL     1       5.264   2.916  12.285  0.00  0.00    +0.000 C 
ENDBRANCH  32  34
ENDBRANCH  31  32
ENDBRANCH  26  31
ENDBRANCH   1  30
TORSDOF 9
ENDMDL
MODEL 8
REMARK VINA RESULT:      -7.9      4.732      7.715
REMARK  Name = 
REMARK  10 active torsions:
REMARK  status: ('A' for Active; 'I' for Inactive)
REMARK    1  A    between atoms: C_1  and  C_2
REMARK    2  A    between atoms: C_2  and  C_3
REMARK    3  A    between atoms: C_3  and  C_4
REMARK    4  A    between atoms: C_4  and  N_5
REMARK    5  A    between atoms: C_9  and  C_10
REMARK    6  A    between atoms: C_10  and  C_11
REMARK    7  A    between atoms: C_10  and  N_20
REMARK    8  A    between atoms: N_23  and  C_24
REMARK    9  A    between atoms: C_24  and  C_25
REMARK   10  A    between atoms: C_26  and  C_27
REMARK                            x       y       z     vdW  Elec       q    Type
REMARK                         _______ _______ _______ _____ _____    ______ ____
ROOT
ATOM      1  C   UNL     1       2.902   5.818  20.424  0.00  0.00    +0.000 C 
ENDROOT
BRANCH   1   2
ATOM      2  C   UNL     1       4.015   5.727  19.425  0.00  0.00    +0.000 A 
ATOM      3  C   UNL     1       5.319   5.226  19.430  0.00  0.00    +0.000 A 
ATOM      4  C   UNL     1       5.779   5.314  18.081  0.00  0.00    +0.000 A 
ATOM      5  C   UNL     1       6.922   4.992  17.349  0.00  0.00    +0.000 A 
ATOM      6  C   UNL     1       6.724   4.651  16.002  0.00  0.00    +0.000 A 
ATOM      7  C   UNL     1       5.621   5.146  15.313  0.00  0.00    +0.000 A 
ATOM      8  C   UNL     1       4.678   5.928  15.968  0.00  0.00    +0.000 A 
ATOM      9  C   UNL     1       4.727   5.839  17.352  0.00  0.00    +0.000 A 
ATOM     10  O   UNL     1       3.738   6.202  18.185  0.00  0.00    +0.000 OA
ENDBRANCH   1   2
BRANCH   1  11
ATOM     11  N   UNL     1       1.777   6.711  20.070  0.00  0.00    +0.000 NA
ATOM     12  C   UNL     1       0.972   7.213  21.182  0.00  0.00    +0.000 C 
ATOM     13  C   UNL     1       1.229   8.645  21.675  0.00  0.00    +0.000 C 
ATOM     14  N   UNL     1       1.395   9.693  20.655  0.00  0.00    +0.000 NA
ATOM     15  C   UNL     1       2.102   9.226  19.454  0.00  0.00    +0.000 C 
ATOM     16  C   UNL     1       2.008   7.734  19.040  0.00  0.00    +0.000 C 
BRANCH  14  17
ATOM     17  C   UNL     1       0.150  10.429  20.473  0.00  0.00    +0.000 C 
BRANCH  17  18
ATOM     18  C   UNL     1      -0.452  10.432  19.099  0.00  0.00    +0.000 C 
ATOM     19  C   UNL     1      -1.777  10.581  18.924  0.00  0.00    +0.000 C 
BRANCH  19  20
ATOM     20  C   UNL     1      -2.419  10.565  17.616  0.00  0.00    +0.000 A 
ATOM     21  C   UNL     1      -1.929   9.699  16.634  0.00  0.00    +0.000 A 
ATOM     22  C   UNL     1      -2.551   9.625  15.388  0.00  0.00    +0.000 A 
ATOM     23  C   UNL     1      -3.662  10.420  15.118  0.00  0.00    +0.000 A 
ATOM     24  C   UNL     1      -4.155  11.289  16.093  0.00  0.00    +0.000 A 
ATOM     25  C   UNL     1      -3.534  11.361  17.344  0.00  0.00    +0.000 A 
ENDBRANCH  19  20
ENDBRANCH  17  18
ENDBRANCH  14  17
ENDBRANCH   1  11
BRANCH   1  30
ATOM     26  N   UNL     1       1.835   3.553  19.911  0.00  0.00    +0.000 N 
ATOM     27  N   UNL     1       1.550   2.419  20.608  0.00  0.00    +0.000 NA
ATOM     28  N   UNL     1       1.886   2.661  21.856  0.00  0.00    +0.000 NA
ATOM     29  N   UNL     1       2.382   3.924  22.000  0.00  0.00    +0.000 NA
ATOM     30  C   UNL     1       2.332   4.479  20.813  0.00  0.00    +0.000 A 
BRANCH  26  31
ATOM     31  C   UNL     1       1.153   3.690  18.640  0.00  0.00    +0.000 C 
BRANCH  31  32
ATOM     32  C   UNL     1       1.857   3.493  17.299  0.00  0.00    +0.000 C 
BRANCH  32  34
ATOM     33  C   UNL     1       4.039   2.209  17.825  0.00  0.00    +0.000 C 
ATOM     34  C   UNL     1       2.713   2.243  17.078  0.00  0.00    +0.000 C 
ENDBRANCH  32  34
ENDBRANCH  31  32
ENDBRANCH  26  31
ENDBRANCH   1  30
TORSDOF 9
ENDMDL
MODEL 9
REMARK VINA RESULT:      -7.9      0.976      1.636
REMARK  Name = 
REMARK  10 active torsions:
REMARK  status: ('A' for Active; 'I' for Inactive)
REMARK    1  A    between atoms: C_1  and  C_2
REMARK    2  A    between atoms: C_2  and  C_3
REMARK    3  A    between atoms: C_3  and  C_4
REMARK    4  A    between atoms: C_4  and  N_5
REMARK    5  A    between atoms: C_9  and  C_10
REMARK    6  A    between atoms: C_10  and  C_11
REMARK    7  A    between atoms: C_10  and  N_20
REMARK    8  A    between atoms: N_23  and  C_24
REMARK    9  A    between atoms: C_24  and  C_25
REMARK   10  A    between atoms: C_26  and  C_27
REMARK                            x       y       z     vdW  Elec       q    Type
REMARK                         _______ _______ _______ _____ _____    ______ ____
ROOT
ATOM      1  C   UNL     1       5.372   4.344  17.321  0.00  0.00    +0.000 C 
ENDROOT
BRANCH   1   2
ATOM      2  C   UNL     1       5.814   4.407  15.891  0.00  0.00    +0.000 A 
ATOM      3  C   UNL     1       7.014   4.680  15.230  0.00  0.00    +0.000 A 
ATOM      4  C   UNL     1       6.774   4.405  13.850  0.00  0.00    +0.000 A 
ATOM      5  C   UNL     1       7.482   4.422  12.648  0.00  0.00    +0.000 A 
ATOM      6  C   UNL     1       7.079   3.495  11.673  0.00  0.00    +0.000 A 
ATOM      7  C   UNL     1       5.768   3.029  11.657  0.00  0.00    +0.000 A 
ATOM      8  C   UNL     1       4.868   3.428  12.638  0.00  0.00    +0.000 A 
ATOM      9  C   UNL     1       5.463   3.970  13.768  0.00  0.00    +0.000 A 
ATOM     10  O   UNL     1       4.869   4.105  14.965  0.00  0.00    +0.000 OA
ENDBRANCH   1   2
BRANCH   1  11
ATOM     11  N   UNL     1       5.603   5.561  18.131  0.00  0.00    +0.000 NA
ATOM     12  C   UNL     1       6.676   5.487  19.121  0.00  0.00    +0.000 C 
ATOM     13  C   UNL     1       8.027   6.131  18.775  0.00  0.00    +0.000 C 
ATOM     14  N   UNL     1       8.002   7.464  18.152  0.00  0.00    +0.000 NA
ATOM     15  C   UNL     1       6.878   7.649  17.223  0.00  0.00    +0.000 C 
ATOM     16  C   UNL     1       5.561   6.862  17.447  0.00  0.00    +0.000 C 
BRANCH  14  17
ATOM     17  C   UNL     1       8.241   8.499  19.151  0.00  0.00    +0.000 C 
BRANCH  17  18
ATOM     18  C   UNL     1       9.192   9.600  18.785  0.00  0.00    +0.000 C 
ATOM     19  C   UNL     1       8.740  10.785  18.341  0.00  0.00    +0.000 C 
BRANCH  19  20
ATOM     20  C   UNL     1       9.617  11.881  17.946  0.00  0.00    +0.000 A 
ATOM     21  C   UNL     1       9.134  13.191  18.019  0.00  0.00    +0.000 A 
ATOM     22  C   UNL     1       9.963  14.264  17.693  0.00  0.00    +0.000 A 
ATOM     23  C   UNL     1      11.275  14.031  17.289  0.00  0.00    +0.000 A 
ATOM     24  C   UNL     1      11.762  12.725  17.211  0.00  0.00    +0.000 A 
ATOM     25  C   UNL     1      10.933  11.648  17.541  0.00  0.00    +0.000 A 
ENDBRANCH  19  20
ENDBRANCH  17  18
ENDBRANCH  14  17
ENDBRANCH   1  11
BRANCH   1  30
ATOM     26  N   UNL     1       3.454   3.187  18.549  0.00  0.00    +0.000 N 
ATOM     27  N   UNL     1       2.098   3.147  18.439  0.00  0.00    +0.000 NA
ATOM     28  N   UNL     1       1.793   3.859  17.377  0.00  0.00    +0.000 NA
ATOM     29  N   UNL     1       2.913   4.365  16.783  0.00  0.00    +0.000 NA
ATOM     30  C   UNL     1       3.932   3.937  17.488  0.00  0.00    +0.000 A 
BRANCH  26  31
ATOM     31  C   UNL     1       4.045   2.136  19.352  0.00  0.00    +0.000 C 
BRANCH  31  32
ATOM     32  C   UNL     1       4.049   2.166  20.880  0.00  0.00    +0.000 C 
BRANCH  32  34
ATOM     33  C   UNL     1       2.277   3.858  21.707  0.00  0.00    +0.000 C 
ATOM     34  C   UNL     1       2.735   2.408  21.629  0.00  0.00    +0.000 C 
ENDBRANCH  32  34
ENDBRANCH  31  32
ENDBRANCH  26  31
ENDBRANCH   1  30
TORSDOF 9
ENDMDL
