MODEL 1
REMARK VINA RESULT:      -5.7      0.000      0.000
REMARK  Name = 
REMARK  4 active torsions:
REMARK  status: ('A' for Active; 'I' for Inactive)
REMARK    1  A    between atoms: C_1  and  C_2
REMARK    2  A    between atoms: C_7  and  O_8
REMARK    3  A    between atoms: O_8  and  C_9
REMARK    4  A    between atoms: C_9  and  C_10
REMARK                            x       y       z     vdW  Elec       q    Type
REMARK                         _______ _______ _______ _____ _____    ______ ____
ROOT
ATOM      1  C   UNL     1       1.660   4.275  17.673  0.00  0.00    +0.000 C 
ATOM      2  C   UNL     1       2.003   3.687  19.006  0.00  0.00    +0.000 A 
ATOM      3  N   UNL     1       0.950   3.600  19.879  0.00  0.00    +0.000 NA
ATOM      4  C   UNL     1       1.188   3.069  21.099  0.00  0.00    +0.000 A 
ATOM      5  C   UNL     1       2.425   2.618  21.506  0.00  0.00    +0.000 A 
ATOM      6  C   UNL     1       3.485   2.713  20.610  0.00  0.00    +0.000 A 
ATOM      7  C   UNL     1       3.304   3.265  19.333  0.00  0.00    +0.000 A 
ENDROOT
BRANCH   7   8
ATOM      8  O   UNL     1       4.313   3.404  18.401  0.00  0.00    +0.000 OA
BRANCH   8   9
ATOM      9  C   UNL     1       5.301   4.393  18.749  0.00  0.00    +0.000 C 
BRANCH   9  10
ATOM     10  C   UNL     1       5.948   5.042  17.529  0.00  0.00    +0.000 C 
ATOM     11  C   UNL     1       5.404   4.786  16.101  0.00  0.00    +0.000 C 
ATOM     12  C   UNL     1       6.890   4.642  15.712  0.00  0.00    +0.000 C 
ATOM     13  N   UNL     1       7.157   4.249  17.111  0.00  0.00    +0.000 NA
ATOM     14  H   UNL     1       8.045   4.568  17.491  0.00  0.00    +0.000 HD
ENDBRANCH   9  10
ENDBRANCH   8   9
ENDBRANCH   7   8
TORSDOF 3
ENDMDL
MODEL 2
REMARK VINA RESULT:      -5.6      1.812      5.719
REMARK  Name = 
REMARK  4 active torsions:
REMARK  status: ('A' for Active; 'I' for Inactive)
REMARK    1  A    between atoms: C_1  and  C_2
REMARK    2  A    between atoms: C_7  and  O_8
REMARK    3  A    between atoms: O_8  and  C_9
REMARK    4  A    between atoms: C_9  and  C_10
REMARK                            x       y       z     vdW  Elec       q    Type
REMARK                         _______ _______ _______ _____ _____    ______ ____
ROOT
ATOM      1  C   UNL     1       7.141   6.895  17.644  0.00  0.00    +0.000 C 
ATOM      2  C   UNL     1       6.638   5.868  16.679  0.00  0.00    +0.000 A 
ATOM      3  N   UNL     1       7.398   5.727  15.548  0.00  0.00    +0.000 NA
ATOM      4  C   UNL     1       7.006   4.809  14.637  0.00  0.00    +0.000 A 
ATOM      5  C   UNL     1       5.889   4.016  14.787  0.00  0.00    +0.000 A 
ATOM      6  C   UNL     1       5.125   4.170  15.941  0.00  0.00    +0.000 A 
ATOM      7  C   UNL     1       5.475   5.114  16.917  0.00  0.00    +0.000 A 
ENDROOT
BRANCH   7   8
ATOM      8  O   UNL     1       4.756   5.330  18.075  0.00  0.00    +0.000 OA
BRANCH   8   9
ATOM      9  C   UNL     1       3.373   5.667  17.854  0.00  0.00    +0.000 C 
BRANCH   9  10
ATOM     10  C   UNL     1       2.409   4.712  18.552  0.00  0.00    +0.000 C 
ATOM     11  C   UNL     1       2.812   3.248  18.861  0.00  0.00    +0.000 C 
ATOM     12  C   UNL     1       1.398   2.900  18.352  0.00  0.00    +0.000 C 
ATOM     13  N   UNL     1       1.445   4.139  17.549  0.00  0.00    +0.000 NA
ATOM     14  H   UNL     1       0.559   4.632  17.458  0.00  0.00    +0.000 HD
ENDBRANCH   9  10
ENDBRANCH   8   9
ENDBRANCH   7   8
TORSDOF 3
ENDMDL
MODEL 3
REMARK VINA RESULT:      -5.6      1.582      5.830
REMARK  Name = 
REMARK  4 active torsions:
REMARK  status: ('A' for Active; 'I' for Inactive)
REMARK    1  A    between atoms: C_1  and  C_2
REMARK    2  A    between atoms: C_7  and  O_8
REMARK    3  A    between atoms: O_8  and  C_9
REMARK    4  A    between atoms: C_9  and  C_10
REMARK                            x       y       z     vdW  Elec       q    Type
REMARK                         _______ _______ _______ _____ _____    ______ ____
ROOT
ATOM      1  C   UNL     1       7.431   6.678  17.791  0.00  0.00    +0.000 C 
ATOM      2  C   UNL     1       6.795   5.745  16.810  0.00  0.00    +0.000 A 
ATOM      3  N   UNL     1       7.449   5.645  15.610  0.00  0.00    +0.000 NA
ATOM      4  C   UNL     1       6.932   4.811  14.681  0.00  0.00    +0.000 A 
ATOM      5  C   UNL     1       5.791   4.065  14.876  0.00  0.00    +0.000 A 
ATOM      6  C   UNL     1       5.136   4.176  16.099  0.00  0.00    +0.000 A 
ATOM      7  C   UNL     1       5.616   5.034  17.100  0.00  0.00    +0.000 A 
ENDROOT
BRANCH   7   8
ATOM      8  O   UNL     1       5.010   5.205  18.328  0.00  0.00    +0.000 OA
BRANCH   8   9
ATOM      9  C   UNL     1       3.582   5.380  18.258  0.00  0.00    +0.000 C 
BRANCH   9  10
ATOM     10  C   UNL     1       2.815   4.322  19.047  0.00  0.00    +0.000 C 
ATOM     11  C   UNL     1       1.421   3.828  18.583  0.00  0.00    +0.000 C 
ATOM     12  C   UNL     1       1.038   3.949  20.072  0.00  0.00    +0.000 C 
ATOM     13  N   UNL     1       2.099   4.968  20.202  0.00  0.00    +0.000 NA
ATOM     14  H   UNL     1       2.601   4.965  21.088  0.00  0.00    +0.000 HD
ENDBRANCH   9  10
ENDBRANCH   8   9
ENDBRANCH   7   8
TORSDOF 3
ENDMDL
MODEL 4
REMARK VINA RESULT:      -5.6      1.852      5.498
REMARK  Name = 
REMARK  4 active torsions:
REMARK  status: ('A' for Active; 'I' for Inactive)
REMARK    1  A    between atoms: C_1  and  C_2
REMARK    2  A    between atoms: C_7  and  O_8
REMARK    3  A    between atoms: O_8  and  C_9
REMARK    4  A    between atoms: C_9  and  C_10
REMARK                            x       y       z     vdW  Elec       q    Type
REMARK                         _______ _______ _______ _____ _____    ______ ____
ROOT
ATOM      1  C   UNL     1       6.291   4.250  14.467  0.00  0.00    +0.000 C 
ATOM      2  C   UNL     1       6.362   4.865  15.829  0.00  0.00    +0.000 A 
ATOM      3  N   UNL     1       7.289   5.866  15.956  0.00  0.00    +0.000 NA
ATOM      4  C   UNL     1       7.400   6.472  17.158  0.00  0.00    +0.000 A 
ATOM      5  C   UNL     1       6.635   6.135  18.254  0.00  0.00    +0.000 A 
ATOM      6  C   UNL     1       5.698   5.117  18.112  0.00  0.00    +0.000 A 
ATOM      7  C   UNL     1       5.544   4.443  16.892  0.00  0.00    +0.000 A 
ENDROOT
BRANCH   7   8
ATOM      8  O   UNL     1       4.646   3.415  16.686  0.00  0.00    +0.000 OA
BRANCH   8   9
ATOM      9  C   UNL     1       4.003   2.946  17.887  0.00  0.00    +0.000 C 
BRANCH   9  10
ATOM     10  C   UNL     1       2.499   2.749  17.717  0.00  0.00    +0.000 C 
ATOM     11  C   UNL     1       1.483   3.693  18.408  0.00  0.00    +0.000 C 
ATOM     12  C   UNL     1       0.722   2.394  18.748  0.00  0.00    +0.000 C 
ATOM     13  N   UNL     1       2.015   1.684  18.663  0.00  0.00    +0.000 NA
ATOM     14  H   UNL     1       1.970   0.742  18.280  0.00  0.00    +0.000 HD
ENDBRANCH   9  10
ENDBRANCH   8   9
ENDBRANCH   7   8
TORSDOF 3
ENDMDL
MODEL 5
REMARK VINA RESULT:      -5.5      2.039      6.083
REMARK  Name = 
REMARK  4 active torsions:
REMARK  status: ('A' for Active; 'I' for Inactive)
REMARK    1  A    between atoms: C_1  and  C_2
REMARK    2  A    between atoms: C_7  and  O_8
REMARK    3  A    between atoms: O_8  and  C_9
REMARK    4  A    between atoms: C_9  and  C_10
REMARK                            x       y       z     vdW  Elec       q    Type
REMARK                         _______ _______ _______ _____ _____    ______ ____
ROOT
ATOM      1  C   UNL     1       7.039   6.246  17.259  0.00  0.00    +0.000 C 
ATOM      2  C   UNL     1       6.662   5.458  16.044  0.00  0.00    +0.000 A 
ATOM      3  N   UNL     1       7.584   5.494  15.032  0.00  0.00    +0.000 NA
ATOM      4  C   UNL     1       7.311   4.796  13.908  0.00  0.00    +0.000 A 
ATOM      5  C   UNL     1       6.162   4.057  13.730  0.00  0.00    +0.000 A 
ATOM      6  C   UNL     1       5.233   4.029  14.765  0.00  0.00    +0.000 A 
ATOM      7  C   UNL     1       5.454   4.743  15.952  0.00  0.00    +0.000 A 
ENDROOT
BRANCH   7   8
ATOM      8  O   UNL     1       4.570   4.773  17.012  0.00  0.00    +0.000 OA
BRANCH   8   9
ATOM      9  C   UNL     1       4.208   3.471  17.511  0.00  0.00    +0.000 C 
BRANCH   9  10
ATOM     10  C   UNL     1       2.700   3.237  17.519  0.00  0.00    +0.000 C 
ATOM     11  C   UNL     1       1.808   3.789  18.659  0.00  0.00    +0.000 C 
ATOM     12  C   UNL     1       1.133   2.402  18.612  0.00  0.00    +0.000 C 
ATOM     13  N   UNL     1       2.399   1.869  18.070  0.00  0.00    +0.000 NA
ATOM     14  H   UNL     1       2.299   1.128  17.379  0.00  0.00    +0.000 HD
ENDBRANCH   9  10
ENDBRANCH   8   9
ENDBRANCH   7   8
TORSDOF 3
ENDMDL
MODEL 6
REMARK VINA RESULT:      -5.5      1.365      1.561
REMARK  Name = 
REMARK  4 active torsions:
REMARK  status: ('A' for Active; 'I' for Inactive)
REMARK    1  A    between atoms: C_1  and  C_2
REMARK    2  A    between atoms: C_7  and  O_8
REMARK    3  A    between atoms: O_8  and  C_9
REMARK    4  A    between atoms: C_9  and  C_10
REMARK                            x       y       z     vdW  Elec       q    Type
REMARK                         _______ _______ _______ _____ _____    ______ ____
ROOT
ATOM      1  C   UNL     1       3.702   2.127  17.784  0.00  0.00    +0.000 C 
ATOM      2  C   UNL     1       2.841   2.806  18.802  0.00  0.00    +0.000 A 
ATOM      3  N   UNL     1       1.529   2.410  18.796  0.00  0.00    +0.000 NA
ATOM      4  C   UNL     1       0.697   2.977  19.697  0.00  0.00    +0.000 A 
ATOM      5  C   UNL     1       1.098   3.925  20.613  0.00  0.00    +0.000 A 
ATOM      6  C   UNL     1       2.433   4.318  20.609  0.00  0.00    +0.000 A 
ATOM      7  C   UNL     1       3.342   3.775  19.690  0.00  0.00    +0.000 A 
ENDROOT
BRANCH   7   8
ATOM      8  O   UNL     1       4.674   4.130  19.619  0.00  0.00    +0.000 OA
BRANCH   8   9
ATOM      9  C   UNL     1       4.901   5.468  19.137  0.00  0.00    +0.000 C 
BRANCH   9  10
ATOM     10  C   UNL     1       6.116   5.571  18.220  0.00  0.00    +0.000 C 
ATOM     11  C   UNL     1       5.969   5.491  16.679  0.00  0.00    +0.000 C 
ATOM     12  C   UNL     1       7.204   4.569  16.750  0.00  0.00    +0.000 C 
ATOM     13  N   UNL     1       6.803   4.235  18.132  0.00  0.00    +0.000 NA
ATOM     14  H   UNL     1       7.570   4.090  18.785  0.00  0.00    +0.000 HD
ENDBRANCH   9  10
ENDBRANCH   8   9
ENDBRANCH   7   8
TORSDOF 3
ENDMDL
MODEL 7
REMARK VINA RESULT:      -5.5      1.253      5.584
REMARK  Name = 
REMARK  4 active torsions:
REMARK  status: ('A' for Active; 'I' for Inactive)
REMARK    1  A    between atoms: C_1  and  C_2
REMARK    2  A    between atoms: C_7  and  O_8
REMARK    3  A    between atoms: O_8  and  C_9
REMARK    4  A    between atoms: C_9  and  C_10
REMARK                            x       y       z     vdW  Elec       q    Type
REMARK                         _______ _______ _______ _____ _____    ______ ____
ROOT
ATOM      1  C   UNL     1       7.066   5.527  19.375  0.00  0.00    +0.000 C 
ATOM      2  C   UNL     1       6.524   4.981  18.092  0.00  0.00    +0.000 A 
ATOM      3  N   UNL     1       7.350   5.139  17.010  0.00  0.00    +0.000 NA
ATOM      4  C   UNL     1       6.926   4.660  15.820  0.00  0.00    +0.000 A 
ATOM      5  C   UNL     1       5.715   4.027  15.641  0.00  0.00    +0.000 A 
ATOM      6  C   UNL     1       4.885   3.873  16.748  0.00  0.00    +0.000 A 
ATOM      7  C   UNL     1       5.265   4.360  18.007  0.00  0.00    +0.000 A 
ENDROOT
BRANCH   7   8
ATOM      8  O   UNL     1       4.486   4.256  19.142  0.00  0.00    +0.000 OA
BRANCH   8   9
ATOM      9  C   UNL     1       4.342   2.910  19.634  0.00  0.00    +0.000 C 
BRANCH   9  10
ATOM     10  C   UNL     1       2.897   2.552  19.970  0.00  0.00    +0.000 C 
ATOM     11  C   UNL     1       1.768   3.610  19.889  0.00  0.00    +0.000 C 
ATOM     12  C   UNL     1       1.301   3.009  21.231  0.00  0.00    +0.000 C 
ATOM     13  N   UNL     1       2.697   2.586  21.461  0.00  0.00    +0.000 NA
ATOM     14  H   UNL     1       2.809   1.696  21.942  0.00  0.00    +0.000 HD
ENDBRANCH   9  10
ENDBRANCH   8   9
ENDBRANCH   7   8
TORSDOF 3
ENDMDL
MODEL 8
REMARK VINA RESULT:      -5.4      1.763      5.220
REMARK  Name = 
REMARK  4 active torsions:
REMARK  status: ('A' for Active; 'I' for Inactive)
REMARK    1  A    between atoms: C_1  and  C_2
REMARK    2  A    between atoms: C_7  and  O_8
REMARK    3  A    between atoms: O_8  and  C_9
REMARK    4  A    between atoms: C_9  and  C_10
REMARK                            x       y       z     vdW  Elec       q    Type
REMARK                         _______ _______ _______ _____ _____    ______ ____
ROOT
ATOM      1  C   UNL     1       2.942   2.508  17.625  0.00  0.00    +0.000 C 
ATOM      2  C   UNL     1       3.672   3.788  17.369  0.00  0.00    +0.000 A 
ATOM      3  N   UNL     1       4.829   3.651  16.646  0.00  0.00    +0.000 NA
ATOM      4  C   UNL     1       5.534   4.770  16.370  0.00  0.00    +0.000 A 
ATOM      5  C   UNL     1       5.153   6.030  16.776  0.00  0.00    +0.000 A 
ATOM      6  C   UNL     1       3.977   6.156  17.510  0.00  0.00    +0.000 A 
ATOM      7  C   UNL     1       3.207   5.030  17.837  0.00  0.00    +0.000 A 
ENDROOT
BRANCH   7   8
ATOM      8  O   UNL     1       2.040   5.079  18.573  0.00  0.00    +0.000 OA
BRANCH   8   9
ATOM      9  C   UNL     1       2.213   5.574  19.915  0.00  0.00    +0.000 C 
BRANCH   9  10
ATOM     10  C   UNL     1       1.808   4.559  20.980  0.00  0.00    +0.000 C 
ATOM     11  C   UNL     1       2.621   3.259  21.200  0.00  0.00    +0.000 C 
ATOM     12  C   UNL     1       1.241   2.576  21.283  0.00  0.00    +0.000 C 
ATOM     13  N   UNL     1       0.712   3.675  20.450  0.00  0.00    +0.000 NA
ATOM     14  H   UNL     1      -0.237   3.970  20.669  0.00  0.00    +0.000 HD
ENDBRANCH   9  10
ENDBRANCH   8   9
ENDBRANCH   7   8
TORSDOF 3
ENDMDL
MODEL 9
REMARK VINA RESULT:      -5.4      1.823      5.655
REMARK  Name = 
REMARK  4 active torsions:
REMARK  status: ('A' for Active; 'I' for Inactive)
REMARK    1  A    between atoms: C_1  and  C_2
REMARK    2  A    between atoms: C_7  and  O_8
REMARK    3  A    between atoms: O_8  and  C_9
REMARK    4  A    between atoms: C_9  and  C_10
REMARK                            x       y       z     vdW  Elec       q    Type
REMARK                         _______ _______ _______ _____ _____    ______ ____
ROOT
ATOM      1  C   UNL     1       7.408   6.972  17.575  0.00  0.00    +0.000 C 
ATOM      2  C   UNL     1       6.780   6.000  16.628  0.00  0.00    +0.000 A 
ATOM      3  N   UNL     1       7.557   5.672  15.548  0.00  0.00    +0.000 NA
ATOM      4  C   UNL     1       7.054   4.790  14.656  0.00  0.00    +0.000 A 
ATOM      5  C   UNL     1       5.809   4.212  14.776  0.00  0.00    +0.000 A 
ATOM      6  C   UNL     1       5.029   4.554  15.877  0.00  0.00    +0.000 A 
ATOM      7  C   UNL     1       5.492   5.472  16.831  0.00  0.00    +0.000 A 
ENDROOT
BRANCH   7   8
ATOM      8  O   UNL     1       4.767   5.868  17.937  0.00  0.00    +0.000 OA
BRANCH   8   9
ATOM      9  C   UNL     1       3.433   5.328  17.989  0.00  0.00    +0.000 C 
BRANCH   9  10
ATOM     10  C   UNL     1       3.268   4.256  19.063  0.00  0.00    +0.000 C 
ATOM     11  C   UNL     1       4.420   3.279  19.406  0.00  0.00    +0.000 C 
ATOM     12  C   UNL     1       3.317   2.201  19.409  0.00  0.00    +0.000 C 
ATOM     13  N   UNL     1       2.551   3.064  18.488  0.00  0.00    +0.000 NA
ATOM     14  H   UNL     1       1.542   3.053  18.617  0.00  0.00    +0.000 HD
ENDBRANCH   9  10
ENDBRANCH   8   9
ENDBRANCH   7   8
TORSDOF 3
ENDMDL
