MODEL 1
REMARK VINA RESULT:      -8.1      0.000      0.000
REMARK  Name = 
REMARK  11 active torsions:
REMARK  status: ('A' for Active; 'I' for Inactive)
REMARK    1  A    between atoms: C_1  and  C_2
REMARK    2  A    between atoms: C_2  and  C_3
REMARK    3  A    between atoms: C_3  and  C_4
REMARK    4  A    between atoms: C_3  and  C_5
REMARK    5  A    between atoms: C_3  and  N_6
REMARK    6  A    between atoms: C_7  and  C_9
REMARK    7  A    between atoms: C_9  and  N_10
REMARK    8  A    between atoms: N_10  and  C_11
REMARK    9  A    between atoms: C_11  and  C_12
REMARK   10  A    between atoms: C_17  and  C_19
REMARK   11  A    between atoms: N_21  and  C_22
REMARK                            x       y       z     vdW  Elec       q    Type
REMARK                         _______ _______ _______ _____ _____    ______ ____
ROOT
ATOM      1  N   UNL     1       6.590   5.763  17.876  0.00  0.00    +0.000 N 
ATOM      2  C   UNL     1       7.629   6.394  18.588  0.00  0.00    +0.000 C 
ATOM      3  O   UNL     1       8.225   5.865  19.526  0.00  0.00    +0.000 OA
ENDROOT
BRANCH   2   4
ATOM      4  C   UNL     1       8.075   7.833  18.191  0.00  0.00    +0.000 C 
ATOM      5  O   UNL     1       7.860   8.253  17.065  0.00  0.00    +0.000 OA
ATOM      6  N   UNL     1       8.717   8.543  19.207  0.00  0.00    +0.000 N 
ATOM      7  H   UNL     1       8.936   8.022  20.050  0.00  0.00    +0.000 HD
BRANCH   6   8
ATOM      8  C   UNL     1       9.143   9.892  19.101  0.00  0.00    +0.000 A 
ATOM      9  C   UNL     1       9.307  10.526  17.862  0.00  0.00    +0.000 A 
ATOM     10  C   UNL     1       9.767  11.837  17.769  0.00  0.00    +0.000 A 
ATOM     11  C   UNL     1      10.073  12.549  18.919  0.00  0.00    +0.000 A 
ATOM     12  C   UNL     1       9.870  11.957  20.166  0.00  0.00    +0.000 A 
ATOM     13  C   UNL     1       9.406  10.634  20.262  0.00  0.00    +0.000 A 
ATOM     14  O   UNL     1      10.137  12.615  21.343  0.00  0.00    +0.000 OA
ATOM     15  C   UNL     1      10.310  14.027  21.135  0.00  0.00    +0.000 C 
ATOM     16  C   UNL     1      11.182  14.306  19.921  0.00  0.00    +0.000 C 
ATOM     17  O   UNL     1      10.555  13.815  18.735  0.00  0.00    +0.000 OA
ENDBRANCH   6   8
ENDBRANCH   2   4
BRANCH   1  18
ATOM     18  C   UNL     1       6.233   4.374  18.210  0.00  0.00    +0.000 C 
BRANCH  18  20
ATOM     19  N   UNL     1       4.039   4.782  19.356  0.00  0.00    +0.000 N 
ATOM     20  C   UNL     1       4.753   3.987  18.485  0.00  0.00    +0.000 C 
ATOM     21  O   UNL     1       4.270   2.993  17.942  0.00  0.00    +0.000 OA
ATOM     22  H   UNL     1       4.589   5.441  19.895  0.00  0.00    +0.000 HD
BRANCH  19  23
ATOM     23  C   UNL     1       2.644   4.508  19.824  0.00  0.00    +0.000 C 
ATOM     24  C   UNL     1       1.792   4.231  18.568  0.00  0.00    +0.000 C 
ATOM     25  C   UNL     1       2.062   5.737  20.551  0.00  0.00    +0.000 C 
BRANCH  23  27
ATOM     26  C   UNL     1       1.187   2.836  21.206  0.00  0.00    +0.000 C 
ATOM     27  C   UNL     1       2.589   3.262  20.759  0.00  0.00    +0.000 C 
ENDBRANCH  23  27
ENDBRANCH  19  23
ENDBRANCH  18  20
ENDBRANCH   1  18
BRANCH   1  28
ATOM     28  C   UNL     1       5.911   6.341  16.708  0.00  0.00    +0.000 C 
BRANCH  28  29
ATOM     29  C   UNL     1       5.908   5.435  15.498  0.00  0.00    +0.000 A 
ATOM     30  C   UNL     1       4.894   4.728  14.872  0.00  0.00    +0.000 A 
ATOM     31  C   UNL     1       5.362   3.954  13.764  0.00  0.00    +0.000 A 
ATOM     32  C   UNL     1       6.715   4.101  13.564  0.00  0.00    +0.000 A 
ATOM     33  S   UNL     1       7.414   5.172  14.694  0.00  0.00    +0.000 S 
ENDBRANCH  28  29
ENDBRANCH   1  28
TORSDOF 8
ENDMDL
MODEL 2
REMARK VINA RESULT:      -8.0      0.982      1.609
REMARK  Name = 
REMARK  11 active torsions:
REMARK  status: ('A' for Active; 'I' for Inactive)
REMARK    1  A    between atoms: C_1  and  C_2
REMARK    2  A    between atoms: C_2  and  C_3
REMARK    3  A    between atoms: C_3  and  C_4
REMARK    4  A    between atoms: C_3  and  C_5
REMARK    5  A    between atoms: C_3  and  N_6
REMARK    6  A    between atoms: C_7  and  C_9
REMARK    7  A    between atoms: C_9  and  N_10
REMARK    8  A    between atoms: N_10  and  C_11
REMARK    9  A    between atoms: C_11  and  C_12
REMARK   10  A    between atoms: C_17  and  C_19
REMARK   11  A    between atoms: N_21  and  C_22
REMARK                            x       y       z     vdW  Elec       q    Type
REMARK                         _______ _______ _______ _____ _____    ______ ____
ROOT
ATOM      1  N   UNL     1       6.751   5.859  17.593  0.00  0.00    +0.000 N 
ATOM      2  C   UNL     1       7.648   6.510  18.465  0.00  0.00    +0.000 C 
ATOM      3  O   UNL     1       8.141   5.971  19.454  0.00  0.00    +0.000 OA
ENDROOT
BRANCH   2   4
ATOM      4  C   UNL     1       8.060   7.987  18.187  0.00  0.00    +0.000 C 
ATOM      5  O   UNL     1       7.730   8.530  17.144  0.00  0.00    +0.000 OA
ATOM      6  N   UNL     1       8.811   8.581  19.202  0.00  0.00    +0.000 N 
ATOM      7  H   UNL     1       9.114   7.970  19.953  0.00  0.00    +0.000 HD
BRANCH   6   8
ATOM      8  C   UNL     1       9.234   9.935  19.204  0.00  0.00    +0.000 A 
ATOM      9  C   UNL     1       9.203  10.724  20.362  0.00  0.00    +0.000 A 
ATOM     10  C   UNL     1       9.582  12.064  20.342  0.00  0.00    +0.000 A 
ATOM     11  C   UNL     1      10.004  12.649  19.158  0.00  0.00    +0.000 A 
ATOM     12  C   UNL     1      10.092  11.871  18.002  0.00  0.00    +0.000 A 
ATOM     13  C   UNL     1       9.711  10.519  18.021  0.00  0.00    +0.000 A 
ATOM     14  O   UNL     1      10.520  12.386  16.803  0.00  0.00    +0.000 OA
ATOM     15  C   UNL     1      11.157  13.664  16.969  0.00  0.00    +0.000 C 
ATOM     16  C   UNL     1      10.369  14.556  17.914  0.00  0.00    +0.000 C 
ATOM     17  O   UNL     1      10.319  13.977  19.219  0.00  0.00    +0.000 OA
ENDBRANCH   6   8
ENDBRANCH   2   4
BRANCH   1  18
ATOM     18  C   UNL     1       6.432   4.441  17.823  0.00  0.00    +0.000 C 
BRANCH  18  20
ATOM     19  N   UNL     1       3.944   4.334  18.128  0.00  0.00    +0.000 N 
ATOM     20  C   UNL     1       5.183   4.041  18.657  0.00  0.00    +0.000 C 
ATOM     21  O   UNL     1       5.328   3.496  19.752  0.00  0.00    +0.000 OA
ATOM     22  H   UNL     1       3.949   4.957  17.330  0.00  0.00    +0.000 HD
BRANCH  19  23
ATOM     23  C   UNL     1       2.639   4.124  18.828  0.00  0.00    +0.000 C 
ATOM     24  C   UNL     1       1.525   4.311  17.776  0.00  0.00    +0.000 C 
ATOM     25  C   UNL     1       2.442   5.171  19.942  0.00  0.00    +0.000 C 
BRANCH  23  27
ATOM     26  C   UNL     1       1.879   2.594  20.806  0.00  0.00    +0.000 C 
ATOM     27  C   UNL     1       2.535   2.687  19.425  0.00  0.00    +0.000 C 
ENDBRANCH  23  27
ENDBRANCH  19  23
ENDBRANCH  18  20
ENDBRANCH   1  18
BRANCH   1  28
ATOM     28  C   UNL     1       6.204   6.455  16.366  0.00  0.00    +0.000 C 
BRANCH  28  29
ATOM     29  C   UNL     1       6.063   5.472  15.226  0.00  0.00    +0.000 A 
ATOM     30  C   UNL     1       4.991   4.714  14.783  0.00  0.00    +0.000 A 
ATOM     31  C   UNL     1       5.328   3.875  13.674  0.00  0.00    +0.000 A 
ATOM     32  C   UNL     1       6.641   4.025  13.291  0.00  0.00    +0.000 A 
ATOM     33  S   UNL     1       7.457   5.175  14.251  0.00  0.00    +0.000 S 
ENDBRANCH  28  29
ENDBRANCH   1  28
TORSDOF 8
ENDMDL
MODEL 3
REMARK VINA RESULT:      -8.0      7.453     10.881
REMARK  Name = 
REMARK  11 active torsions:
REMARK  status: ('A' for Active; 'I' for Inactive)
REMARK    1  A    between atoms: C_1  and  C_2
REMARK    2  A    between atoms: C_2  and  C_3
REMARK    3  A    between atoms: C_3  and  C_4
REMARK    4  A    between atoms: C_3  and  C_5
REMARK    5  A    between atoms: C_3  and  N_6
REMARK    6  A    between atoms: C_7  and  C_9
REMARK    7  A    between atoms: C_9  and  N_10
REMARK    8  A    between atoms: N_10  and  C_11
REMARK    9  A    between atoms: C_11  and  C_12
REMARK   10  A    between atoms: C_17  and  C_19
REMARK   11  A    between atoms: N_21  and  C_22
REMARK                            x       y       z     vdW  Elec       q    Type
REMARK                         _______ _______ _______ _____ _____    ______ ____
ROOT
ATOM      1  N   UNL     1      -0.516  11.214  21.927  0.00  0.00    +0.000 N 
ATOM      2  C   UNL     1      -0.096  10.013  22.535  0.00  0.00    +0.000 C 
ATOM      3  O   UNL     1       0.127   9.908  23.740  0.00  0.00    +0.000 OA
ENDROOT
BRANCH   2   4
ATOM      4  C   UNL     1       0.099   8.734  21.666  0.00  0.00    +0.000 C 
ATOM      5  O   UNL     1      -0.833   7.966  21.488  0.00  0.00    +0.000 OA
ATOM      6  N   UNL     1       1.387   8.573  21.153  0.00  0.00    +0.000 N 
ATOM      7  H   UNL     1       2.089   9.225  21.487  0.00  0.00    +0.000 HD
BRANCH   6   8
ATOM      8  C   UNL     1       1.779   7.527  20.278  0.00  0.00    +0.000 A 
ATOM      9  C   UNL     1       2.241   7.778  18.979  0.00  0.00    +0.000 A 
ATOM     10  C   UNL     1       2.584   6.741  18.115  0.00  0.00    +0.000 A 
ATOM     11  C   UNL     1       2.474   5.423  18.532  0.00  0.00    +0.000 A 
ATOM     12  C   UNL     1       2.064   5.150  19.838  0.00  0.00    +0.000 A 
ATOM     13  C   UNL     1       1.719   6.195  20.711  0.00  0.00    +0.000 A 
ATOM     14  O   UNL     1       1.953   3.868  20.318  0.00  0.00    +0.000 OA
ATOM     15  C   UNL     1       2.608   2.919  19.459  0.00  0.00    +0.000 C 
ATOM     16  C   UNL     1       2.294   3.187  17.997  0.00  0.00    +0.000 C 
ATOM     17  O   UNL     1       2.793   4.468  17.608  0.00  0.00    +0.000 OA
ENDBRANCH   6   8
ENDBRANCH   2   4
BRANCH   1  18
ATOM     18  C   UNL     1      -0.773  12.392  22.772  0.00  0.00    +0.000 C 
BRANCH  18  20
ATOM     19  N   UNL     1      -3.164  12.624  23.497  0.00  0.00    +0.000 N 
ATOM     20  C   UNL     1      -2.146  13.119  22.710  0.00  0.00    +0.000 C 
ATOM     21  O   UNL     1      -2.291  14.089  21.965  0.00  0.00    +0.000 OA
ATOM     22  H   UNL     1      -2.994  11.713  23.906  0.00  0.00    +0.000 HD
BRANCH  19  23
ATOM     23  C   UNL     1      -4.575  13.122  23.491  0.00  0.00    +0.000 C 
ATOM     24  C   UNL     1      -4.538  14.594  23.952  0.00  0.00    +0.000 C 
ATOM     25  C   UNL     1      -5.441  12.318  24.481  0.00  0.00    +0.000 C 
BRANCH  23  27
ATOM     26  C   UNL     1      -6.640  12.539  21.999  0.00  0.00    +0.000 C 
ATOM     27  C   UNL     1      -5.199  13.054  22.063  0.00  0.00    +0.000 C 
ENDBRANCH  23  27
ENDBRANCH  19  23
ENDBRANCH  18  20
ENDBRANCH   1  18
BRANCH   1  28
ATOM     28  C   UNL     1      -0.860  11.350  20.505  0.00  0.00    +0.000 C 
BRANCH  28  29
ATOM     29  C   UNL     1       0.254  11.932  19.664  0.00  0.00    +0.000 A 
ATOM     30  C   UNL     1       1.360  11.355  19.062  0.00  0.00    +0.000 A 
ATOM     31  C   UNL     1       2.184  12.310  18.388  0.00  0.00    +0.000 A 
ATOM     32  C   UNL     1       1.679  13.586  18.479  0.00  0.00    +0.000 A 
ATOM     33  S   UNL     1       0.219  13.632  19.360  0.00  0.00    +0.000 S 
ENDBRANCH  28  29
ENDBRANCH   1  28
TORSDOF 8
ENDMDL
MODEL 4
REMARK VINA RESULT:      -8.0      1.079      1.221
REMARK  Name = 
REMARK  11 active torsions:
REMARK  status: ('A' for Active; 'I' for Inactive)
REMARK    1  A    between atoms: C_1  and  C_2
REMARK    2  A    between atoms: C_2  and  C_3
REMARK    3  A    between atoms: C_3  and  C_4
REMARK    4  A    between atoms: C_3  and  C_5
REMARK    5  A    between atoms: C_3  and  N_6
REMARK    6  A    between atoms: C_7  and  C_9
REMARK    7  A    between atoms: C_9  and  N_10
REMARK    8  A    between atoms: N_10  and  C_11
REMARK    9  A    between atoms: C_11  and  C_12
REMARK   10  A    between atoms: C_17  and  C_19
REMARK   11  A    between atoms: N_21  and  C_22
REMARK                            x       y       z     vdW  Elec       q    Type
REMARK                         _______ _______ _______ _____ _____    ______ ____
ROOT
ATOM      1  N   UNL     1       6.526   5.802  18.126  0.00  0.00    +0.000 N 
ATOM      2  C   UNL     1       7.627   6.476  18.693  0.00  0.00    +0.000 C 
ATOM      3  O   UNL     1       8.263   6.043  19.654  0.00  0.00    +0.000 OA
ENDROOT
BRANCH   2   4
ATOM      4  C   UNL     1       8.093   7.837  18.095  0.00  0.00    +0.000 C 
ATOM      5  O   UNL     1       8.005   8.041  16.894  0.00  0.00    +0.000 OA
ATOM      6  N   UNL     1       8.598   8.740  19.031  0.00  0.00    +0.000 N 
ATOM      7  H   UNL     1       8.724   8.387  19.973  0.00  0.00    +0.000 HD
BRANCH   6   8
ATOM      8  C   UNL     1       9.011  10.064  18.731  0.00  0.00    +0.000 A 
ATOM      9  C   UNL     1       8.249  10.917  17.921  0.00  0.00    +0.000 A 
ATOM     10  C   UNL     1       8.686  12.199  17.599  0.00  0.00    +0.000 A 
ATOM     11  C   UNL     1       9.900  12.662  18.084  0.00  0.00    +0.000 A 
ATOM     12  C   UNL     1      10.653  11.850  18.933  0.00  0.00    +0.000 A 
ATOM     13  C   UNL     1      10.213  10.556  19.259  0.00  0.00    +0.000 A 
ATOM     14  O   UNL     1      11.855  12.257  19.460  0.00  0.00    +0.000 OA
ATOM     15  C   UNL     1      12.050  13.673  19.310  0.00  0.00    +0.000 C 
ATOM     16  C   UNL     1      11.661  14.141  17.917  0.00  0.00    +0.000 C 
ATOM     17  O   UNL     1      10.270  13.917  17.687  0.00  0.00    +0.000 OA
ENDBRANCH   6   8
ENDBRANCH   2   4
BRANCH   1  18
ATOM     18  C   UNL     1       6.148   4.480  18.651  0.00  0.00    +0.000 C 
BRANCH  18  20
ATOM     19  N   UNL     1       3.911   5.127  19.585  0.00  0.00    +0.000 N 
ATOM     20  C   UNL     1       4.660   4.153  18.959  0.00  0.00    +0.000 C 
ATOM     21  O   UNL     1       4.200   3.052  18.655  0.00  0.00    +0.000 OA
ATOM     22  H   UNL     1       4.438   5.903  19.967  0.00  0.00    +0.000 HD
BRANCH  19  23
ATOM     23  C   UNL     1       2.500   4.957  20.055  0.00  0.00    +0.000 C 
ATOM     24  C   UNL     1       1.694   4.385  18.869  0.00  0.00    +0.000 C 
ATOM     25  C   UNL     1       1.891   6.316  20.452  0.00  0.00    +0.000 C 
BRANCH  23  27
ATOM     26  C   UNL     1       1.377   2.845  21.106  0.00  0.00    +0.000 C 
ATOM     27  C   UNL     1       2.412   3.964  21.254  0.00  0.00    +0.000 C 
ENDBRANCH  23  27
ENDBRANCH  19  23
ENDBRANCH  18  20
ENDBRANCH   1  18
BRANCH   1  28
ATOM     28  C   UNL     1       5.796   6.259  16.936  0.00  0.00    +0.000 C 
BRANCH  28  29
ATOM     29  C   UNL     1       6.086   5.443  15.696  0.00  0.00    +0.000 A 
ATOM     30  C   UNL     1       7.188   5.391  14.858  0.00  0.00    +0.000 A 
ATOM     31  C   UNL     1       7.006   4.489  13.762  0.00  0.00    +0.000 A 
ATOM     32  C   UNL     1       5.781   3.866  13.801  0.00  0.00    +0.000 A 
ATOM     33  S   UNL     1       4.860   4.355  15.152  0.00  0.00    +0.000 S 
ENDBRANCH  28  29
ENDBRANCH   1  28
TORSDOF 8
ENDMDL
MODEL 5
REMARK VINA RESULT:      -7.9      7.213     10.492
REMARK  Name = 
REMARK  11 active torsions:
REMARK  status: ('A' for Active; 'I' for Inactive)
REMARK    1  A    between atoms: C_1  and  C_2
REMARK    2  A    between atoms: C_2  and  C_3
REMARK    3  A    between atoms: C_3  and  C_4
REMARK    4  A    between atoms: C_3  and  C_5
REMARK    5  A    between atoms: C_3  and  N_6
REMARK    6  A    between atoms: C_7  and  C_9
REMARK    7  A    between atoms: C_9  and  N_10
REMARK    8  A    between atoms: N_10  and  C_11
REMARK    9  A    between atoms: C_11  and  C_12
REMARK   10  A    between atoms: C_17  and  C_19
REMARK   11  A    between atoms: N_21  and  C_22
REMARK                            x       y       z     vdW  Elec       q    Type
REMARK                         _______ _______ _______ _____ _____    ______ ____
ROOT
ATOM      1  N   UNL     1      -0.294  11.285  19.065  0.00  0.00    +0.000 N 
ATOM      2  C   UNL     1       1.061  10.963  18.843  0.00  0.00    +0.000 C 
ATOM      3  O   UNL     1       1.975  11.781  18.937  0.00  0.00    +0.000 OA
ENDROOT
BRANCH   2   4
ATOM      4  C   UNL     1       1.456   9.504  18.461  0.00  0.00    +0.000 C 
ATOM      5  O   UNL     1       1.480   9.163  17.289  0.00  0.00    +0.000 OA
ATOM      6  N   UNL     1       1.753   8.680  19.547  0.00  0.00    +0.000 N 
ATOM      7  H   UNL     1       1.569   9.066  20.468  0.00  0.00    +0.000 HD
BRANCH   6   8
ATOM      8  C   UNL     1       2.206   7.340  19.441  0.00  0.00    +0.000 A 
ATOM      9  C   UNL     1       3.040   6.917  18.398  0.00  0.00    +0.000 A 
ATOM     10  C   UNL     1       3.445   5.589  18.280  0.00  0.00    +0.000 A 
ATOM     11  C   UNL     1       3.024   4.650  19.210  0.00  0.00    +0.000 A 
ATOM     12  C   UNL     1       2.235   5.057  20.286  0.00  0.00    +0.000 A 
ATOM     13  C   UNL     1       1.826   6.396  20.406  0.00  0.00    +0.000 A 
ATOM     14  O   UNL     1       1.800   4.179  21.250  0.00  0.00    +0.000 OA
ATOM     15  C   UNL     1       2.514   2.932  21.194  0.00  0.00    +0.000 C 
ATOM     16  C   UNL     1       2.660   2.441  19.763  0.00  0.00    +0.000 C 
ATOM     17  O   UNL     1       3.435   3.364  18.997  0.00  0.00    +0.000 OA
ENDBRANCH   6   8
ENDBRANCH   2   4
BRANCH   1  18
ATOM     18  C   UNL     1      -0.643  12.646  19.502  0.00  0.00    +0.000 C 
BRANCH  18  20
ATOM     19  N   UNL     1      -2.607  13.582  20.751  0.00  0.00    +0.000 N 
ATOM     20  C   UNL     1      -1.429  12.869  20.824  0.00  0.00    +0.000 C 
ATOM     21  O   UNL     1      -0.983  12.426  21.883  0.00  0.00    +0.000 OA
ATOM     22  H   UNL     1      -2.769  14.067  19.877  0.00  0.00    +0.000 HD
BRANCH  19  23
ATOM     23  C   UNL     1      -3.441  13.987  21.926  0.00  0.00    +0.000 C 
ATOM     24  C   UNL     1      -4.615  14.826  21.380  0.00  0.00    +0.000 C 
ATOM     25  C   UNL     1      -2.624  14.860  22.900  0.00  0.00    +0.000 C 
BRANCH  23  27
ATOM     26  C   UNL     1      -3.874  12.779  24.203  0.00  0.00    +0.000 C 
ATOM     27  C   UNL     1      -4.011  12.745  22.678  0.00  0.00    +0.000 C 
ENDBRANCH  23  27
ENDBRANCH  19  23
ENDBRANCH  18  20
ENDBRANCH   1  18
BRANCH   1  28
ATOM     28  C   UNL     1      -1.396  10.313  19.030  0.00  0.00    +0.000 C 
BRANCH  28  29
ATOM     29  C   UNL     1      -2.253  10.413  17.787  0.00  0.00    +0.000 A 
ATOM     30  C   UNL     1      -2.092   9.906  16.508  0.00  0.00    +0.000 A 
ATOM     31  C   UNL     1      -3.149  10.291  15.625  0.00  0.00    +0.000 A 
ATOM     32  C   UNL     1      -4.095  11.066  16.255  0.00  0.00    +0.000 A 
ATOM     33  S   UNL     1      -3.718  11.319  17.900  0.00  0.00    +0.000 S 
ENDBRANCH  28  29
ENDBRANCH   1  28
TORSDOF 8
ENDMDL
MODEL 6
REMARK VINA RESULT:      -7.9      5.036      8.019
REMARK  Name = 
REMARK  11 active torsions:
REMARK  status: ('A' for Active; 'I' for Inactive)
REMARK    1  A    between atoms: C_1  and  C_2
REMARK    2  A    between atoms: C_2  and  C_3
REMARK    3  A    between atoms: C_3  and  C_4
REMARK    4  A    between atoms: C_3  and  C_5
REMARK    5  A    between atoms: C_3  and  N_6
REMARK    6  A    between atoms: C_7  and  C_9
REMARK    7  A    between atoms: C_9  and  N_10
REMARK    8  A    between atoms: N_10  and  C_11
REMARK    9  A    between atoms: C_11  and  C_12
REMARK   10  A    between atoms: C_17  and  C_19
REMARK   11  A    between atoms: N_21  and  C_22
REMARK                            x       y       z     vdW  Elec       q    Type
REMARK                         _______ _______ _______ _____ _____    ______ ____
ROOT
ATOM      1  N   UNL     1       2.305   6.216  18.488  0.00  0.00    +0.000 N 
ATOM      2  C   UNL     1       2.531   7.584  18.235  0.00  0.00    +0.000 C 
ATOM      3  O   UNL     1       3.427   7.997  17.501  0.00  0.00    +0.000 OA
ENDROOT
BRANCH   2   4
ATOM      4  C   UNL     1       1.613   8.654  18.899  0.00  0.00    +0.000 C 
ATOM      5  O   UNL     1       0.929   9.390  18.206  0.00  0.00    +0.000 OA
ATOM      6  N   UNL     1       1.667   8.680  20.294  0.00  0.00    +0.000 N 
ATOM      7  H   UNL     1       2.374   8.095  20.727  0.00  0.00    +0.000 HD
BRANCH   6   8
ATOM      8  C   UNL     1       0.868   9.516  21.115  0.00  0.00    +0.000 A 
ATOM      9  C   UNL     1       0.078   9.005  22.154  0.00  0.00    +0.000 A 
ATOM     10  C   UNL     1      -0.734   9.831  22.926  0.00  0.00    +0.000 A 
ATOM     11  C   UNL     1      -0.775  11.195  22.677  0.00  0.00    +0.000 A 
ATOM     12  C   UNL     1       0.040  11.734  21.681  0.00  0.00    +0.000 A 
ATOM     13  C   UNL     1       0.861  10.902  20.902  0.00  0.00    +0.000 A 
ATOM     14  O   UNL     1       0.059  13.079  21.398  0.00  0.00    +0.000 OA
ATOM     15  C   UNL     1      -0.572  13.850  22.434  0.00  0.00    +0.000 C 
ATOM     16  C   UNL     1      -1.876  13.211  22.883  0.00  0.00    +0.000 C 
ATOM     17  O   UNL     1      -1.629  11.926  23.455  0.00  0.00    +0.000 OA
ENDBRANCH   6   8
ENDBRANCH   2   4
BRANCH   1  18
ATOM     18  C   UNL     1       3.129   5.214  17.792  0.00  0.00    +0.000 C 
BRANCH  18  20
ATOM     19  N   UNL     1       5.527   5.950  17.783  0.00  0.00    +0.000 N 
ATOM     20  C   UNL     1       4.615   5.001  18.194  0.00  0.00    +0.000 C 
ATOM     21  O   UNL     1       4.937   4.006  18.844  0.00  0.00    +0.000 OA
ATOM     22  H   UNL     1       5.189   6.607  17.091  0.00  0.00    +0.000 HD
BRANCH  19  23
ATOM     23  C   UNL     1       7.008   5.862  17.982  0.00  0.00    +0.000 C 
ATOM     24  C   UNL     1       7.251   5.655  19.492  0.00  0.00    +0.000 C 
ATOM     25  C   UNL     1       7.694   7.173  17.549  0.00  0.00    +0.000 C 
BRANCH  23  27
ATOM     26  C   UNL     1       7.063   4.438  15.790  0.00  0.00    +0.000 C 
ATOM     27  C   UNL     1       7.619   4.659  17.200  0.00  0.00    +0.000 C 
ENDBRANCH  23  27
ENDBRANCH  19  23
ENDBRANCH  18  20
ENDBRANCH   1  18
BRANCH   1  28
ATOM     28  C   UNL     1       1.199   5.692  19.301  0.00  0.00    +0.000 C 
BRANCH  28  29
ATOM     29  C   UNL     1       1.575   4.486  20.133  0.00  0.00    +0.000 A 
ATOM     30  C   UNL     1       2.320   4.357  21.294  0.00  0.00    +0.000 A 
ATOM     31  C   UNL     1       2.457   2.997  21.715  0.00  0.00    +0.000 A 
ATOM     32  C   UNL     1       1.802   2.126  20.875  0.00  0.00    +0.000 A 
ATOM     33  S   UNL     1       1.019   2.942  19.596  0.00  0.00    +0.000 S 
ENDBRANCH  28  29
ENDBRANCH   1  28
TORSDOF 8
ENDMDL
MODEL 7
REMARK VINA RESULT:      -7.9      4.759      8.124
REMARK  Name = 
REMARK  11 active torsions:
REMARK  status: ('A' for Active; 'I' for Inactive)
REMARK    1  A    between atoms: C_1  and  C_2
REMARK    2  A    between atoms: C_2  and  C_3
REMARK    3  A    between atoms: C_3  and  C_4
REMARK    4  A    between atoms: C_3  and  C_5
REMARK    5  A    between atoms: C_3  and  N_6
REMARK    6  A    between atoms: C_7  and  C_9
REMARK    7  A    between atoms: C_9  and  N_10
REMARK    8  A    between atoms: N_10  and  C_11
REMARK    9  A    between atoms: C_11  and  C_12
REMARK   10  A    between atoms: C_17  and  C_19
REMARK   11  A    between atoms: N_21  and  C_22
REMARK                            x       y       z     vdW  Elec       q    Type
REMARK                         _______ _______ _______ _____ _____    ______ ____
ROOT
ATOM      1  N   UNL     1       2.546   5.858  18.027  0.00  0.00    +0.000 N 
ATOM      2  C   UNL     1       2.933   7.210  17.924  0.00  0.00    +0.000 C 
ATOM      3  O   UNL     1       3.933   7.582  17.313  0.00  0.00    +0.000 OA
ENDROOT
BRANCH   2   4
ATOM      4  C   UNL     1       2.068   8.315  18.603  0.00  0.00    +0.000 C 
ATOM      5  O   UNL     1       1.625   9.240  17.940  0.00  0.00    +0.000 OA
ATOM      6  N   UNL     1       1.876   8.140  19.974  0.00  0.00    +0.000 N 
ATOM      7  H   UNL     1       2.407   7.394  20.411  0.00  0.00    +0.000 HD
BRANCH   6   8
ATOM      8  C   UNL     1       1.066   8.976  20.786  0.00  0.00    +0.000 A 
ATOM      9  C   UNL     1       1.010   8.832  22.179  0.00  0.00    +0.000 A 
ATOM     10  C   UNL     1       0.179   9.631  22.961  0.00  0.00    +0.000 A 
ATOM     11  C   UNL     1      -0.616  10.598  22.366  0.00  0.00    +0.000 A 
ATOM     12  C   UNL     1      -0.540  10.794  20.986  0.00  0.00    +0.000 A 
ATOM     13  C   UNL     1       0.298   9.990  20.196  0.00  0.00    +0.000 A 
ATOM     14  O   UNL     1      -1.288  11.748  20.339  0.00  0.00    +0.000 OA
ATOM     15  C   UNL     1      -1.862  12.690  21.261  0.00  0.00    +0.000 C 
ATOM     16  C   UNL     1      -2.453  11.989  22.473  0.00  0.00    +0.000 C 
ATOM     17  O   UNL     1      -1.430  11.310  23.202  0.00  0.00    +0.000 OA
ENDBRANCH   6   8
ENDBRANCH   2   4
BRANCH   1  18
ATOM     18  C   UNL     1       3.327   4.834  17.315  0.00  0.00    +0.000 C 
BRANCH  18  20
ATOM     19  N   UNL     1       5.661   5.274  18.125  0.00  0.00    +0.000 N 
ATOM     20  C   UNL     1       4.841   5.052  17.038  0.00  0.00    +0.000 C 
ATOM     21  O   UNL     1       5.260   5.036  15.880  0.00  0.00    +0.000 OA
ATOM     22  H   UNL     1       5.184   5.467  18.997  0.00  0.00    +0.000 HD
BRANCH  19  23
ATOM     23  C   UNL     1       7.117   5.608  18.049  0.00  0.00    +0.000 C 
ATOM     24  C   UNL     1       7.825   4.404  17.392  0.00  0.00    +0.000 C 
ATOM     25  C   UNL     1       7.704   5.812  19.460  0.00  0.00    +0.000 C 
BRANCH  23  27
ATOM     26  C   UNL     1       7.957   8.080  17.927  0.00  0.00    +0.000 C 
ATOM     27  C   UNL     1       7.368   6.879  17.181  0.00  0.00    +0.000 C 
ENDBRANCH  23  27
ENDBRANCH  19  23
ENDBRANCH  18  20
ENDBRANCH   1  18
BRANCH   1  28
ATOM     28  C   UNL     1       1.318   5.393  18.687  0.00  0.00    +0.000 C 
BRANCH  28  29
ATOM     29  C   UNL     1       1.571   4.455  19.846  0.00  0.00    +0.000 A 
ATOM     30  C   UNL     1       2.209   4.636  21.063  0.00  0.00    +0.000 A 
ATOM     31  C   UNL     1       2.252   3.441  21.848  0.00  0.00    +0.000 A 
ATOM     32  C   UNL     1       1.634   2.385  21.219  0.00  0.00    +0.000 A 
ATOM     33  S   UNL     1       0.997   2.833  19.700  0.00  0.00    +0.000 S 
ENDBRANCH  28  29
ENDBRANCH   1  28
TORSDOF 8
ENDMDL
MODEL 8
REMARK VINA RESULT:      -7.9      7.424     10.935
REMARK  Name = 
REMARK  11 active torsions:
REMARK  status: ('A' for Active; 'I' for Inactive)
REMARK    1  A    between atoms: C_1  and  C_2
REMARK    2  A    between atoms: C_2  and  C_3
REMARK    3  A    between atoms: C_3  and  C_4
REMARK    4  A    between atoms: C_3  and  C_5
REMARK    5  A    between atoms: C_3  and  N_6
REMARK    6  A    between atoms: C_7  and  C_9
REMARK    7  A    between atoms: C_9  and  N_10
REMARK    8  A    between atoms: N_10  and  C_11
REMARK    9  A    between atoms: C_11  and  C_12
REMARK   10  A    between atoms: C_17  and  C_19
REMARK   11  A    between atoms: N_21  and  C_22
REMARK                            x       y       z     vdW  Elec       q    Type
REMARK                         _______ _______ _______ _____ _____    ______ ____
ROOT
ATOM      1  N   UNL     1       0.049  11.657  21.443  0.00  0.00    +0.000 N 
ATOM      2  C   UNL     1      -0.051  10.466  22.189  0.00  0.00    +0.000 C 
ATOM      3  O   UNL     1      -0.278  10.442  23.398  0.00  0.00    +0.000 OA
ENDROOT
BRANCH   2   4
ATOM      4  C   UNL     1       0.126   9.091  21.477  0.00  0.00    +0.000 C 
ATOM      5  O   UNL     1      -0.813   8.315  21.400  0.00  0.00    +0.000 OA
ATOM      6  N   UNL     1       1.408   8.859  20.975  0.00  0.00    +0.000 N 
ATOM      7  H   UNL     1       2.118   9.539  21.223  0.00  0.00    +0.000 HD
BRANCH   6   8
ATOM      8  C   UNL     1       1.783   7.713  20.227  0.00  0.00    +0.000 A 
ATOM      9  C   UNL     1       2.227   7.802  18.901  0.00  0.00    +0.000 A 
ATOM     10  C   UNL     1       2.553   6.666  18.164  0.00  0.00    +0.000 A 
ATOM     11  C   UNL     1       2.444   5.409  18.739  0.00  0.00    +0.000 A 
ATOM     12  C   UNL     1       2.053   5.298  20.074  0.00  0.00    +0.000 A 
ATOM     13  C   UNL     1       1.725   6.443  20.819  0.00  0.00    +0.000 A 
ATOM     14  O   UNL     1       1.944   4.084  20.707  0.00  0.00    +0.000 OA
ATOM     15  C   UNL     1       2.583   3.035  19.960  0.00  0.00    +0.000 C 
ATOM     16  C   UNL     1       2.249   3.126  18.480  0.00  0.00    +0.000 C 
ATOM     17  O   UNL     1       2.746   4.348  17.932  0.00  0.00    +0.000 OA
ENDBRANCH   6   8
ENDBRANCH   2   4
BRANCH   1  18
ATOM     18  C   UNL     1      -0.199  12.944  22.113  0.00  0.00    +0.000 C 
BRANCH  18  20
ATOM     19  N   UNL     1      -2.430  12.909  23.261  0.00  0.00    +0.000 N 
ATOM     20  C   UNL     1      -1.650  13.478  22.277  0.00  0.00    +0.000 C 
ATOM     21  O   UNL     1      -2.062  14.367  21.531  0.00  0.00    +0.000 OA
ATOM     22  H   UNL     1      -2.062  12.059  23.670  0.00  0.00    +0.000 HD
BRANCH  19  23
ATOM     23  C   UNL     1      -3.876  13.215  23.496  0.00  0.00    +0.000 C 
ATOM     24  C   UNL     1      -4.335  12.346  24.686  0.00  0.00    +0.000 C 
ATOM     25  C   UNL     1      -4.720  12.843  22.261  0.00  0.00    +0.000 C 
BRANCH  23  27
ATOM     26  C   UNL     1      -5.392  15.338  23.333  0.00  0.00    +0.000 C 
ATOM     27  C   UNL     1      -4.091  14.718  23.853  0.00  0.00    +0.000 C 
ENDBRANCH  23  27
ENDBRANCH  19  23
ENDBRANCH  18  20
ENDBRANCH   1  18
BRANCH   1  28
ATOM     28  C   UNL     1       0.247  11.713  19.988  0.00  0.00    +0.000 C 
BRANCH  28  29
ATOM     29  C   UNL     1      -0.997  11.387  19.193  0.00  0.00    +0.000 A 
ATOM     30  C   UNL     1      -2.275  11.922  19.212  0.00  0.00    +0.000 A 
ATOM     31  C   UNL     1      -3.162  11.265  18.302  0.00  0.00    +0.000 A 
ATOM     32  C   UNL     1      -2.536  10.260  17.602  0.00  0.00    +0.000 A 
ATOM     33  S   UNL     1      -0.891  10.115  18.031  0.00  0.00    +0.000 S 
ENDBRANCH  28  29
ENDBRANCH   1  28
TORSDOF 8
ENDMDL
MODEL 9
REMARK VINA RESULT:      -7.8      7.417     10.889
REMARK  Name = 
REMARK  11 active torsions:
REMARK  status: ('A' for Active; 'I' for Inactive)
REMARK    1  A    between atoms: C_1  and  C_2
REMARK    2  A    between atoms: C_2  and  C_3
REMARK    3  A    between atoms: C_3  and  C_4
REMARK    4  A    between atoms: C_3  and  C_5
REMARK    5  A    between atoms: C_3  and  N_6
REMARK    6  A    between atoms: C_7  and  C_9
REMARK    7  A    between atoms: C_9  and  N_10
REMARK    8  A    between atoms: N_10  and  C_11
REMARK    9  A    between atoms: C_11  and  C_12
REMARK   10  A    between atoms: C_17  and  C_19
REMARK   11  A    between atoms: N_21  and  C_22
REMARK                            x       y       z     vdW  Elec       q    Type
REMARK                         _______ _______ _______ _____ _____    ______ ____
ROOT
ATOM      1  N   UNL     1      -0.260  11.065  21.568  0.00  0.00    +0.000 N 
ATOM      2  C   UNL     1       0.093   9.894  22.270  0.00  0.00    +0.000 C 
ATOM      3  O   UNL     1       0.280   9.864  23.485  0.00  0.00    +0.000 OA
ENDROOT
BRANCH   2   4
ATOM      4  C   UNL     1       0.259   8.551  21.497  0.00  0.00    +0.000 C 
ATOM      5  O   UNL     1      -0.691   7.794  21.373  0.00  0.00    +0.000 OA
ATOM      6  N   UNL     1       1.542   8.323  20.999  0.00  0.00    +0.000 N 
ATOM      7  H   UNL     1       2.259   8.981  21.285  0.00  0.00    +0.000 HD
BRANCH   6   8
ATOM      8  C   UNL     1       1.910   7.207  20.203  0.00  0.00    +0.000 A 
ATOM      9  C   UNL     1       2.350   7.348  18.880  0.00  0.00    +0.000 A 
ATOM     10  C   UNL     1       2.668   6.243  18.096  0.00  0.00    +0.000 A 
ATOM     11  C   UNL     1       2.555   4.964  18.619  0.00  0.00    +0.000 A 
ATOM     12  C   UNL     1       2.167   4.800  19.949  0.00  0.00    +0.000 A 
ATOM     13  C   UNL     1       1.846   5.914  20.742  0.00  0.00    +0.000 A 
ATOM     14  O   UNL     1       2.053   3.560  20.532  0.00  0.00    +0.000 OA
ATOM     15  C   UNL     1       2.684   2.540  19.740  0.00  0.00    +0.000 C 
ATOM     16  C   UNL     1       2.347   2.694  18.266  0.00  0.00    +0.000 C 
ATOM     17  O   UNL     1       2.849   3.935  17.768  0.00  0.00    +0.000 OA
ENDBRANCH   6   8
ENDBRANCH   2   4
BRANCH   1  18
ATOM     18  C   UNL     1      -0.490  12.309  22.322  0.00  0.00    +0.000 C 
BRANCH  18  20
ATOM     19  N   UNL     1      -2.039  13.709  23.712  0.00  0.00    +0.000 N 
ATOM     20  C   UNL     1      -1.922  12.688  22.794  0.00  0.00    +0.000 C 
ATOM     21  O   UNL     1      -2.894  12.071  22.356  0.00  0.00    +0.000 OA
ATOM     22  H   UNL     1      -1.174  14.002  24.151  0.00  0.00    +0.000 HD
BRANCH  19  23
ATOM     23  C   UNL     1      -3.318  14.141  24.360  0.00  0.00    +0.000 C 
ATOM     24  C   UNL     1      -2.940  15.058  25.542  0.00  0.00    +0.000 C 
ATOM     25  C   UNL     1      -4.088  12.924  24.910  0.00  0.00    +0.000 C 
BRANCH  23  27
ATOM     26  C   UNL     1      -3.613  16.231  22.819  0.00  0.00    +0.000 C 
ATOM     27  C   UNL     1      -4.220  14.937  23.368  0.00  0.00    +0.000 C 
ENDBRANCH  23  27
ENDBRANCH  19  23
ENDBRANCH  18  20
ENDBRANCH   1  18
BRANCH   1  28
ATOM     28  C   UNL     1      -0.560  11.115  20.131  0.00  0.00    +0.000 C 
BRANCH  28  29
ATOM     29  C   UNL     1       0.563  11.690  19.297  0.00  0.00    +0.000 A 
ATOM     30  C   UNL     1       1.656  11.102  18.682  0.00  0.00    +0.000 A 
ATOM     31  C   UNL     1       2.496  12.053  18.021  0.00  0.00    +0.000 A 
ATOM     32  C   UNL     1       2.015  13.337  18.134  0.00  0.00    +0.000 A 
ATOM     33  S   UNL     1       0.557  13.395  19.020  0.00  0.00    +0.000 S 
ENDBRANCH  28  29
ENDBRANCH   1  28
TORSDOF 8
ENDMDL
