MODEL 1
REMARK VINA RESULT:      -9.1      0.000      0.000
REMARK  Name = 
REMARK  6 active torsions:
REMARK  status: ('A' for Active; 'I' for Inactive)
REMARK    1  A    between atoms: C_1  and  C_2
REMARK    2  A    between atoms: C_2  and  C_3
REMARK    3  A    between atoms: C_7  and  N_8
REMARK    4  A    between atoms: C_9  and  C_11
REMARK    5  A    between atoms: N_14  and  S_15
REMARK    6  A    between atoms: S_15  and  C_18
REMARK                            x       y       z     vdW  Elec       q    Type
REMARK                         _______ _______ _______ _____ _____    ______ ____
ROOT
ATOM      1  C   UNL     1       7.723   5.614  18.144  0.00  0.00    +0.000 C 
ATOM      2  C   UNL     1       7.084   4.764  17.044  0.00  0.00    +0.000 C 
ATOM      3  C   UNL     1       5.563   4.922  17.027  0.00  0.00    +0.000 C 
ATOM      4  N   UNL     1       4.977   4.535  18.342  0.00  0.00    +0.000 NA
ATOM      5  C   UNL     1       5.554   5.321  19.473  0.00  0.00    +0.000 C 
ATOM      6  C   UNL     1       7.088   5.219  19.488  0.00  0.00    +0.000 C 
ENDROOT
BRANCH   1   8
ATOM      7  N   UNL     1       8.499   7.901  18.606  0.00  0.00    +0.000 N 
ATOM      8  C   UNL     1       7.599   7.123  17.895  0.00  0.00    +0.000 C 
ATOM      9  O   UNL     1       6.748   7.556  17.119  0.00  0.00    +0.000 OA
ATOM     10  H   UNL     1       9.164   7.429  19.206  0.00  0.00    +0.000 HD
BRANCH   7  15
ATOM     11  C   UNL     1       9.610  11.349  19.452  0.00  0.00    +0.000 A 
ATOM     12  C   UNL     1       8.960  12.103  18.470  0.00  0.00    +0.000 A 
ATOM     13  C   UNL     1       8.143  11.474  17.538  0.00  0.00    +0.000 A 
ATOM     14  C   UNL     1       7.976  10.089  17.573  0.00  0.00    +0.000 A 
ATOM     15  C   UNL     1       8.627   9.309  18.532  0.00  0.00    +0.000 A 
ATOM     16  C   UNL     1       9.437   9.952  19.477  0.00  0.00    +0.000 A 
BRANCH  11  18
ATOM     17  C   UNL     1      11.735  12.540  19.944  0.00  0.00    +0.000 C 
ATOM     18  C   UNL     1      10.417  12.044  20.519  0.00  0.00    +0.000 C 
ENDBRANCH  11  18
ENDBRANCH   7  15
ENDBRANCH   1   8
BRANCH   4  19
ATOM     19  S   UNL     1       3.237   4.536  18.346  0.00  0.00    +0.000 S 
ATOM     20  O   UNL     1       2.763   4.237  17.009  0.00  0.00    +0.000 OA
ATOM     21  O   UNL     1       2.792   3.783  19.488  0.00  0.00    +0.000 OA
BRANCH  19  22
ATOM     22  C   UNL     1       2.878   6.250  18.642  0.00  0.00    +0.000 A 
ATOM     23  C   UNL     1       2.900   7.207  17.613  0.00  0.00    +0.000 A 
ATOM     24  C   UNL     1       2.378   8.489  17.852  0.00  0.00    +0.000 A 
ATOM     25  C   UNL     1       1.846   8.783  19.103  0.00  0.00    +0.000 A 
ATOM     26  C   UNL     1       1.995   7.861  20.147  0.00  0.00    +0.000 A 
ATOM     27  C   UNL     1       2.491   6.593  19.930  0.00  0.00    +0.000 A 
ATOM     28  N   UNL     1       1.464   8.179  21.416  0.00  0.00    +0.000 N 
ATOM     29  C   UNL     1       0.165   8.631  21.253  0.00  0.00    +0.000 C 
ATOM     30  O   UNL     1      -0.804   8.117  21.797  0.00  0.00    +0.000 OA
ATOM     31  C   UNL     1       0.092   9.814  20.274  0.00  0.00    +0.000 C 
ATOM     32  O   UNL     1       1.136   9.943  19.288  0.00  0.00    +0.000 OA
ATOM     33  H   UNL     1       1.995   8.998  21.724  0.00  0.00    +0.000 HD
ENDBRANCH  19  22
ENDBRANCH   4  19
TORSDOF 5
ENDMDL
MODEL 2
REMARK VINA RESULT:      -9.0      3.210      5.908
REMARK  Name = 
REMARK  6 active torsions:
REMARK  status: ('A' for Active; 'I' for Inactive)
REMARK    1  A    between atoms: C_1  and  C_2
REMARK    2  A    between atoms: C_2  and  C_3
REMARK    3  A    between atoms: C_7  and  N_8
REMARK    4  A    between atoms: C_9  and  C_11
REMARK    5  A    between atoms: N_14  and  S_15
REMARK    6  A    between atoms: S_15  and  C_18
REMARK                            x       y       z     vdW  Elec       q    Type
REMARK                         _______ _______ _______ _____ _____    ______ ____
ROOT
ATOM      1  C   UNL     1       7.256   6.327  17.768  0.00  0.00    +0.000 C 
ATOM      2  C   UNL     1       6.947   5.632  19.096  0.00  0.00    +0.000 C 
ATOM      3  C   UNL     1       5.549   5.015  19.094  0.00  0.00    +0.000 C 
ATOM      4  N   UNL     1       4.513   6.056  18.839  0.00  0.00    +0.000 NA
ATOM      5  C   UNL     1       4.745   6.784  17.556  0.00  0.00    +0.000 C 
ATOM      6  C   UNL     1       6.163   7.378  17.509  0.00  0.00    +0.000 C 
ENDROOT
BRANCH   1   8
ATOM      7  N   UNL     1       6.858   5.827  15.394  0.00  0.00    +0.000 N 
ATOM      8  C   UNL     1       7.378   5.354  16.588  0.00  0.00    +0.000 C 
ATOM      9  O   UNL     1       7.903   4.253  16.744  0.00  0.00    +0.000 OA
ATOM     10  H   UNL     1       6.462   6.759  15.384  0.00  0.00    +0.000 HD
BRANCH   7  15
ATOM     11  C   UNL     1       5.716   3.696  12.566  0.00  0.00    +0.000 A 
ATOM     12  C   UNL     1       6.806   3.781  11.693  0.00  0.00    +0.000 A 
ATOM     13  C   UNL     1       7.923   4.530  12.045  0.00  0.00    +0.000 A 
ATOM     14  C   UNL     1       7.958   5.206  13.265  0.00  0.00    +0.000 A 
ATOM     15  C   UNL     1       6.877   5.153  14.149  0.00  0.00    +0.000 A 
ATOM     16  C   UNL     1       5.761   4.385  13.793  0.00  0.00    +0.000 A 
BRANCH  11  18
ATOM     17  C   UNL     1       3.826   3.335  10.994  0.00  0.00    +0.000 C 
ATOM     18  C   UNL     1       4.549   2.807  12.224  0.00  0.00    +0.000 C 
ENDBRANCH  11  18
ENDBRANCH   7  15
ENDBRANCH   1   8
BRANCH   4  19
ATOM     19  S   UNL     1       2.885   5.455  18.981  0.00  0.00    +0.000 S 
ATOM     20  O   UNL     1       2.393   5.114  17.662  0.00  0.00    +0.000 OA
ATOM     21  O   UNL     1       2.851   4.509  20.065  0.00  0.00    +0.000 OA
BRANCH  19  22
ATOM     22  C   UNL     1       2.007   6.911  19.494  0.00  0.00    +0.000 A 
ATOM     23  C   UNL     1       1.643   7.131  20.833  0.00  0.00    +0.000 A 
ATOM     24  C   UNL     1       1.170   8.395  21.220  0.00  0.00    +0.000 A 
ATOM     25  C   UNL     1       1.077   9.406  20.269  0.00  0.00    +0.000 A 
ATOM     26  C   UNL     1       1.289   9.100  18.919  0.00  0.00    +0.000 A 
ATOM     27  C   UNL     1       1.767   7.870  18.520  0.00  0.00    +0.000 A 
ATOM     28  N   UNL     1       1.175  10.132  17.962  0.00  0.00    +0.000 N 
ATOM     29  C   UNL     1       1.896  11.229  18.405  0.00  0.00    +0.000 C 
ATOM     30  O   UNL     1       2.804  11.746  17.766  0.00  0.00    +0.000 OA
ATOM     31  C   UNL     1       1.448  11.677  19.805  0.00  0.00    +0.000 C 
ATOM     32  O   UNL     1       0.832  10.697  20.666  0.00  0.00    +0.000 OA
ATOM     33  H   UNL     1       0.195  10.422  18.004  0.00  0.00    +0.000 HD
ENDBRANCH  19  22
ENDBRANCH   4  19
TORSDOF 5
ENDMDL
MODEL 3
REMARK VINA RESULT:      -8.9      3.719      6.517
REMARK  Name = 
REMARK  6 active torsions:
REMARK  status: ('A' for Active; 'I' for Inactive)
REMARK    1  A    between atoms: C_1  and  C_2
REMARK    2  A    between atoms: C_2  and  C_3
REMARK    3  A    between atoms: C_7  and  N_8
REMARK    4  A    between atoms: C_9  and  C_11
REMARK    5  A    between atoms: N_14  and  S_15
REMARK    6  A    between atoms: S_15  and  C_18
REMARK                            x       y       z     vdW  Elec       q    Type
REMARK                         _______ _______ _______ _____ _____    ______ ____
ROOT
ATOM      1  C   UNL     1       6.730   5.349  16.458  0.00  0.00    +0.000 C 
ATOM      2  C   UNL     1       6.679   4.884  17.915  0.00  0.00    +0.000 C 
ATOM      3  C   UNL     1       5.246   4.595  18.361  0.00  0.00    +0.000 C 
ATOM      4  N   UNL     1       4.391   5.806  18.208  0.00  0.00    +0.000 NA
ATOM      5  C   UNL     1       4.389   6.325  16.807  0.00  0.00    +0.000 C 
ATOM      6  C   UNL     1       5.822   6.582  16.313  0.00  0.00    +0.000 C 
ENDROOT
BRANCH   1   8
ATOM      7  N   UNL     1       6.425   4.629  14.127  0.00  0.00    +0.000 N 
ATOM      8  C   UNL     1       6.339   4.253  15.458  0.00  0.00    +0.000 C 
ATOM      9  O   UNL     1       5.980   3.146  15.858  0.00  0.00    +0.000 OA
ATOM     10  H   UNL     1       6.747   5.566  13.918  0.00  0.00    +0.000 HD
BRANCH   7  15
ATOM     11  C   UNL     1       4.565   3.063  11.310  0.00  0.00    +0.000 A 
ATOM     12  C   UNL     1       5.537   2.214  10.770  0.00  0.00    +0.000 A 
ATOM     13  C   UNL     1       6.800   2.148  11.345  0.00  0.00    +0.000 A 
ATOM     14  C   UNL     1       7.108   2.934  12.456  0.00  0.00    +0.000 A 
ATOM     15  C   UNL     1       6.163   3.804  13.006  0.00  0.00    +0.000 A 
ATOM     16  C   UNL     1       4.887   3.855  12.430  0.00  0.00    +0.000 A 
BRANCH  11  18
ATOM     17  C   UNL     1       3.002   4.194   9.744  0.00  0.00    +0.000 C 
ATOM     18  C   UNL     1       3.169   3.060  10.744  0.00  0.00    +0.000 C 
ENDBRANCH  11  18
ENDBRANCH   7  15
ENDBRANCH   1   8
BRANCH   4  19
ATOM     19  S   UNL     1       2.785   5.599  18.846  0.00  0.00    +0.000 S 
ATOM     20  O   UNL     1       1.937   5.036  17.815  0.00  0.00    +0.000 OA
ATOM     21  O   UNL     1       2.895   4.990  20.145  0.00  0.00    +0.000 OA
BRANCH  19  22
ATOM     22  C   UNL     1       2.266   7.283  19.070  0.00  0.00    +0.000 A 
ATOM     23  C   UNL     1       1.919   8.108  17.986  0.00  0.00    +0.000 A 
ATOM     24  C   UNL     1       1.290   9.340  18.231  0.00  0.00    +0.000 A 
ATOM     25  C   UNL     1       1.021   9.716  19.544  0.00  0.00    +0.000 A 
ATOM     26  C   UNL     1       1.532   8.947  20.597  0.00  0.00    +0.000 A 
ATOM     27  C   UNL     1       2.139   7.728  20.378  0.00  0.00    +0.000 A 
ATOM     28  N   UNL     1       1.266   9.349  21.924  0.00  0.00    +0.000 N 
ATOM     29  C   UNL     1      -0.087   9.625  22.040  0.00  0.00    +0.000 C 
ATOM     30  O   UNL     1      -0.825   9.070  22.845  0.00  0.00    +0.000 OA
ATOM     31  C   UNL     1      -0.546  10.667  21.008  0.00  0.00    +0.000 C 
ATOM     32  O   UNL     1       0.217  10.800  19.792  0.00  0.00    +0.000 OA
ATOM     33  H   UNL     1       1.732  10.254  22.022  0.00  0.00    +0.000 HD
ENDBRANCH  19  22
ENDBRANCH   4  19
TORSDOF 5
ENDMDL
MODEL 4
REMARK VINA RESULT:      -8.7      3.058      5.664
REMARK  Name = 
REMARK  6 active torsions:
REMARK  status: ('A' for Active; 'I' for Inactive)
REMARK    1  A    between atoms: C_1  and  C_2
REMARK    2  A    between atoms: C_2  and  C_3
REMARK    3  A    between atoms: C_7  and  N_8
REMARK    4  A    between atoms: C_9  and  C_11
REMARK    5  A    between atoms: N_14  and  S_15
REMARK    6  A    between atoms: S_15  and  C_18
REMARK                            x       y       z     vdW  Elec       q    Type
REMARK                         _______ _______ _______ _____ _____    ______ ____
ROOT
ATOM      1  C   UNL     1       7.402   6.046  17.869  0.00  0.00    +0.000 C 
ATOM      2  C   UNL     1       6.903   5.340  19.132  0.00  0.00    +0.000 C 
ATOM      3  C   UNL     1       5.425   4.968  19.019  0.00  0.00    +0.000 C 
ATOM      4  N   UNL     1       4.592   6.180  18.780  0.00  0.00    +0.000 NA
ATOM      5  C   UNL     1       5.018   6.929  17.561  0.00  0.00    +0.000 C 
ATOM      6  C   UNL     1       6.514   7.278  17.623  0.00  0.00    +0.000 C 
ENDROOT
BRANCH   1   8
ATOM      7  N   UNL     1       6.855   5.676  15.500  0.00  0.00    +0.000 N 
ATOM      8  C   UNL     1       7.434   5.133  16.636  0.00  0.00    +0.000 C 
ATOM      9  O   UNL     1       7.942   4.015  16.705  0.00  0.00    +0.000 OA
ATOM     10  H   UNL     1       6.479   6.615  15.561  0.00  0.00    +0.000 HD
BRANCH   7  15
ATOM     11  C   UNL     1       5.475   3.774  12.615  0.00  0.00    +0.000 A 
ATOM     12  C   UNL     1       6.538   3.830  11.708  0.00  0.00    +0.000 A 
ATOM     13  C   UNL     1       7.715   4.483  12.055  0.00  0.00    +0.000 A 
ATOM     14  C   UNL     1       7.838   5.092  13.305  0.00  0.00    +0.000 A 
ATOM     15  C   UNL     1       6.786   5.067  14.224  0.00  0.00    +0.000 A 
ATOM     16  C   UNL     1       5.608   4.395  13.873  0.00  0.00    +0.000 A 
BRANCH  11  18
ATOM     17  C   UNL     1       3.810   3.269  10.841  0.00  0.00    +0.000 C 
ATOM     18  C   UNL     1       4.238   2.985  12.273  0.00  0.00    +0.000 C 
ENDBRANCH  11  18
ENDBRANCH   7  15
ENDBRANCH   1   8
BRANCH   4  19
ATOM     19  S   UNL     1       2.882   5.855  18.801  0.00  0.00    +0.000 S 
ATOM     20  O   UNL     1       2.480   5.368  17.497  0.00  0.00    +0.000 OA
ATOM     21  O   UNL     1       2.581   5.124  20.003  0.00  0.00    +0.000 OA
BRANCH  19  22
ATOM     22  C   UNL     1       2.206   7.489  18.967  0.00  0.00    +0.000 A 
ATOM     23  C   UNL     1       1.742   8.221  17.861  0.00  0.00    +0.000 A 
ATOM     24  C   UNL     1       1.003   9.396  18.072  0.00  0.00    +0.000 A 
ATOM     25  C   UNL     1       0.741   9.808  19.375  0.00  0.00    +0.000 A 
ATOM     26  C   UNL     1       1.361   9.147  20.442  0.00  0.00    +0.000 A 
ATOM     27  C   UNL     1       2.078   7.984  20.257  0.00  0.00    +0.000 A 
ATOM     28  N   UNL     1       1.100   9.585  21.759  0.00  0.00    +0.000 N 
ATOM     29  C   UNL     1      -0.270   9.732  21.913  0.00  0.00    +0.000 C 
ATOM     30  O   UNL     1      -0.921   9.148  22.770  0.00  0.00    +0.000 OA
ATOM     31  C   UNL     1      -0.864  10.673  20.853  0.00  0.00    +0.000 C 
ATOM     32  O   UNL     1      -0.159  10.819  19.604  0.00  0.00    +0.000 OA
ATOM     33  H   UNL     1       1.476  10.536  21.798  0.00  0.00    +0.000 HD
ENDBRANCH  19  22
ENDBRANCH   4  19
TORSDOF 5
ENDMDL
MODEL 5
REMARK VINA RESULT:      -8.6      3.945      9.101
REMARK  Name = 
REMARK  6 active torsions:
REMARK  status: ('A' for Active; 'I' for Inactive)
REMARK    1  A    between atoms: C_1  and  C_2
REMARK    2  A    between atoms: C_2  and  C_3
REMARK    3  A    between atoms: C_7  and  N_8
REMARK    4  A    between atoms: C_9  and  C_11
REMARK    5  A    between atoms: N_14  and  S_15
REMARK    6  A    between atoms: S_15  and  C_18
REMARK                            x       y       z     vdW  Elec       q    Type
REMARK                         _______ _______ _______ _____ _____    ______ ____
ROOT
ATOM      1  C   UNL     1       1.093  10.480  19.451  0.00  0.00    +0.000 C 
ATOM      2  C   UNL     1       2.039  10.051  18.327  0.00  0.00    +0.000 C 
ATOM      3  C   UNL     1       1.969   8.544  18.080  0.00  0.00    +0.000 C 
ATOM      4  N   UNL     1       2.314   7.790  19.319  0.00  0.00    +0.000 NA
ATOM      5  C   UNL     1       1.434   8.155  20.468  0.00  0.00    +0.000 C 
ATOM      6  C   UNL     1       1.446   9.673  20.712  0.00  0.00    +0.000 C 
ENDROOT
BRANCH   1   8
ATOM      7  N   UNL     1      -0.766  10.943  17.910  0.00  0.00    +0.000 N 
ATOM      8  C   UNL     1      -0.390  10.321  19.090  0.00  0.00    +0.000 C 
ATOM      9  O   UNL     1      -1.143   9.684  19.825  0.00  0.00    +0.000 OA
ATOM     10  H   UNL     1      -0.053  11.429  17.380  0.00  0.00    +0.000 HD
BRANCH   7  15
ATOM     11  C   UNL     1      -4.395  11.620  17.449  0.00  0.00    +0.000 A 
ATOM     12  C   UNL     1      -4.657  10.947  16.252  0.00  0.00    +0.000 A 
ATOM     13  C   UNL     1      -3.638  10.257  15.605  0.00  0.00    +0.000 A 
ATOM     14  C   UNL     1      -2.351  10.241  16.142  0.00  0.00    +0.000 A 
ATOM     15  C   UNL     1      -2.056  10.920  17.328  0.00  0.00    +0.000 A 
ATOM     16  C   UNL     1      -3.091  11.601  17.981  0.00  0.00    +0.000 A 
BRANCH  11  18
ATOM     17  C   UNL     1      -5.235  12.289  19.691  0.00  0.00    +0.000 C 
ATOM     18  C   UNL     1      -5.522  12.286  18.197  0.00  0.00    +0.000 C 
ENDBRANCH  11  18
ENDBRANCH   7  15
ENDBRANCH   1   8
BRANCH   4  19
ATOM     19  S   UNL     1       2.413   6.070  19.071  0.00  0.00    +0.000 S 
ATOM     20  O   UNL     1       2.383   5.406  20.359  0.00  0.00    +0.000 OA
ATOM     21  O   UNL     1       1.495   5.716  18.021  0.00  0.00    +0.000 OA
BRANCH  19  22
ATOM     22  C   UNL     1       4.064   5.890  18.442  0.00  0.00    +0.000 A 
ATOM     23  C   UNL     1       5.119   5.412  19.239  0.00  0.00    +0.000 A 
ATOM     24  C   UNL     1       6.337   5.063  18.633  0.00  0.00    +0.000 A 
ATOM     25  C   UNL     1       6.472   5.195  17.255  0.00  0.00    +0.000 A 
ATOM     26  C   UNL     1       5.462   5.831  16.523  0.00  0.00    +0.000 A 
ATOM     27  C   UNL     1       4.253   6.167  17.095  0.00  0.00    +0.000 A 
ATOM     28  N   UNL     1       5.619   5.973  15.128  0.00  0.00    +0.000 N 
ATOM     29  C   UNL     1       6.007   4.752  14.599  0.00  0.00    +0.000 C 
ATOM     30  O   UNL     1       5.384   4.165  13.723  0.00  0.00    +0.000 OA
ATOM     31  C   UNL     1       7.275   4.214  15.280  0.00  0.00    +0.000 C 
ATOM     32  O   UNL     1       7.564   4.656  16.621  0.00  0.00    +0.000 OA
ATOM     33  H   UNL     1       6.433   6.582  15.016  0.00  0.00    +0.000 HD
ENDBRANCH  19  22
ENDBRANCH   4  19
TORSDOF 5
ENDMDL
MODEL 6
REMARK VINA RESULT:      -8.3      1.105      1.636
REMARK  Name = 
REMARK  6 active torsions:
REMARK  status: ('A' for Active; 'I' for Inactive)
REMARK    1  A    between atoms: C_1  and  C_2
REMARK    2  A    between atoms: C_2  and  C_3
REMARK    3  A    between atoms: C_7  and  N_8
REMARK    4  A    between atoms: C_9  and  C_11
REMARK    5  A    between atoms: N_14  and  S_15
REMARK    6  A    between atoms: S_15  and  C_18
REMARK                            x       y       z     vdW  Elec       q    Type
REMARK                         _______ _______ _______ _____ _____    ______ ____
ROOT
ATOM      1  C   UNL     1       7.025   5.992  16.594  0.00  0.00    +0.000 C 
ATOM      2  C   UNL     1       5.700   6.452  15.984  0.00  0.00    +0.000 C 
ATOM      3  C   UNL     1       4.568   6.419  17.011  0.00  0.00    +0.000 C 
ATOM      4  N   UNL     1       4.397   5.045  17.564  0.00  0.00    +0.000 NA
ATOM      5  C   UNL     1       5.653   4.521  18.178  0.00  0.00    +0.000 C 
ATOM      6  C   UNL     1       6.822   4.585  17.182  0.00  0.00    +0.000 C 
ENDROOT
BRANCH   1   8
ATOM      7  N   UNL     1       7.851   8.233  17.179  0.00  0.00    +0.000 N 
ATOM      8  C   UNL     1       7.575   6.959  17.650  0.00  0.00    +0.000 C 
ATOM      9  O   UNL     1       7.742   6.582  18.809  0.00  0.00    +0.000 OA
ATOM     10  H   UNL     1       7.659   8.430  16.204  0.00  0.00    +0.000 HD
BRANCH   7  15
ATOM     11  C   UNL     1       8.566  11.746  18.173  0.00  0.00    +0.000 A 
ATOM     12  C   UNL     1       9.219  11.564  19.396  0.00  0.00    +0.000 A 
ATOM     13  C   UNL     1       9.436  10.281  19.885  0.00  0.00    +0.000 A 
ATOM     14  C   UNL     1       8.996   9.171  19.163  0.00  0.00    +0.000 A 
ATOM     15  C   UNL     1       8.325   9.323  17.946  0.00  0.00    +0.000 A 
ATOM     16  C   UNL     1       8.123  10.619  17.454  0.00  0.00    +0.000 A 
BRANCH  11  18
ATOM     17  C   UNL     1       9.582  14.009  18.036  0.00  0.00    +0.000 C 
ATOM     18  C   UNL     1       8.418  13.132  17.601  0.00  0.00    +0.000 C 
ENDBRANCH  11  18
ENDBRANCH   7  15
ENDBRANCH   1   8
BRANCH   4  19
ATOM     19  S   UNL     1       3.023   4.896  18.621  0.00  0.00    +0.000 S 
ATOM     20  O   UNL     1       1.934   4.277  17.893  0.00  0.00    +0.000 OA
ATOM     21  O   UNL     1       3.481   4.370  19.879  0.00  0.00    +0.000 OA
BRANCH  19  22
ATOM     22  C   UNL     1       2.571   6.596  18.867  0.00  0.00    +0.000 A 
ATOM     23  C   UNL     1       2.396   7.485  17.793  0.00  0.00    +0.000 A 
ATOM     24  C   UNL     1       1.810   8.740  18.024  0.00  0.00    +0.000 A 
ATOM     25  C   UNL     1       1.409   9.074  19.314  0.00  0.00    +0.000 A 
ATOM     26  C   UNL     1       1.752   8.233  20.379  0.00  0.00    +0.000 A 
ATOM     27  C   UNL     1       2.314   6.991  20.172  0.00  0.00    +0.000 A 
ATOM     28  N   UNL     1       1.353   8.592  21.685  0.00  0.00    +0.000 N 
ATOM     29  C   UNL     1       0.012   8.941  21.659  0.00  0.00    +0.000 C 
ATOM     30  O   UNL     1      -0.842   8.396  22.346  0.00  0.00    +0.000 OA
ATOM     31  C   UNL     1      -0.267  10.052  20.634  0.00  0.00    +0.000 C 
ATOM     32  O   UNL     1       0.639  10.192  19.522  0.00  0.00    +0.000 OA
ATOM     33  H   UNL     1       1.852   9.464  21.881  0.00  0.00    +0.000 HD
ENDBRANCH  19  22
ENDBRANCH   4  19
TORSDOF 5
ENDMDL
MODEL 7
REMARK VINA RESULT:      -8.2      3.320      8.829
REMARK  Name = 
REMARK  6 active torsions:
REMARK  status: ('A' for Active; 'I' for Inactive)
REMARK    1  A    between atoms: C_1  and  C_2
REMARK    2  A    between atoms: C_2  and  C_3
REMARK    3  A    between atoms: C_7  and  N_8
REMARK    4  A    between atoms: C_9  and  C_11
REMARK    5  A    between atoms: N_14  and  S_15
REMARK    6  A    between atoms: S_15  and  C_18
REMARK                            x       y       z     vdW  Elec       q    Type
REMARK                         _______ _______ _______ _____ _____    ______ ____
ROOT
ATOM      1  C   UNL     1       1.417   9.915  19.258  0.00  0.00    +0.000 C 
ATOM      2  C   UNL     1       2.201   9.075  18.249  0.00  0.00    +0.000 C 
ATOM      3  C   UNL     1       1.911   7.584  18.414  0.00  0.00    +0.000 C 
ATOM      4  N   UNL     1       2.252   7.130  19.792  0.00  0.00    +0.000 NA
ATOM      5  C   UNL     1       1.524   7.905  20.841  0.00  0.00    +0.000 C 
ATOM      6  C   UNL     1       1.760   9.415  20.671  0.00  0.00    +0.000 C 
ENDROOT
BRANCH   1   8
ATOM      7  N   UNL     1      -0.508  10.544  17.864  0.00  0.00    +0.000 N 
ATOM      8  C   UNL     1      -0.099   9.894  19.017  0.00  0.00    +0.000 C 
ATOM      9  O   UNL     1      -0.846   9.334  19.817  0.00  0.00    +0.000 OA
ATOM     10  H   UNL     1       0.203  10.959  17.273  0.00  0.00    +0.000 HD
BRANCH   7  15
ATOM     11  C   UNL     1      -4.105  11.486  17.727  0.00  0.00    +0.000 A 
ATOM     12  C   UNL     1      -4.504  10.899  16.522  0.00  0.00    +0.000 A 
ATOM     13  C   UNL     1      -3.588  10.180  15.762  0.00  0.00    +0.000 A 
ATOM     14  C   UNL     1      -2.268  10.049  16.194  0.00  0.00    +0.000 A 
ATOM     15  C   UNL     1      -1.838  10.639  17.385  0.00  0.00    +0.000 A 
ATOM     16  C   UNL     1      -2.769  11.350  18.152  0.00  0.00    +0.000 A 
BRANCH  11  18
ATOM     17  C   UNL     1      -6.521  11.985  18.029  0.00  0.00    +0.000 C 
ATOM     18  C   UNL     1      -5.123  12.182  18.595  0.00  0.00    +0.000 C 
ENDBRANCH  11  18
ENDBRANCH   7  15
ENDBRANCH   1   8
BRANCH   4  19
ATOM     19  S   UNL     1       2.098   5.409  20.006  0.00  0.00    +0.000 S 
ATOM     20  O   UNL     1       2.452   5.071  21.370  0.00  0.00    +0.000 OA
ATOM     21  O   UNL     1       0.847   4.996  19.429  0.00  0.00    +0.000 OA
BRANCH  19  22
ATOM     22  C   UNL     1       3.409   4.799  18.974  0.00  0.00    +0.000 A 
ATOM     23  C   UNL     1       3.174   3.890  17.928  0.00  0.00    +0.000 A 
ATOM     24  C   UNL     1       4.194   3.630  16.998  0.00  0.00    +0.000 A 
ATOM     25  C   UNL     1       5.416   4.282  17.131  0.00  0.00    +0.000 A 
ATOM     26  C   UNL     1       5.665   5.048  18.276  0.00  0.00    +0.000 A 
ATOM     27  C   UNL     1       4.673   5.327  19.192  0.00  0.00    +0.000 A 
ATOM     28  N   UNL     1       6.915   5.691  18.405  0.00  0.00    +0.000 N 
ATOM     29  C   UNL     1       7.198   6.352  17.221  0.00  0.00    +0.000 C 
ATOM     30  O   UNL     1       7.419   7.554  17.152  0.00  0.00    +0.000 OA
ATOM     31  C   UNL     1       7.150   5.401  16.014  0.00  0.00    +0.000 C 
ATOM     32  O   UNL     1       6.340   4.214  16.118  0.00  0.00    +0.000 OA
ATOM     33  H   UNL     1       7.597   4.931  18.457  0.00  0.00    +0.000 HD
ENDBRANCH  19  22
ENDBRANCH   4  19
TORSDOF 5
ENDMDL
MODEL 8
REMARK VINA RESULT:      -8.1      3.514      8.722
REMARK  Name = 
REMARK  6 active torsions:
REMARK  status: ('A' for Active; 'I' for Inactive)
REMARK    1  A    between atoms: C_1  and  C_2
REMARK    2  A    between atoms: C_2  and  C_3
REMARK    3  A    between atoms: C_7  and  N_8
REMARK    4  A    between atoms: C_9  and  C_11
REMARK    5  A    between atoms: N_14  and  S_15
REMARK    6  A    between atoms: S_15  and  C_18
REMARK                            x       y       z     vdW  Elec       q    Type
REMARK                         _______ _______ _______ _____ _____    ______ ____
ROOT
ATOM      1  C   UNL     1       1.426   9.887  19.304  0.00  0.00    +0.000 C 
ATOM      2  C   UNL     1       2.134   9.004  18.274  0.00  0.00    +0.000 C 
ATOM      3  C   UNL     1       1.798   7.527  18.475  0.00  0.00    +0.000 C 
ATOM      4  N   UNL     1       2.184   7.080  19.844  0.00  0.00    +0.000 NA
ATOM      5  C   UNL     1       1.533   7.897  20.912  0.00  0.00    +0.000 C 
ATOM      6  C   UNL     1       1.815   9.394  20.708  0.00  0.00    +0.000 C 
ENDROOT
BRANCH   1   8
ATOM      7  N   UNL     1      -0.542  10.682  18.063  0.00  0.00    +0.000 N 
ATOM      8  C   UNL     1      -0.098   9.918  19.130  0.00  0.00    +0.000 C 
ATOM      9  O   UNL     1      -0.823   9.299  19.907  0.00  0.00    +0.000 OA
ATOM     10  H   UNL     1       0.153  11.137  17.482  0.00  0.00    +0.000 HD
BRANCH   7  15
ATOM     11  C   UNL     1      -3.586  10.503  15.931  0.00  0.00    +0.000 A 
ATOM     12  C   UNL     1      -4.539  11.116  16.751  0.00  0.00    +0.000 A 
ATOM     13  C   UNL     1      -4.173  11.600  18.002  0.00  0.00    +0.000 A 
ATOM     14  C   UNL     1      -2.857  11.470  18.446  0.00  0.00    +0.000 A 
ATOM     15  C   UNL     1      -1.888  10.848  17.656  0.00  0.00    +0.000 A 
ATOM     16  C   UNL     1      -2.261  10.374  16.391  0.00  0.00    +0.000 A 
BRANCH  11  18
ATOM     17  C   UNL     1      -2.717   9.728  13.736  0.00  0.00    +0.000 C 
ATOM     18  C   UNL     1      -3.964  10.066  14.540  0.00  0.00    +0.000 C 
ENDBRANCH  11  18
ENDBRANCH   7  15
ENDBRANCH   1   8
BRANCH   4  19
ATOM     19  S   UNL     1       1.978   5.370  20.092  0.00  0.00    +0.000 S 
ATOM     20  O   UNL     1       2.380   5.038  21.445  0.00  0.00    +0.000 OA
ATOM     21  O   UNL     1       0.688   4.995  19.578  0.00  0.00    +0.000 OA
BRANCH  19  22
ATOM     22  C   UNL     1       3.217   4.697  19.012  0.00  0.00    +0.000 A 
ATOM     23  C   UNL     1       2.889   4.080  17.792  0.00  0.00    +0.000 A 
ATOM     24  C   UNL     1       3.909   3.786  16.873  0.00  0.00    +0.000 A 
ATOM     25  C   UNL     1       5.224   4.117  17.187  0.00  0.00    +0.000 A 
ATOM     26  C   UNL     1       5.527   4.574  18.476  0.00  0.00    +0.000 A 
ATOM     27  C   UNL     1       4.540   4.883  19.387  0.00  0.00    +0.000 A 
ATOM     28  N   UNL     1       6.867   4.890  18.787  0.00  0.00    +0.000 N 
ATOM     29  C   UNL     1       7.381   5.688  17.777  0.00  0.00    +0.000 C 
ATOM     30  O   UNL     1       7.851   6.802  17.967  0.00  0.00    +0.000 OA
ATOM     31  C   UNL     1       7.240   5.021  16.399  0.00  0.00    +0.000 C 
ATOM     32  O   UNL     1       6.196   4.043  16.222  0.00  0.00    +0.000 OA
ATOM     33  H   UNL     1       7.371   4.003  18.709  0.00  0.00    +0.000 HD
ENDBRANCH  19  22
ENDBRANCH   4  19
TORSDOF 5
ENDMDL
MODEL 9
REMARK VINA RESULT:      -8.1      3.912      9.031
REMARK  Name = 
REMARK  6 active torsions:
REMARK  status: ('A' for Active; 'I' for Inactive)
REMARK    1  A    between atoms: C_1  and  C_2
REMARK    2  A    between atoms: C_2  and  C_3
REMARK    3  A    between atoms: C_7  and  N_8
REMARK    4  A    between atoms: C_9  and  C_11
REMARK    5  A    between atoms: N_14  and  S_15
REMARK    6  A    between atoms: S_15  and  C_18
REMARK                            x       y       z     vdW  Elec       q    Type
REMARK                         _______ _______ _______ _____ _____    ______ ____
ROOT
ATOM      1  C   UNL     1       1.084  10.327  19.960  0.00  0.00    +0.000 C 
ATOM      2  C   UNL     1       2.005   9.999  18.784  0.00  0.00    +0.000 C 
ATOM      3  C   UNL     1       1.940   8.516  18.417  0.00  0.00    +0.000 C 
ATOM      4  N   UNL     1       2.320   7.667  19.583  0.00  0.00    +0.000 NA
ATOM      5  C   UNL     1       1.464   7.931  20.778  0.00  0.00    +0.000 C 
ATOM      6  C   UNL     1       1.473   9.424  21.143  0.00  0.00    +0.000 C 
ENDROOT
BRANCH   1   8
ATOM      7  N   UNL     1      -0.853  11.030  18.619  0.00  0.00    +0.000 N 
ATOM      8  C   UNL     1      -0.406  10.185  19.622  0.00  0.00    +0.000 C 
ATOM      9  O   UNL     1      -1.104   9.372  20.225  0.00  0.00    +0.000 OA
ATOM     10  H   UNL     1      -0.180  11.650  18.184  0.00  0.00    +0.000 HD
BRANCH   7  15
ATOM     11  C   UNL     1      -3.721  10.346  16.350  0.00  0.00    +0.000 A 
ATOM     12  C   UNL     1      -4.741  11.089  16.954  0.00  0.00    +0.000 A 
ATOM     13  C   UNL     1      -4.477  11.828  18.101  0.00  0.00    +0.000 A 
ATOM     14  C   UNL     1      -3.198  11.824  18.660  0.00  0.00    +0.000 A 
ATOM     15  C   UNL     1      -2.165  11.076  18.088  0.00  0.00    +0.000 A 
ATOM     16  C   UNL     1      -2.435  10.346  16.924  0.00  0.00    +0.000 A 
BRANCH  11  18
ATOM     17  C   UNL     1      -3.094  10.175  13.952  0.00  0.00    +0.000 C 
ATOM     18  C   UNL     1      -3.987   9.625  15.054  0.00  0.00    +0.000 C 
ENDBRANCH  11  18
ENDBRANCH   7  15
ENDBRANCH   1   8
BRANCH   4  19
ATOM     19  S   UNL     1       2.424   5.974  19.196  0.00  0.00    +0.000 S 
ATOM     20  O   UNL     1       2.437   5.209  20.426  0.00  0.00    +0.000 OA
ATOM     21  O   UNL     1       1.479   5.696  18.148  0.00  0.00    +0.000 OA
BRANCH  19  22
ATOM     22  C   UNL     1       4.058   5.862  18.507  0.00  0.00    +0.000 A 
ATOM     23  C   UNL     1       5.157   5.418  19.262  0.00  0.00    +0.000 A 
ATOM     24  C   UNL     1       6.365   5.120  18.611  0.00  0.00    +0.000 A 
ATOM     25  C   UNL     1       6.446   5.267  17.230  0.00  0.00    +0.000 A 
ATOM     26  C   UNL     1       5.387   5.869  16.540  0.00  0.00    +0.000 A 
ATOM     27  C   UNL     1       4.188   6.155  17.157  0.00  0.00    +0.000 A 
ATOM     28  N   UNL     1       5.489   6.026  15.140  0.00  0.00    +0.000 N 
ATOM     29  C   UNL     1       5.903   4.825  14.588  0.00  0.00    +0.000 C 
ATOM     30  O   UNL     1       5.273   4.221  13.730  0.00  0.00    +0.000 OA
ATOM     31  C   UNL     1       7.215   4.331  15.220  0.00  0.00    +0.000 C 
ATOM     32  O   UNL     1       7.535   4.774  16.553  0.00  0.00    +0.000 OA
ATOM     33  H   UNL     1       6.275   6.667  15.005  0.00  0.00    +0.000 HD
ENDBRANCH  19  22
ENDBRANCH   4  19
TORSDOF 5
ENDMDL
