MODEL 1
REMARK VINA RESULT:      -7.2      0.000      0.000
REMARK  Name = 
REMARK  11 active torsions:
REMARK  status: ('A' for Active; 'I' for Inactive)
REMARK    1  A    between atoms: C_1  and  C_2
REMARK    2  A    between atoms: C_2  and  C_3
REMARK    3  A    between atoms: C_2  and  C_9
REMARK    4  A    between atoms: C_4  and  C_5
REMARK    5  A    between atoms: C_5  and  C_6
REMARK    6  A    between atoms: C_5  and  C_7
REMARK    7  A    between atoms: C_5  and  C_8
REMARK    8  A    between atoms: C_9  and  N_10
REMARK    9  A    between atoms: N_10  and  C_11
REMARK   10  A    between atoms: N_10  and  C_12
REMARK   11  A    between atoms: C_12  and  C_13
REMARK                            x       y       z     vdW  Elec       q    Type
REMARK                         _______ _______ _______ _____ _____    ______ ____
ROOT
ATOM      1  N   UNL     1       2.189   4.568  19.740  0.00  0.00    +0.000 NA
ATOM      2  C   UNL     1       0.942   4.173  20.400  0.00  0.00    +0.000 C 
ENDROOT
BRANCH   1   3
ATOM      3  C   UNL     1       3.248   3.526  19.834  0.00  0.00    +0.000 C 
BRANCH   3   5
ATOM      4  C   UNL     1       2.477   2.318  17.712  0.00  0.00    +0.000 C 
ATOM      5  C   UNL     1       3.674   2.789  18.528  0.00  0.00    +0.000 C 
BRANCH   5   6
ATOM      6  C   UNL     1       4.520   3.749  17.709  0.00  0.00    +0.000 C 
ATOM      7  C   UNL     1       5.247   4.573  17.006  0.00  0.00    +0.000 C 
BRANCH   7   8
ATOM      8  C   UNL     1       6.094   5.533  16.187  0.00  0.00    +0.000 C 
ATOM      9  C   UNL     1       7.094   6.232  17.115  0.00  0.00    +0.000 C 
ATOM     10  C   UNL     1       6.846   4.742  15.109  0.00  0.00    +0.000 C 
ATOM     11  C   UNL     1       5.181   6.573  15.527  0.00  0.00    +0.000 C 
ENDBRANCH   7   8
ENDBRANCH   5   6
ENDBRANCH   3   5
ENDBRANCH   1   3
BRANCH   1  12
ATOM     12  C   UNL     1       2.678   5.843  20.309  0.00  0.00    +0.000 C 
BRANCH  12  13
ATOM     13  C   UNL     1       2.251   7.079  19.530  0.00  0.00    +0.000 A 
ATOM     14  C   UNL     1       2.723   7.216  18.209  0.00  0.00    +0.000 A 
ATOM     15  C   UNL     1       2.569   8.405  17.510  0.00  0.00    +0.000 A 
ATOM     16  C   UNL     1       1.858   9.456  18.094  0.00  0.00    +0.000 A 
ATOM     17  C   UNL     1       1.281   9.308  19.363  0.00  0.00    +0.000 A 
ATOM     18  C   UNL     1       0.522  10.367  19.906  0.00  0.00    +0.000 A 
ATOM     19  C   UNL     1      -0.040  10.260  21.178  0.00  0.00    +0.000 A 
ATOM     20  C   UNL     1       0.171   9.123  21.935  0.00  0.00    +0.000 A 
ATOM     21  C   UNL     1       0.934   8.070  21.415  0.00  0.00    +0.000 A 
ATOM     22  C   UNL     1       1.481   8.131  20.111  0.00  0.00    +0.000 A 
ENDBRANCH  12  13
ENDBRANCH   1  12
TORSDOF 6
ENDMDL
MODEL 2
REMARK VINA RESULT:      -7.2      0.878      1.361
REMARK  Name = 
REMARK  11 active torsions:
REMARK  status: ('A' for Active; 'I' for Inactive)
REMARK    1  A    between atoms: C_1  and  C_2
REMARK    2  A    between atoms: C_2  and  C_3
REMARK    3  A    between atoms: C_2  and  C_9
REMARK    4  A    between atoms: C_4  and  C_5
REMARK    5  A    between atoms: C_5  and  C_6
REMARK    6  A    between atoms: C_5  and  C_7
REMARK    7  A    between atoms: C_5  and  C_8
REMARK    8  A    between atoms: C_9  and  N_10
REMARK    9  A    between atoms: N_10  and  C_11
REMARK   10  A    between atoms: N_10  and  C_12
REMARK   11  A    between atoms: C_12  and  C_13
REMARK                            x       y       z     vdW  Elec       q    Type
REMARK                         _______ _______ _______ _____ _____    ______ ____
ROOT
ATOM      1  N   UNL     1       2.251   4.274  20.181  0.00  0.00    +0.000 NA
ATOM      2  C   UNL     1       1.801   3.763  21.478  0.00  0.00    +0.000 C 
ENDROOT
BRANCH   1   3
ATOM      3  C   UNL     1       3.034   3.274  19.405  0.00  0.00    +0.000 C 
BRANCH   3   5
ATOM      4  C   UNL     1       1.345   3.705  17.529  0.00  0.00    +0.000 C 
ATOM      5  C   UNL     1       2.673   3.058  17.904  0.00  0.00    +0.000 C 
BRANCH   5   6
ATOM      6  C   UNL     1       3.796   3.647  17.068  0.00  0.00    +0.000 C 
ATOM      7  C   UNL     1       4.760   4.152  16.350  0.00  0.00    +0.000 C 
BRANCH   7   8
ATOM      8  C   UNL     1       5.885   4.740  15.513  0.00  0.00    +0.000 C 
ATOM      9  C   UNL     1       6.006   3.941  14.210  0.00  0.00    +0.000 C 
ATOM     10  C   UNL     1       5.560   6.206  15.198  0.00  0.00    +0.000 C 
ATOM     11  C   UNL     1       7.196   4.656  16.301  0.00  0.00    +0.000 C 
ENDBRANCH   7   8
ENDBRANCH   5   6
ENDBRANCH   3   5
ENDBRANCH   1   3
BRANCH   1  12
ATOM     12  C   UNL     1       3.046   5.506  20.372  0.00  0.00    +0.000 C 
BRANCH  12  13
ATOM     13  C   UNL     1       2.605   6.677  19.506  0.00  0.00    +0.000 A 
ATOM     14  C   UNL     1       3.162   6.784  18.216  0.00  0.00    +0.000 A 
ATOM     15  C   UNL     1       2.990   7.928  17.450  0.00  0.00    +0.000 A 
ATOM     16  C   UNL     1       2.178   8.958  17.930  0.00  0.00    +0.000 A 
ATOM     17  C   UNL     1       1.520   8.831  19.162  0.00  0.00    +0.000 A 
ATOM     18  C   UNL     1       0.663   9.865  19.598  0.00  0.00    +0.000 A 
ATOM     19  C   UNL     1       0.017   9.780  20.832  0.00  0.00    +0.000 A 
ATOM     20  C   UNL     1       0.240   8.693  21.657  0.00  0.00    +0.000 A 
ATOM     21  C   UNL     1       1.099   7.667  21.244  0.00  0.00    +0.000 A 
ATOM     22  C   UNL     1       1.734   7.704  19.979  0.00  0.00    +0.000 A 
ENDBRANCH  12  13
ENDBRANCH   1  12
TORSDOF 6
ENDMDL
MODEL 3
REMARK VINA RESULT:      -7.2      0.746      1.024
REMARK  Name = 
REMARK  11 active torsions:
REMARK  status: ('A' for Active; 'I' for Inactive)
REMARK    1  A    between atoms: C_1  and  C_2
REMARK    2  A    between atoms: C_2  and  C_3
REMARK    3  A    between atoms: C_2  and  C_9
REMARK    4  A    between atoms: C_4  and  C_5
REMARK    5  A    between atoms: C_5  and  C_6
REMARK    6  A    between atoms: C_5  and  C_7
REMARK    7  A    between atoms: C_5  and  C_8
REMARK    8  A    between atoms: C_9  and  N_10
REMARK    9  A    between atoms: N_10  and  C_11
REMARK   10  A    between atoms: N_10  and  C_12
REMARK   11  A    between atoms: C_12  and  C_13
REMARK                            x       y       z     vdW  Elec       q    Type
REMARK                         _______ _______ _______ _____ _____    ______ ____
ROOT
ATOM      1  N   UNL     1       1.709   4.815  20.240  0.00  0.00    +0.000 NA
ATOM      2  C   UNL     1       2.012   3.856  21.305  0.00  0.00    +0.000 C 
ENDROOT
BRANCH   1   3
ATOM      3  C   UNL     1       1.733   4.201  18.885  0.00  0.00    +0.000 C 
BRANCH   3   5
ATOM      4  C   UNL     1       2.309   1.882  17.966  0.00  0.00    +0.000 C 
ATOM      5  C   UNL     1       2.858   3.172  18.562  0.00  0.00    +0.000 C 
BRANCH   5   6
ATOM      6  C   UNL     1       3.821   3.829  17.587  0.00  0.00    +0.000 C 
ATOM      7  C   UNL     1       4.647   4.392  16.750  0.00  0.00    +0.000 C 
BRANCH   7   8
ATOM      8  C   UNL     1       5.611   5.049  15.775  0.00  0.00    +0.000 C 
ATOM      9  C   UNL     1       5.227   6.524  15.612  0.00  0.00    +0.000 C 
ATOM     10  C   UNL     1       7.037   4.938  16.330  0.00  0.00    +0.000 C 
ATOM     11  C   UNL     1       5.523   4.334  14.422  0.00  0.00    +0.000 C 
ENDBRANCH   7   8
ENDBRANCH   5   6
ENDBRANCH   3   5
ENDBRANCH   1   3
BRANCH   1  12
ATOM     12  C   UNL     1       2.654   5.951  20.301  0.00  0.00    +0.000 C 
BRANCH  12  13
ATOM     13  C   UNL     1       2.185   7.196  19.561  0.00  0.00    +0.000 A 
ATOM     14  C   UNL     1       2.648   7.387  18.243  0.00  0.00    +0.000 A 
ATOM     15  C   UNL     1       2.453   8.591  17.580  0.00  0.00    +0.000 A 
ATOM     16  C   UNL     1       1.710   9.600  18.196  0.00  0.00    +0.000 A 
ATOM     17  C   UNL     1       1.143   9.396  19.461  0.00  0.00    +0.000 A 
ATOM     18  C   UNL     1       0.352  10.414  20.037  0.00  0.00    +0.000 A 
ATOM     19  C   UNL     1      -0.203  10.251  21.307  0.00  0.00    +0.000 A 
ATOM     20  C   UNL     1       0.048   9.099  22.029  0.00  0.00    +0.000 A 
ATOM     21  C   UNL     1       0.842   8.087  21.477  0.00  0.00    +0.000 A 
ATOM     22  C   UNL     1       1.383   8.204  20.174  0.00  0.00    +0.000 A 
ENDBRANCH  12  13
ENDBRANCH   1  12
TORSDOF 6
ENDMDL
MODEL 4
REMARK VINA RESULT:      -7.0      3.292      6.263
REMARK  Name = 
REMARK  11 active torsions:
REMARK  status: ('A' for Active; 'I' for Inactive)
REMARK    1  A    between atoms: C_1  and  C_2
REMARK    2  A    between atoms: C_2  and  C_3
REMARK    3  A    between atoms: C_2  and  C_9
REMARK    4  A    between atoms: C_4  and  C_5
REMARK    5  A    between atoms: C_5  and  C_6
REMARK    6  A    between atoms: C_5  and  C_7
REMARK    7  A    between atoms: C_5  and  C_8
REMARK    8  A    between atoms: C_9  and  N_10
REMARK    9  A    between atoms: N_10  and  C_11
REMARK   10  A    between atoms: N_10  and  C_12
REMARK   11  A    between atoms: C_12  and  C_13
REMARK                            x       y       z     vdW  Elec       q    Type
REMARK                         _______ _______ _______ _____ _____    ______ ____
ROOT
ATOM      1  N   UNL     1       6.453   6.020  16.062  0.00  0.00    +0.000 NA
ATOM      2  C   UNL     1       6.899   5.180  14.947  0.00  0.00    +0.000 C 
ENDROOT
BRANCH   1   3
ATOM      3  C   UNL     1       7.526   6.912  16.580  0.00  0.00    +0.000 C 
BRANCH   3   5
ATOM      4  C   UNL     1       8.093   6.365  19.015  0.00  0.00    +0.000 C 
ATOM      5  C   UNL     1       7.450   7.369  18.068  0.00  0.00    +0.000 C 
BRANCH   5   6
ATOM      6  C   UNL     1       8.151   8.713  18.176  0.00  0.00    +0.000 C 
ATOM      7  C   UNL     1       8.752   9.866  18.269  0.00  0.00    +0.000 C 
BRANCH   7   8
ATOM      8  C   UNL     1       9.453  11.211  18.377  0.00  0.00    +0.000 C 
ATOM      9  C   UNL     1      10.791  11.137  17.633  0.00  0.00    +0.000 C 
ATOM     10  C   UNL     1       8.564  12.291  17.747  0.00  0.00    +0.000 C 
ATOM     11  C   UNL     1       9.695  11.535  19.856  0.00  0.00    +0.000 C 
ENDBRANCH   7   8
ENDBRANCH   5   6
ENDBRANCH   3   5
ENDBRANCH   1   3
BRANCH   1  12
ATOM     12  C   UNL     1       5.926   5.171  17.152  0.00  0.00    +0.000 C 
BRANCH  12  13
ATOM     13  C   UNL     1       4.460   5.416  17.484  0.00  0.00    +0.000 A 
ATOM     14  C   UNL     1       4.028   6.753  17.589  0.00  0.00    +0.000 A 
ATOM     15  C   UNL     1       2.776   7.066  18.102  0.00  0.00    +0.000 A 
ATOM     16  C   UNL     1       1.896   6.035  18.437  0.00  0.00    +0.000 A 
ATOM     17  C   UNL     1       2.258   4.696  18.237  0.00  0.00    +0.000 A 
ATOM     18  C   UNL     1       1.329   3.676  18.536  0.00  0.00    +0.000 A 
ATOM     19  C   UNL     1       1.670   2.332  18.374  0.00  0.00    +0.000 A 
ATOM     20  C   UNL     1       2.940   1.987  17.951  0.00  0.00    +0.000 A 
ATOM     21  C   UNL     1       3.877   2.988  17.665  0.00  0.00    +0.000 A 
ATOM     22  C   UNL     1       3.547   4.359  17.778  0.00  0.00    +0.000 A 
ENDBRANCH  12  13
ENDBRANCH   1  12
TORSDOF 6
ENDMDL
MODEL 5
REMARK VINA RESULT:      -6.8      3.110      5.549
REMARK  Name = 
REMARK  11 active torsions:
REMARK  status: ('A' for Active; 'I' for Inactive)
REMARK    1  A    between atoms: C_1  and  C_2
REMARK    2  A    between atoms: C_2  and  C_3
REMARK    3  A    between atoms: C_2  and  C_9
REMARK    4  A    between atoms: C_4  and  C_5
REMARK    5  A    between atoms: C_5  and  C_6
REMARK    6  A    between atoms: C_5  and  C_7
REMARK    7  A    between atoms: C_5  and  C_8
REMARK    8  A    between atoms: C_9  and  N_10
REMARK    9  A    between atoms: N_10  and  C_11
REMARK   10  A    between atoms: N_10  and  C_12
REMARK   11  A    between atoms: C_12  and  C_13
REMARK                            x       y       z     vdW  Elec       q    Type
REMARK                         _______ _______ _______ _____ _____    ______ ____
ROOT
ATOM      1  N   UNL     1       6.167   5.972  16.144  0.00  0.00    +0.000 NA
ATOM      2  C   UNL     1       6.426   5.123  14.978  0.00  0.00    +0.000 C 
ENDROOT
BRANCH   1   3
ATOM      3  C   UNL     1       7.401   6.606  16.683  0.00  0.00    +0.000 C 
BRANCH   3   5
ATOM      4  C   UNL     1       8.165   6.067  19.067  0.00  0.00    +0.000 C 
ATOM      5  C   UNL     1       7.410   7.047  18.178  0.00  0.00    +0.000 C 
BRANCH   5   6
ATOM      6  C   UNL     1       8.054   8.422  18.251  0.00  0.00    +0.000 C 
ATOM      7  C   UNL     1       8.607   9.601  18.314  0.00  0.00    +0.000 C 
BRANCH   7   8
ATOM      8  C   UNL     1       9.252  10.976  18.388  0.00  0.00    +0.000 C 
ATOM      9  C   UNL     1      10.632  10.915  17.725  0.00  0.00    +0.000 C 
ATOM     10  C   UNL     1       8.362  11.986  17.652  0.00  0.00    +0.000 C 
ATOM     11  C   UNL     1       9.397  11.385  19.858  0.00  0.00    +0.000 C 
ENDBRANCH   7   8
ENDBRANCH   5   6
ENDBRANCH   3   5
ENDBRANCH   1   3
BRANCH   1  12
ATOM     12  C   UNL     1       5.494   5.186  17.201  0.00  0.00    +0.000 C 
BRANCH  12  13
ATOM     13  C   UNL     1       4.264   5.858  17.794  0.00  0.00    +0.000 A 
ATOM     14  C   UNL     1       3.911   7.130  17.301  0.00  0.00    +0.000 A 
ATOM     15  C   UNL     1       2.948   7.904  17.932  0.00  0.00    +0.000 A 
ATOM     16  C   UNL     1       2.254   7.378  19.024  0.00  0.00    +0.000 A 
ATOM     17  C   UNL     1       2.506   6.073  19.466  0.00  0.00    +0.000 A 
ATOM     18  C   UNL     1       1.752   5.548  20.538  0.00  0.00    +0.000 A 
ATOM     19  C   UNL     1       1.999   4.262  21.020  0.00  0.00    +0.000 A 
ATOM     20  C   UNL     1       3.013   3.500  20.470  0.00  0.00    +0.000 A 
ATOM     21  C   UNL     1       3.779   4.013  19.416  0.00  0.00    +0.000 A 
ATOM     22  C   UNL     1       3.523   5.297  18.877  0.00  0.00    +0.000 A 
ENDBRANCH  12  13
ENDBRANCH   1  12
TORSDOF 6
ENDMDL
MODEL 6
REMARK VINA RESULT:      -6.8      0.813      1.322
REMARK  Name = 
REMARK  11 active torsions:
REMARK  status: ('A' for Active; 'I' for Inactive)
REMARK    1  A    between atoms: C_1  and  C_2
REMARK    2  A    between atoms: C_2  and  C_3
REMARK    3  A    between atoms: C_2  and  C_9
REMARK    4  A    between atoms: C_4  and  C_5
REMARK    5  A    between atoms: C_5  and  C_6
REMARK    6  A    between atoms: C_5  and  C_7
REMARK    7  A    between atoms: C_5  and  C_8
REMARK    8  A    between atoms: C_9  and  N_10
REMARK    9  A    between atoms: N_10  and  C_11
REMARK   10  A    between atoms: N_10  and  C_12
REMARK   11  A    between atoms: C_12  and  C_13
REMARK                            x       y       z     vdW  Elec       q    Type
REMARK                         _______ _______ _______ _____ _____    ______ ____
ROOT
ATOM      1  N   UNL     1       1.549   4.520  19.819  0.00  0.00    +0.000 NA
ATOM      2  C   UNL     1       1.305   3.654  20.976  0.00  0.00    +0.000 C 
ENDROOT
BRANCH   1   3
ATOM      3  C   UNL     1       2.128   3.786  18.661  0.00  0.00    +0.000 C 
BRANCH   3   5
ATOM      4  C   UNL     1       3.493   1.689  18.115  0.00  0.00    +0.000 C 
ATOM      5  C   UNL     1       3.464   3.011  18.872  0.00  0.00    +0.000 C 
BRANCH   5   6
ATOM      6  C   UNL     1       4.598   3.907  18.403  0.00  0.00    +0.000 C 
ATOM      7  C   UNL     1       5.572   4.675  18.001  0.00  0.00    +0.000 C 
BRANCH   7   8
ATOM      8  C   UNL     1       6.708   5.571  17.533  0.00  0.00    +0.000 C 
ATOM      9  C   UNL     1       7.417   4.900  16.351  0.00  0.00    +0.000 C 
ATOM     10  C   UNL     1       6.130   6.923  17.096  0.00  0.00    +0.000 C 
ATOM     11  C   UNL     1       7.696   5.776  18.686  0.00  0.00    +0.000 C 
ENDBRANCH   7   8
ENDBRANCH   5   6
ENDBRANCH   3   5
ENDBRANCH   1   3
BRANCH   1  12
ATOM     12  C   UNL     1       2.432   5.641  20.206  0.00  0.00    +0.000 C 
BRANCH  12  13
ATOM     13  C   UNL     1       2.125   6.953  19.498  0.00  0.00    +0.000 A 
ATOM     14  C   UNL     1       2.675   7.149  18.215  0.00  0.00    +0.000 A 
ATOM     15  C   UNL     1       2.633   8.391  17.597  0.00  0.00    +0.000 A 
ATOM     16  C   UNL     1       1.956   9.443  18.219  0.00  0.00    +0.000 A 
ATOM     17  C   UNL     1       1.303   9.245  19.443  0.00  0.00    +0.000 A 
ATOM     18  C   UNL     1       0.582  10.312  20.022  0.00  0.00    +0.000 A 
ATOM     19  C   UNL     1      -0.054  10.154  21.254  0.00  0.00    +0.000 A 
ATOM     20  C   UNL     1       0.046   8.956  21.937  0.00  0.00    +0.000 A 
ATOM     21  C   UNL     1       0.770   7.894  21.381  0.00  0.00    +0.000 A 
ATOM     22  C   UNL     1       1.390   8.010  20.114  0.00  0.00    +0.000 A 
ENDBRANCH  12  13
ENDBRANCH   1  12
TORSDOF 6
ENDMDL
MODEL 7
REMARK VINA RESULT:      -6.7      1.417      6.916
REMARK  Name = 
REMARK  11 active torsions:
REMARK  status: ('A' for Active; 'I' for Inactive)
REMARK    1  A    between atoms: C_1  and  C_2
REMARK    2  A    between atoms: C_2  and  C_3
REMARK    3  A    between atoms: C_2  and  C_9
REMARK    4  A    between atoms: C_4  and  C_5
REMARK    5  A    between atoms: C_5  and  C_6
REMARK    6  A    between atoms: C_5  and  C_7
REMARK    7  A    between atoms: C_5  and  C_8
REMARK    8  A    between atoms: C_9  and  N_10
REMARK    9  A    between atoms: N_10  and  C_11
REMARK   10  A    between atoms: N_10  and  C_12
REMARK   11  A    between atoms: C_12  and  C_13
REMARK                            x       y       z     vdW  Elec       q    Type
REMARK                         _______ _______ _______ _____ _____    ______ ____
ROOT
ATOM      1  N   UNL     1       2.694   4.625  18.910  0.00  0.00    +0.000 NA
ATOM      2  C   UNL     1       1.541   3.871  19.408  0.00  0.00    +0.000 C 
ENDROOT
BRANCH   1   3
ATOM      3  C   UNL     1       2.305   5.774  18.048  0.00  0.00    +0.000 C 
BRANCH   3   5
ATOM      4  C   UNL     1       3.921   7.444  16.973  0.00  0.00    +0.000 C 
ATOM      5  C   UNL     1       3.089   7.112  18.206  0.00  0.00    +0.000 C 
BRANCH   5   6
ATOM      6  C   UNL     1       2.077   8.215  18.465  0.00  0.00    +0.000 C 
ATOM      7  C   UNL     1       1.208   9.161  18.688  0.00  0.00    +0.000 C 
BRANCH   7   8
ATOM      8  C   UNL     1       0.194  10.265  18.947  0.00  0.00    +0.000 C 
ATOM      9  C   UNL     1      -0.404  10.073  20.345  0.00  0.00    +0.000 C 
ATOM     10  C   UNL     1       0.901  11.623  18.863  0.00  0.00    +0.000 C 
ATOM     11  C   UNL     1      -0.914  10.189  17.890  0.00  0.00    +0.000 C 
ENDBRANCH   7   8
ENDBRANCH   5   6
ENDBRANCH   3   5
ENDBRANCH   1   3
BRANCH   1  12
ATOM     12  C   UNL     1       3.607   3.723  18.175  0.00  0.00    +0.000 C 
BRANCH  12  13
ATOM     13  C   UNL     1       5.026   4.253  18.028  0.00  0.00    +0.000 A 
ATOM     14  C   UNL     1       5.685   4.693  19.194  0.00  0.00    +0.000 A 
ATOM     15  C   UNL     1       6.882   5.391  19.123  0.00  0.00    +0.000 A 
ATOM     16  C   UNL     1       7.491   5.583  17.881  0.00  0.00    +0.000 A 
ATOM     17  C   UNL     1       6.914   5.058  16.716  0.00  0.00    +0.000 A 
ATOM     18  C   UNL     1       7.579   5.222  15.481  0.00  0.00    +0.000 A 
ATOM     19  C   UNL     1       7.016   4.735  14.301  0.00  0.00    +0.000 A 
ATOM     20  C   UNL     1       5.781   4.115  14.327  0.00  0.00    +0.000 A 
ATOM     21  C   UNL     1       5.104   3.958  15.543  0.00  0.00    +0.000 A 
ATOM     22  C   UNL     1       5.668   4.403  16.762  0.00  0.00    +0.000 A 
ENDBRANCH  12  13
ENDBRANCH   1  12
TORSDOF 6
ENDMDL
MODEL 8
REMARK VINA RESULT:      -6.7      2.246      3.858
REMARK  Name = 
REMARK  11 active torsions:
REMARK  status: ('A' for Active; 'I' for Inactive)
REMARK    1  A    between atoms: C_1  and  C_2
REMARK    2  A    between atoms: C_2  and  C_3
REMARK    3  A    between atoms: C_2  and  C_9
REMARK    4  A    between atoms: C_4  and  C_5
REMARK    5  A    between atoms: C_5  and  C_6
REMARK    6  A    between atoms: C_5  and  C_7
REMARK    7  A    between atoms: C_5  and  C_8
REMARK    8  A    between atoms: C_9  and  N_10
REMARK    9  A    between atoms: N_10  and  C_11
REMARK   10  A    between atoms: N_10  and  C_12
REMARK   11  A    between atoms: C_12  and  C_13
REMARK                            x       y       z     vdW  Elec       q    Type
REMARK                         _______ _______ _______ _____ _____    ______ ____
ROOT
ATOM      1  N   UNL     1       2.534   3.502  20.067  0.00  0.00    +0.000 NA
ATOM      2  C   UNL     1       2.149   2.606  21.160  0.00  0.00    +0.000 C 
ENDROOT
BRANCH   1   3
ATOM      3  C   UNL     1       3.297   2.810  18.993  0.00  0.00    +0.000 C 
BRANCH   3   5
ATOM      4  C   UNL     1       1.422   3.625  17.452  0.00  0.00    +0.000 C 
ATOM      5  C   UNL     1       2.705   2.808  17.552  0.00  0.00    +0.000 C 
BRANCH   5   6
ATOM      6  C   UNL     1       3.759   3.376  16.617  0.00  0.00    +0.000 C 
ATOM      7  C   UNL     1       4.664   3.864  15.815  0.00  0.00    +0.000 C 
BRANCH   7   8
ATOM      8  C   UNL     1       5.719   4.433  14.879  0.00  0.00    +0.000 C 
ATOM      9  C   UNL     1       7.101   4.250  15.516  0.00  0.00    +0.000 C 
ATOM     10  C   UNL     1       5.657   3.684  13.542  0.00  0.00    +0.000 C 
ATOM     11  C   UNL     1       5.441   5.923  14.653  0.00  0.00    +0.000 C 
ENDBRANCH   7   8
ENDBRANCH   5   6
ENDBRANCH   3   5
ENDBRANCH   1   3
BRANCH   1  12
ATOM     12  C   UNL     1       3.319   4.637  20.599  0.00  0.00    +0.000 C 
BRANCH  12  13
ATOM     13  C   UNL     1       3.595   5.738  19.584  0.00  0.00    +0.000 A 
ATOM     14  C   UNL     1       2.495   6.479  19.106  0.00  0.00    +0.000 A 
ATOM     15  C   UNL     1       2.623   7.340  18.026  0.00  0.00    +0.000 A 
ATOM     16  C   UNL     1       3.882   7.543  17.457  0.00  0.00    +0.000 A 
ATOM     17  C   UNL     1       5.013   6.905  17.983  0.00  0.00    +0.000 A 
ATOM     18  C   UNL     1       6.281   7.169  17.422  0.00  0.00    +0.000 A 
ATOM     19  C   UNL     1       7.421   6.527  17.906  0.00  0.00    +0.000 A 
ATOM     20  C   UNL     1       7.313   5.596  18.922  0.00  0.00    +0.000 A 
ATOM     21  C   UNL     1       6.060   5.313  19.479  0.00  0.00    +0.000 A 
ATOM     22  C   UNL     1       4.891   5.979  19.039  0.00  0.00    +0.000 A 
ENDBRANCH  12  13
ENDBRANCH   1  12
TORSDOF 6
ENDMDL
MODEL 9
REMARK VINA RESULT:      -6.5      3.602      6.451
REMARK  Name = 
REMARK  11 active torsions:
REMARK  status: ('A' for Active; 'I' for Inactive)
REMARK    1  A    between atoms: C_1  and  C_2
REMARK    2  A    between atoms: C_2  and  C_3
REMARK    3  A    between atoms: C_2  and  C_9
REMARK    4  A    between atoms: C_4  and  C_5
REMARK    5  A    between atoms: C_5  and  C_6
REMARK    6  A    between atoms: C_5  and  C_7
REMARK    7  A    between atoms: C_5  and  C_8
REMARK    8  A    between atoms: C_9  and  N_10
REMARK    9  A    between atoms: N_10  and  C_11
REMARK   10  A    between atoms: N_10  and  C_12
REMARK   11  A    between atoms: C_12  and  C_13
REMARK                            x       y       z     vdW  Elec       q    Type
REMARK                         _______ _______ _______ _____ _____    ______ ____
ROOT
ATOM      1  N   UNL     1       7.051   5.576  18.181  0.00  0.00    +0.000 NA
ATOM      2  C   UNL     1       7.892   4.399  17.952  0.00  0.00    +0.000 C 
ENDROOT
BRANCH   1   3
ATOM      3  C   UNL     1       7.836   6.781  18.567  0.00  0.00    +0.000 C 
BRANCH   3   5
ATOM      4  C   UNL     1       6.540   8.343  17.007  0.00  0.00    +0.000 C 
ATOM      5  C   UNL     1       7.909   7.967  17.558  0.00  0.00    +0.000 C 
BRANCH   5   6
ATOM      6  C   UNL     1       8.525   9.153  18.281  0.00  0.00    +0.000 C 
ATOM      7  C   UNL     1       9.054  10.171  18.901  0.00  0.00    +0.000 C 
BRANCH   7   8
ATOM      8  C   UNL     1       9.671  11.358  19.624  0.00  0.00    +0.000 C 
ATOM      9  C   UNL     1      11.190  11.331  19.419  0.00  0.00    +0.000 C 
ATOM     10  C   UNL     1       9.088  12.654  19.045  0.00  0.00    +0.000 C 
ATOM     11  C   UNL     1       9.344  11.263  21.118  0.00  0.00    +0.000 C 
ENDBRANCH   7   8
ENDBRANCH   5   6
ENDBRANCH   3   5
ENDBRANCH   1   3
BRANCH   1  12
ATOM     12  C   UNL     1       6.036   5.277  19.215  0.00  0.00    +0.000 C 
BRANCH  12  13
ATOM     13  C   UNL     1       4.600   5.332  18.715  0.00  0.00    +0.000 A 
ATOM     14  C   UNL     1       4.059   6.598  18.414  0.00  0.00    +0.000 A 
ATOM     15  C   UNL     1       2.703   6.761  18.169  0.00  0.00    +0.000 A 
ATOM     16  C   UNL     1       1.873   5.638  18.134  0.00  0.00    +0.000 A 
ATOM     17  C   UNL     1       2.404   4.354  18.319  0.00  0.00    +0.000 A 
ATOM     18  C   UNL     1       1.551   3.233  18.225  0.00  0.00    +0.000 A 
ATOM     19  C   UNL     1       2.044   1.944  18.433  0.00  0.00    +0.000 A 
ATOM     20  C   UNL     1       3.373   1.758  18.767  0.00  0.00    +0.000 A 
ATOM     21  C   UNL     1       4.227   2.861  18.878  0.00  0.00    +0.000 A 
ATOM     22  C   UNL     1       3.766   4.176  18.631  0.00  0.00    +0.000 A 
ENDBRANCH  12  13
ENDBRANCH   1  12
TORSDOF 6
ENDMDL
