MODEL 1
REMARK VINA RESULT:      -8.5      0.000      0.000
REMARK  Name = 
REMARK  7 active torsions:
REMARK  status: ('A' for Active; 'I' for Inactive)
REMARK    1  A    between atoms: C_1  and  C_2
REMARK    2  A    between atoms: C_5  and  C_6
REMARK    3  A    between atoms: C_11  and  C_12
REMARK    4  A    between atoms: C_15  and  C_16
REMARK    5  A    between atoms: C_23  and  N_24
REMARK    6  A    between atoms: C_27  and  C_28
REMARK    7  A    between atoms: N_30  and  C_31
REMARK                            x       y       z     vdW  Elec       q    Type
REMARK                         _______ _______ _______ _____ _____    ______ ____
ROOT
ATOM      1  C   UNL     1       2.859   3.321  20.475  0.00  0.00    +0.000 C 
ATOM      2  C   UNL     1       2.511   4.720  20.026  0.00  0.00    +0.000 A 
ATOM      3  C   UNL     1       1.816   5.521  20.940  0.00  0.00    +0.000 A 
ATOM      4  C   UNL     1       1.477   6.841  20.631  0.00  0.00    +0.000 A 
ATOM      5  C   UNL     1       1.801   7.431  19.395  0.00  0.00    +0.000 A 
ATOM      6  C   UNL     1       2.469   6.625  18.476  0.00  0.00    +0.000 A 
ATOM      7  C   UNL     1       2.848   5.277  18.772  0.00  0.00    +0.000 A 
ENDROOT
BRANCH   5   8
ATOM      8  C   UNL     1       1.483   8.899  19.252  0.00  0.00    +0.000 C 
ATOM      9  O   UNL     1       2.155   9.502  18.404  0.00  0.00    +0.000 OA
ATOM     10  N   UNL     1       0.453   9.600  19.912  0.00  0.00    +0.000 N 
ATOM     11  C   UNL     1       0.121  10.903  19.328  0.00  0.00    +0.000 C 
ATOM     12  C   UNL     1      -1.258  11.377  19.793  0.00  0.00    +0.000 C 
ATOM     13  C   UNL     1      -1.116  11.812  21.260  0.00  0.00    +0.000 C 
ATOM     14  C   UNL     1      -0.306  10.725  22.035  0.00  0.00    +0.000 C 
ATOM     15  C   UNL     1      -0.091   9.386  21.264  0.00  0.00    +0.000 C 
BRANCH  13  16
ATOM     16  C   UNL     1      -2.422  12.295  21.910  0.00  0.00    +0.000 A 
ATOM     17  C   UNL     1      -2.662  12.196  23.282  0.00  0.00    +0.000 A 
ATOM     18  C   UNL     1      -3.883  12.640  23.844  0.00  0.00    +0.000 A 
ATOM     19  C   UNL     1      -4.894  13.196  23.048  0.00  0.00    +0.000 A 
ATOM     20  C   UNL     1      -4.665  13.302  21.672  0.00  0.00    +0.000 A 
ATOM     21  C   UNL     1      -3.439  12.862  21.119  0.00  0.00    +0.000 A 
BRANCH  19  22
ATOM     22  C   UNL     1      -6.146  13.648  23.632  0.00  0.00    +0.000 C 
ATOM     23  N   UNL     1      -7.159  14.006  24.100  0.00  0.00    +0.000 NA
ENDBRANCH  19  22
ENDBRANCH  13  16
ENDBRANCH   5   8
BRANCH   7  24
ATOM     24  N   UNL     1       3.513   4.496  17.780  0.00  0.00    +0.000 N 
ATOM     25  C   UNL     1       4.734   4.842  17.149  0.00  0.00    +0.000 A 
ATOM     26  C   UNL     1       5.739   5.474  17.881  0.00  0.00    +0.000 A 
ATOM     27  C   UNL     1       6.812   6.044  17.204  0.00  0.00    +0.000 A 
ATOM     28  C   UNL     1       6.933   5.841  15.832  0.00  0.00    +0.000 A 
ATOM     29  C   UNL     1       5.963   5.084  15.203  0.00  0.00    +0.000 A 
ATOM     30  N   UNL     1       4.859   4.605  15.828  0.00  0.00    +0.000 NA
ATOM     31  H   UNL     1       2.876   4.230  17.028  0.00  0.00    +0.000 HD
BRANCH  27  32
ATOM     32  C   UNL     1       7.745   6.992  17.871  0.00  0.00    +0.000 C 
ATOM     33  O   UNL     1       8.323   6.635  18.894  0.00  0.00    +0.000 OA
ATOM     34  N   UNL     1       7.939   8.225  17.273  0.00  0.00    +0.000 N 
ATOM     35  H   UNL     1       7.401   8.487  16.459  0.00  0.00    +0.000 HD
BRANCH  34  36
ATOM     36  C   UNL     1       8.830   9.202  17.822  0.00  0.00    +0.000 C 
ATOM     37  C   UNL     1       8.358  10.602  18.110  0.00  0.00    +0.000 C 
ATOM     38  C   UNL     1       8.671   9.671  19.243  0.00  0.00    +0.000 C 
ENDBRANCH  34  36
ENDBRANCH  27  32
ENDBRANCH   7  24
TORSDOF 6
ENDMDL
MODEL 2
REMARK VINA RESULT:      -8.3      1.168      1.251
REMARK  Name = 
REMARK  7 active torsions:
REMARK  status: ('A' for Active; 'I' for Inactive)
REMARK    1  A    between atoms: C_1  and  C_2
REMARK    2  A    between atoms: C_5  and  C_6
REMARK    3  A    between atoms: C_11  and  C_12
REMARK    4  A    between atoms: C_15  and  C_16
REMARK    5  A    between atoms: C_23  and  N_24
REMARK    6  A    between atoms: C_27  and  C_28
REMARK    7  A    between atoms: N_30  and  C_31
REMARK                            x       y       z     vdW  Elec       q    Type
REMARK                         _______ _______ _______ _____ _____    ______ ____
ROOT
ATOM      1  C   UNL     1       3.223   2.784  21.044  0.00  0.00    +0.000 C 
ATOM      2  C   UNL     1       2.983   4.153  20.454  0.00  0.00    +0.000 A 
ATOM      3  C   UNL     1       1.860   4.850  20.916  0.00  0.00    +0.000 A 
ATOM      4  C   UNL     1       1.570   6.137  20.456  0.00  0.00    +0.000 A 
ATOM      5  C   UNL     1       2.373   6.796  19.507  0.00  0.00    +0.000 A 
ATOM      6  C   UNL     1       3.475   6.091  19.027  0.00  0.00    +0.000 A 
ATOM      7  C   UNL     1       3.809   4.781  19.495  0.00  0.00    +0.000 A 
ENDROOT
BRANCH   5   8
ATOM      8  C   UNL     1       2.008   8.226  19.199  0.00  0.00    +0.000 C 
ATOM      9  O   UNL     1       2.597   8.722  18.229  0.00  0.00    +0.000 OA
ATOM     10  N   UNL     1       1.016   8.993  19.843  0.00  0.00    +0.000 N 
ATOM     11  C   UNL     1       0.607  10.203  19.123  0.00  0.00    +0.000 C 
ATOM     12  C   UNL     1      -0.743  10.714  19.632  0.00  0.00    +0.000 C 
ATOM     13  C   UNL     1      -0.498  11.341  21.014  0.00  0.00    +0.000 C 
ATOM     14  C   UNL     1       0.397  10.378  21.856  0.00  0.00    +0.000 C 
ATOM     15  C   UNL     1       0.584   8.952  21.251  0.00  0.00    +0.000 C 
BRANCH  13  16
ATOM     16  C   UNL     1      -1.761  11.887  21.698  0.00  0.00    +0.000 A 
ATOM     17  C   UNL     1      -2.021  11.701  23.058  0.00  0.00    +0.000 A 
ATOM     18  C   UNL     1      -3.203  12.206  23.652  0.00  0.00    +0.000 A 
ATOM     19  C   UNL     1      -4.152  12.912  22.901  0.00  0.00    +0.000 A 
ATOM     20  C   UNL     1      -3.903  13.107  21.538  0.00  0.00    +0.000 A 
ATOM     21  C   UNL     1      -2.717  12.604  20.954  0.00  0.00    +0.000 A 
BRANCH  19  22
ATOM     22  C   UNL     1      -5.364  13.428  23.517  0.00  0.00    +0.000 C 
ATOM     23  N   UNL     1      -6.339  13.851  24.011  0.00  0.00    +0.000 NA
ENDBRANCH  19  22
ENDBRANCH  13  16
ENDBRANCH   5   8
BRANCH   7  24
ATOM     24  N   UNL     1       4.941   4.102  18.950  0.00  0.00    +0.000 N 
ATOM     25  C   UNL     1       5.952   4.703  18.158  0.00  0.00    +0.000 A 
ATOM     26  C   UNL     1       6.378   5.999  18.444  0.00  0.00    +0.000 A 
ATOM     27  C   UNL     1       7.166   6.672  17.515  0.00  0.00    +0.000 A 
ATOM     28  C   UNL     1       7.629   5.986  16.396  0.00  0.00    +0.000 A 
ATOM     29  C   UNL     1       7.271   4.658  16.258  0.00  0.00    +0.000 A 
ATOM     30  N   UNL     1       6.425   4.016  17.100  0.00  0.00    +0.000 NA
ATOM     31  H   UNL     1       4.662   3.255  18.452  0.00  0.00    +0.000 HD
BRANCH  27  32
ATOM     32  C   UNL     1       7.395   8.140  17.599  0.00  0.00    +0.000 C 
ATOM     33  O   UNL     1       6.615   8.896  17.027  0.00  0.00    +0.000 OA
ATOM     34  N   UNL     1       8.467   8.576  18.357  0.00  0.00    +0.000 N 
ATOM     35  H   UNL     1       9.108   7.910  18.766  0.00  0.00    +0.000 HD
BRANCH  34  36
ATOM     36  C   UNL     1       8.765   9.967  18.519  0.00  0.00    +0.000 C 
ATOM     37  C   UNL     1       9.319  10.493  19.816  0.00  0.00    +0.000 C 
ATOM     38  C   UNL     1      10.191  10.442  18.597  0.00  0.00    +0.000 C 
ENDBRANCH  34  36
ENDBRANCH  27  32
ENDBRANCH   7  24
TORSDOF 6
ENDMDL
MODEL 3
REMARK VINA RESULT:      -8.3      2.884     12.171
REMARK  Name = 
REMARK  7 active torsions:
REMARK  status: ('A' for Active; 'I' for Inactive)
REMARK    1  A    between atoms: C_1  and  C_2
REMARK    2  A    between atoms: C_5  and  C_6
REMARK    3  A    between atoms: C_11  and  C_12
REMARK    4  A    between atoms: C_15  and  C_16
REMARK    5  A    between atoms: C_23  and  N_24
REMARK    6  A    between atoms: C_27  and  C_28
REMARK    7  A    between atoms: N_30  and  C_31
REMARK                            x       y       z     vdW  Elec       q    Type
REMARK                         _______ _______ _______ _____ _____    ______ ____
ROOT
ATOM      1  C   UNL     1      -1.216  13.439  19.094  0.00  0.00    +0.000 C 
ATOM      2  C   UNL     1      -0.531  12.166  19.530  0.00  0.00    +0.000 A 
ATOM      3  C   UNL     1      -0.700  11.046  18.706  0.00  0.00    +0.000 A 
ATOM      4  C   UNL     1      -0.079   9.830  19.005  0.00  0.00    +0.000 A 
ATOM      5  C   UNL     1       0.733   9.659  20.142  0.00  0.00    +0.000 A 
ATOM      6  C   UNL     1       0.878  10.767  20.975  0.00  0.00    +0.000 A 
ATOM      7  C   UNL     1       0.273  12.030  20.684  0.00  0.00    +0.000 A 
ENDROOT
BRANCH   5   8
ATOM      8  C   UNL     1       1.435   8.331  20.268  0.00  0.00    +0.000 C 
ATOM      9  O   UNL     1       1.260   7.744  21.345  0.00  0.00    +0.000 OA
ATOM     10  N   UNL     1       2.174   7.676  19.262  0.00  0.00    +0.000 N 
ATOM     11  C   UNL     1       2.432   6.255  19.511  0.00  0.00    +0.000 C 
ATOM     12  C   UNL     1       2.817   5.532  18.218  0.00  0.00    +0.000 C 
ATOM     13  C   UNL     1       4.248   5.967  17.866  0.00  0.00    +0.000 C 
ATOM     14  C   UNL     1       4.359   7.517  18.015  0.00  0.00    +0.000 C 
ATOM     15  C   UNL     1       2.999   8.262  18.191  0.00  0.00    +0.000 C 
BRANCH  13  16
ATOM     16  C   UNL     1       4.797   5.357  16.566  0.00  0.00    +0.000 A 
ATOM     17  C   UNL     1       5.188   6.137  15.474  0.00  0.00    +0.000 A 
ATOM     18  C   UNL     1       5.676   5.539  14.288  0.00  0.00    +0.000 A 
ATOM     19  C   UNL     1       5.788   4.148  14.164  0.00  0.00    +0.000 A 
ATOM     20  C   UNL     1       5.401   3.356  15.250  0.00  0.00    +0.000 A 
ATOM     21  C   UNL     1       4.920   3.961  16.435  0.00  0.00    +0.000 A 
BRANCH  19  22
ATOM     22  C   UNL     1       6.290   3.541  12.942  0.00  0.00    +0.000 C 
ATOM     23  N   UNL     1       6.695   3.059  11.953  0.00  0.00    +0.000 NA
ENDBRANCH  19  22
ENDBRANCH  13  16
ENDBRANCH   5   8
BRANCH   7  24
ATOM     24  N   UNL     1       0.444  13.121  21.588  0.00  0.00    +0.000 N 
ATOM     25  C   UNL     1      -0.593  13.741  22.328  0.00  0.00    +0.000 A 
ATOM     26  C   UNL     1      -1.633  12.970  22.846  0.00  0.00    +0.000 A 
ATOM     27  C   UNL     1      -2.770  13.607  23.333  0.00  0.00    +0.000 A 
ATOM     28  C   UNL     1      -2.780  14.996  23.429  0.00  0.00    +0.000 A 
ATOM     29  C   UNL     1      -1.651  15.679  23.019  0.00  0.00    +0.000 A 
ATOM     30  N   UNL     1      -0.574  15.083  22.451  0.00  0.00    +0.000 NA
ATOM     31  H   UNL     1       0.973  13.881  21.157  0.00  0.00    +0.000 HD
BRANCH  27  32
ATOM     32  C   UNL     1      -4.029  12.862  23.606  0.00  0.00    +0.000 C 
ATOM     33  O   UNL     1      -3.981  11.848  24.296  0.00  0.00    +0.000 OA
ATOM     34  N   UNL     1      -5.203  13.382  23.090  0.00  0.00    +0.000 N 
ATOM     35  H   UNL     1      -5.180  14.192  22.486  0.00  0.00    +0.000 HD
BRANCH  34  36
ATOM     36  C   UNL     1      -6.471  12.755  23.309  0.00  0.00    +0.000 C 
ATOM     37  C   UNL     1      -7.504  13.390  24.201  0.00  0.00    +0.000 C 
ATOM     38  C   UNL     1      -7.727  13.336  22.719  0.00  0.00    +0.000 C 
ENDBRANCH  34  36
ENDBRANCH  27  32
ENDBRANCH   7  24
TORSDOF 6
ENDMDL
MODEL 4
REMARK VINA RESULT:      -8.0      3.042     11.726
REMARK  Name = 
REMARK  7 active torsions:
REMARK  status: ('A' for Active; 'I' for Inactive)
REMARK    1  A    between atoms: C_1  and  C_2
REMARK    2  A    between atoms: C_5  and  C_6
REMARK    3  A    between atoms: C_11  and  C_12
REMARK    4  A    between atoms: C_15  and  C_16
REMARK    5  A    between atoms: C_23  and  N_24
REMARK    6  A    between atoms: C_27  and  C_28
REMARK    7  A    between atoms: N_30  and  C_31
REMARK                            x       y       z     vdW  Elec       q    Type
REMARK                         _______ _______ _______ _____ _____    ______ ____
ROOT
ATOM      1  C   UNL     1      -1.465  13.202  20.353  0.00  0.00    +0.000 C 
ATOM      2  C   UNL     1      -0.677  11.927  20.175  0.00  0.00    +0.000 A 
ATOM      3  C   UNL     1      -0.083  11.387  21.322  0.00  0.00    +0.000 A 
ATOM      4  C   UNL     1       0.640  10.192  21.268  0.00  0.00    +0.000 A 
ATOM      5  C   UNL     1       0.819   9.476  20.069  0.00  0.00    +0.000 A 
ATOM      6  C   UNL     1       0.251  10.028  18.923  0.00  0.00    +0.000 A 
ATOM      7  C   UNL     1      -0.512  11.238  18.952  0.00  0.00    +0.000 A 
ENDROOT
BRANCH   5   8
ATOM      8  C   UNL     1       1.513   8.142  20.186  0.00  0.00    +0.000 C 
ATOM      9  O   UNL     1       1.314   7.538  21.249  0.00  0.00    +0.000 OA
ATOM     10  N   UNL     1       2.270   7.502  19.184  0.00  0.00    +0.000 N 
ATOM     11  C   UNL     1       2.518   6.076  19.414  0.00  0.00    +0.000 C 
ATOM     12  C   UNL     1       2.926   5.373  18.116  0.00  0.00    +0.000 C 
ATOM     13  C   UNL     1       4.366   5.809  17.801  0.00  0.00    +0.000 C 
ATOM     14  C   UNL     1       4.479   7.355  17.979  0.00  0.00    +0.000 C 
ATOM     15  C   UNL     1       3.119   8.103  18.141  0.00  0.00    +0.000 C 
BRANCH  13  16
ATOM     16  C   UNL     1       4.939   5.219  16.502  0.00  0.00    +0.000 A 
ATOM     17  C   UNL     1       5.960   5.840  15.779  0.00  0.00    +0.000 A 
ATOM     18  C   UNL     1       6.453   5.275  14.579  0.00  0.00    +0.000 A 
ATOM     19  C   UNL     1       5.940   4.072  14.074  0.00  0.00    +0.000 A 
ATOM     20  C   UNL     1       4.918   3.439  14.789  0.00  0.00    +0.000 A 
ATOM     21  C   UNL     1       4.435   4.008  15.991  0.00  0.00    +0.000 A 
BRANCH  19  22
ATOM     22  C   UNL     1       6.451   3.498  12.840  0.00  0.00    +0.000 C 
ATOM     23  N   UNL     1       6.870   3.033  11.849  0.00  0.00    +0.000 NA
ENDBRANCH  19  22
ENDBRANCH  13  16
ENDBRANCH   5   8
BRANCH   7  24
ATOM     24  N   UNL     1      -1.052  11.762  17.739  0.00  0.00    +0.000 N 
ATOM     25  C   UNL     1      -2.398  11.625  17.316  0.00  0.00    +0.000 A 
ATOM     26  C   UNL     1      -3.429  11.678  18.253  0.00  0.00    +0.000 A 
ATOM     27  C   UNL     1      -4.708  11.281  17.875  0.00  0.00    +0.000 A 
ATOM     28  C   UNL     1      -4.957  10.984  16.538  0.00  0.00    +0.000 A 
ATOM     29  C   UNL     1      -3.907  11.089  15.646  0.00  0.00    +0.000 A 
ATOM     30  N   UNL     1      -2.634  11.378  16.013  0.00  0.00    +0.000 NA
ATOM     31  H   UNL     1      -0.478  11.504  16.935  0.00  0.00    +0.000 HD
BRANCH  27  32
ATOM     32  C   UNL     1      -5.774  11.013  18.878  0.00  0.00    +0.000 C 
ATOM     33  O   UNL     1      -6.258   9.886  18.942  0.00  0.00    +0.000 OA
ATOM     34  N   UNL     1      -6.138  12.052  19.716  0.00  0.00    +0.000 N 
ATOM     35  H   UNL     1      -5.743  12.974  19.588  0.00  0.00    +0.000 HD
BRANCH  34  36
ATOM     36  C   UNL     1      -7.139  11.895  20.728  0.00  0.00    +0.000 C 
ATOM     37  C   UNL     1      -6.896  12.370  22.135  0.00  0.00    +0.000 C 
ATOM     38  C   UNL     1      -7.882  13.088  21.263  0.00  0.00    +0.000 C 
ENDBRANCH  34  36
ENDBRANCH  27  32
ENDBRANCH   7  24
TORSDOF 6
ENDMDL
MODEL 5
REMARK VINA RESULT:      -7.8      3.106     11.959
REMARK  Name = 
REMARK  7 active torsions:
REMARK  status: ('A' for Active; 'I' for Inactive)
REMARK    1  A    between atoms: C_1  and  C_2
REMARK    2  A    between atoms: C_5  and  C_6
REMARK    3  A    between atoms: C_11  and  C_12
REMARK    4  A    between atoms: C_15  and  C_16
REMARK    5  A    between atoms: C_23  and  N_24
REMARK    6  A    between atoms: C_27  and  C_28
REMARK    7  A    between atoms: N_30  and  C_31
REMARK                            x       y       z     vdW  Elec       q    Type
REMARK                         _______ _______ _______ _____ _____    ______ ____
ROOT
ATOM      1  C   UNL     1       0.171  16.671  20.793  0.00  0.00    +0.000 C 
ATOM      2  C   UNL     1      -0.049  15.230  20.400  0.00  0.00    +0.000 A 
ATOM      3  C   UNL     1      -0.209  14.968  19.034  0.00  0.00    +0.000 A 
ATOM      4  C   UNL     1      -0.385  13.663  18.565  0.00  0.00    +0.000 A 
ATOM      5  C   UNL     1      -0.420  12.552  19.429  0.00  0.00    +0.000 A 
ATOM      6  C   UNL     1      -0.287  12.817  20.790  0.00  0.00    +0.000 A 
ATOM      7  C   UNL     1      -0.085  14.140  21.297  0.00  0.00    +0.000 A 
ENDROOT
BRANCH   5   8
ATOM      8  C   UNL     1      -0.490  11.197  18.771  0.00  0.00    +0.000 C 
ATOM      9  O   UNL     1      -1.562  10.943  18.205  0.00  0.00    +0.000 OA
ATOM     10  N   UNL     1       0.559  10.261  18.668  0.00  0.00    +0.000 N 
ATOM     11  C   UNL     1       0.348   9.204  17.675  0.00  0.00    +0.000 C 
ATOM     12  C   UNL     1       1.669   8.526  17.305  0.00  0.00    +0.000 C 
ATOM     13  C   UNL     1       2.074   7.644  18.497  0.00  0.00    +0.000 C 
ATOM     14  C   UNL     1       1.900   8.461  19.815  0.00  0.00    +0.000 C 
ATOM     15  C   UNL     1       1.652   9.989  19.618  0.00  0.00    +0.000 C 
BRANCH  13  16
ATOM     16  C   UNL     1       3.407   6.901  18.315  0.00  0.00    +0.000 A 
ATOM     17  C   UNL     1       4.315   7.219  17.302  0.00  0.00    +0.000 A 
ATOM     18  C   UNL     1       5.527   6.504  17.156  0.00  0.00    +0.000 A 
ATOM     19  C   UNL     1       5.864   5.455  18.021  0.00  0.00    +0.000 A 
ATOM     20  C   UNL     1       4.965   5.127  19.042  0.00  0.00    +0.000 A 
ATOM     21  C   UNL     1       3.758   5.851  19.185  0.00  0.00    +0.000 A 
BRANCH  19  22
ATOM     22  C   UNL     1       7.111   4.724  17.865  0.00  0.00    +0.000 C 
ATOM     23  N   UNL     1       8.116   4.136  17.732  0.00  0.00    +0.000 NA
ENDBRANCH  19  22
ENDBRANCH  13  16
ENDBRANCH   5   8
BRANCH   7  24
ATOM     24  N   UNL     1       0.025  14.348  22.705  0.00  0.00    +0.000 N 
ATOM     25  C   UNL     1      -1.055  14.326  23.623  0.00  0.00    +0.000 A 
ATOM     26  C   UNL     1      -2.096  13.415  23.446  0.00  0.00    +0.000 A 
ATOM     27  C   UNL     1      -3.266  13.574  24.182  0.00  0.00    +0.000 A 
ATOM     28  C   UNL     1      -3.312  14.545  25.179  0.00  0.00    +0.000 A 
ATOM     29  C   UNL     1      -2.184  15.318  25.381  0.00  0.00    +0.000 A 
ATOM     30  N   UNL     1      -1.072  15.243  24.610  0.00  0.00    +0.000 NA
ATOM     31  H   UNL     1       0.552  15.197  22.915  0.00  0.00    +0.000 HD
BRANCH  27  32
ATOM     32  C   UNL     1      -4.517  12.849  23.832  0.00  0.00    +0.000 C 
ATOM     33  O   UNL     1      -4.948  12.001  24.608  0.00  0.00    +0.000 OA
ATOM     34  N   UNL     1      -5.152  13.202  22.655  0.00  0.00    +0.000 N 
ATOM     35  H   UNL     1      -4.728  13.872  22.027  0.00  0.00    +0.000 HD
BRANCH  34  36
ATOM     36  C   UNL     1      -6.371  12.580  22.234  0.00  0.00    +0.000 C 
ATOM     37  C   UNL     1      -7.682  13.316  22.314  0.00  0.00    +0.000 C 
ATOM     38  C   UNL     1      -7.066  13.027  20.977  0.00  0.00    +0.000 C 
ENDBRANCH  34  36
ENDBRANCH  27  32
ENDBRANCH   7  24
TORSDOF 6
ENDMDL
MODEL 6
REMARK VINA RESULT:      -7.7      1.757      1.967
REMARK  Name = 
REMARK  7 active torsions:
REMARK  status: ('A' for Active; 'I' for Inactive)
REMARK    1  A    between atoms: C_1  and  C_2
REMARK    2  A    between atoms: C_5  and  C_6
REMARK    3  A    between atoms: C_11  and  C_12
REMARK    4  A    between atoms: C_15  and  C_16
REMARK    5  A    between atoms: C_23  and  N_24
REMARK    6  A    between atoms: C_27  and  C_28
REMARK    7  A    between atoms: N_30  and  C_31
REMARK                            x       y       z     vdW  Elec       q    Type
REMARK                         _______ _______ _______ _____ _____    ______ ____
ROOT
ATOM      1  C   UNL     1       2.285   4.490  20.993  0.00  0.00    +0.000 C 
ATOM      2  C   UNL     1       2.119   5.793  20.248  0.00  0.00    +0.000 A 
ATOM      3  C   UNL     1       1.496   6.839  20.938  0.00  0.00    +0.000 A 
ATOM      4  C   UNL     1       1.325   8.094  20.347  0.00  0.00    +0.000 A 
ATOM      5  C   UNL     1       1.756   8.372  19.036  0.00  0.00    +0.000 A 
ATOM      6  C   UNL     1       2.352   7.323  18.340  0.00  0.00    +0.000 A 
ATOM      7  C   UNL     1       2.559   6.034  18.927  0.00  0.00    +0.000 A 
ENDROOT
BRANCH   5   8
ATOM      8  C   UNL     1       1.617   9.803  18.578  0.00  0.00    +0.000 C 
ATOM      9  O   UNL     1       2.181  10.067  17.507  0.00  0.00    +0.000 OA
ATOM     10  N   UNL     1       0.848  10.809  19.196  0.00  0.00    +0.000 N 
ATOM     11  C   UNL     1       0.585  11.985  18.362  0.00  0.00    +0.000 C 
ATOM     12  C   UNL     1      -0.594  12.793  18.908  0.00  0.00    +0.000 C 
ATOM     13  C   UNL     1      -0.101  13.514  20.173  0.00  0.00    +0.000 C 
ATOM     14  C   UNL     1       0.693  12.501  21.057  0.00  0.00    +0.000 C 
ATOM     15  C   UNL     1       0.563  11.007  20.628  0.00  0.00    +0.000 C 
BRANCH  13  16
ATOM     16  C   UNL     1      -1.171  14.360  20.882  0.00  0.00    +0.000 A 
ATOM     17  C   UNL     1      -2.539  14.109  20.749  0.00  0.00    +0.000 A 
ATOM     18  C   UNL     1      -3.497  14.918  21.406  0.00  0.00    +0.000 A 
ATOM     19  C   UNL     1      -3.110  15.996  22.215  0.00  0.00    +0.000 A 
ATOM     20  C   UNL     1      -1.744  16.257  22.358  0.00  0.00    +0.000 A 
ATOM     21  C   UNL     1      -0.792  15.439  21.702  0.00  0.00    +0.000 A 
BRANCH  19  22
ATOM     22  C   UNL     1      -4.100  16.823  22.886  0.00  0.00    +0.000 C 
ATOM     23  N   UNL     1      -4.894  17.496  23.425  0.00  0.00    +0.000 NA
ENDBRANCH  19  22
ENDBRANCH  13  16
ENDBRANCH   5   8
BRANCH   7  24
ATOM     24  N   UNL     1       3.158   4.994  18.154  0.00  0.00    +0.000 N 
ATOM     25  C   UNL     1       4.432   5.063  17.537  0.00  0.00    +0.000 A 
ATOM     26  C   UNL     1       5.480   5.719  18.181  0.00  0.00    +0.000 A 
ATOM     27  C   UNL     1       6.637   6.013  17.465  0.00  0.00    +0.000 A 
ATOM     28  C   UNL     1       6.777   5.515  16.172  0.00  0.00    +0.000 A 
ATOM     29  C   UNL     1       5.744   4.756  15.656  0.00  0.00    +0.000 A 
ATOM     30  N   UNL     1       4.571   4.543  16.302  0.00  0.00    +0.000 NA
ATOM     31  H   UNL     1       2.518   4.649  17.437  0.00  0.00    +0.000 HD
BRANCH  27  32
ATOM     32  C   UNL     1       7.654   6.970  17.978  0.00  0.00    +0.000 C 
ATOM     33  O   UNL     1       8.369   6.629  18.916  0.00  0.00    +0.000 OA
ATOM     34  N   UNL     1       7.763   8.191  17.337  0.00  0.00    +0.000 N 
ATOM     35  H   UNL     1       7.116   8.441  16.602  0.00  0.00    +0.000 HD
BRANCH  34  36
ATOM     36  C   UNL     1       8.722   9.175  17.738  0.00  0.00    +0.000 C 
ATOM     37  C   UNL     1       8.288  10.564  18.123  0.00  0.00    +0.000 C 
ATOM     38  C   UNL     1       8.806   9.624  19.171  0.00  0.00    +0.000 C 
ENDBRANCH  34  36
ENDBRANCH  27  32
ENDBRANCH   7  24
TORSDOF 6
ENDMDL
MODEL 7
REMARK VINA RESULT:      -7.7      2.999     11.873
REMARK  Name = 
REMARK  7 active torsions:
REMARK  status: ('A' for Active; 'I' for Inactive)
REMARK    1  A    between atoms: C_1  and  C_2
REMARK    2  A    between atoms: C_5  and  C_6
REMARK    3  A    between atoms: C_11  and  C_12
REMARK    4  A    between atoms: C_15  and  C_16
REMARK    5  A    between atoms: C_23  and  N_24
REMARK    6  A    between atoms: C_27  and  C_28
REMARK    7  A    between atoms: N_30  and  C_31
REMARK                            x       y       z     vdW  Elec       q    Type
REMARK                         _______ _______ _______ _____ _____    ______ ____
ROOT
ATOM      1  C   UNL     1      -0.796  14.672  19.123  0.00  0.00    +0.000 C 
ATOM      2  C   UNL     1      -0.396  13.218  19.192  0.00  0.00    +0.000 A 
ATOM      3  C   UNL     1       0.928  12.945  19.557  0.00  0.00    +0.000 A 
ATOM      4  C   UNL     1       1.386  11.630  19.681  0.00  0.00    +0.000 A 
ATOM      5  C   UNL     1       0.556  10.519  19.441  0.00  0.00    +0.000 A 
ATOM      6  C   UNL     1      -0.754  10.792  19.053  0.00  0.00    +0.000 A 
ATOM      7  C   UNL     1      -1.257  12.126  18.937  0.00  0.00    +0.000 A 
ENDROOT
BRANCH   5   8
ATOM      8  C   UNL     1       1.151   9.165  19.736  0.00  0.00    +0.000 C 
ATOM      9  O   UNL     1       0.852   8.689  20.840  0.00  0.00    +0.000 OA
ATOM     10  N   UNL     1       1.919   8.378  18.854  0.00  0.00    +0.000 N 
ATOM     11  C   UNL     1       2.057   6.971  19.242  0.00  0.00    +0.000 C 
ATOM     12  C   UNL     1       2.491   6.113  18.051  0.00  0.00    +0.000 C 
ATOM     13  C   UNL     1       3.972   6.425  17.785  0.00  0.00    +0.000 C 
ATOM     14  C   UNL     1       4.179   7.972  17.813  0.00  0.00    +0.000 C 
ATOM     15  C   UNL     1       2.865   8.814  17.812  0.00  0.00    +0.000 C 
BRANCH  13  16
ATOM     16  C   UNL     1       4.577   5.668  16.592  0.00  0.00    +0.000 A 
ATOM     17  C   UNL     1       5.181   6.321  15.514  0.00  0.00    +0.000 A 
ATOM     18  C   UNL     1       5.716   5.591  14.425  0.00  0.00    +0.000 A 
ATOM     19  C   UNL     1       5.662   4.192  14.388  0.00  0.00    +0.000 A 
ATOM     20  C   UNL     1       5.061   3.525  15.461  0.00  0.00    +0.000 A 
ATOM     21  C   UNL     1       4.535   4.262  16.549  0.00  0.00    +0.000 A 
BRANCH  19  22
ATOM     22  C   UNL     1       6.212   3.449  13.266  0.00  0.00    +0.000 C 
ATOM     23  N   UNL     1       6.663   2.851  12.364  0.00  0.00    +0.000 NA
ENDBRANCH  19  22
ENDBRANCH  13  16
ENDBRANCH   5   8
BRANCH   7  24
ATOM     24  N   UNL     1      -2.604  12.340  18.516  0.00  0.00    +0.000 N 
ATOM     25  C   UNL     1      -3.732  12.389  19.372  0.00  0.00    +0.000 A 
ATOM     26  C   UNL     1      -3.622  12.979  20.631  0.00  0.00    +0.000 A 
ATOM     27  C   UNL     1      -4.641  12.788  21.558  0.00  0.00    +0.000 A 
ATOM     28  C   UNL     1      -5.808  12.141  21.159  0.00  0.00    +0.000 A 
ATOM     29  C   UNL     1      -5.890  11.705  19.850  0.00  0.00    +0.000 A 
ATOM     30  N   UNL     1      -4.870  11.795  18.962  0.00  0.00    +0.000 NA
ATOM     31  H   UNL     1      -2.859  11.711  17.753  0.00  0.00    +0.000 HD
BRANCH  27  32
ATOM     32  C   UNL     1      -4.461  13.113  22.999  0.00  0.00    +0.000 C 
ATOM     33  O   UNL     1      -4.710  12.250  23.837  0.00  0.00    +0.000 OA
ATOM     34  N   UNL     1      -3.982  14.372  23.315  0.00  0.00    +0.000 N 
ATOM     35  H   UNL     1      -3.841  15.061  22.589  0.00  0.00    +0.000 HD
BRANCH  34  36
ATOM     36  C   UNL     1      -3.755  14.779  24.669  0.00  0.00    +0.000 C 
ATOM     37  C   UNL     1      -2.386  15.203  25.129  0.00  0.00    +0.000 C 
ATOM     38  C   UNL     1      -3.480  16.220  25.000  0.00  0.00    +0.000 C 
ENDBRANCH  34  36
ENDBRANCH  27  32
ENDBRANCH   7  24
TORSDOF 6
ENDMDL
MODEL 8
REMARK VINA RESULT:      -7.6      2.976     11.983
REMARK  Name = 
REMARK  7 active torsions:
REMARK  status: ('A' for Active; 'I' for Inactive)
REMARK    1  A    between atoms: C_1  and  C_2
REMARK    2  A    between atoms: C_5  and  C_6
REMARK    3  A    between atoms: C_11  and  C_12
REMARK    4  A    between atoms: C_15  and  C_16
REMARK    5  A    between atoms: C_23  and  N_24
REMARK    6  A    between atoms: C_27  and  C_28
REMARK    7  A    between atoms: N_30  and  C_31
REMARK                            x       y       z     vdW  Elec       q    Type
REMARK                         _______ _______ _______ _____ _____    ______ ____
ROOT
ATOM      1  C   UNL     1      -0.577  13.592  19.643  0.00  0.00    +0.000 C 
ATOM      2  C   UNL     1      -0.136  12.181  19.950  0.00  0.00    +0.000 A 
ATOM      3  C   UNL     1       0.207  11.376  18.858  0.00  0.00    +0.000 A 
ATOM      4  C   UNL     1       0.658  10.066  19.040  0.00  0.00    +0.000 A 
ATOM      5  C   UNL     1       0.783   9.484  20.316  0.00  0.00    +0.000 A 
ATOM      6  C   UNL     1       0.416  10.277  21.401  0.00  0.00    +0.000 A 
ATOM      7  C   UNL     1      -0.029  11.628  21.246  0.00  0.00    +0.000 A 
ENDROOT
BRANCH   5   8
ATOM      8  C   UNL     1       1.400   8.108  20.365  0.00  0.00    +0.000 C 
ATOM      9  O   UNL     1       1.131   7.449  21.378  0.00  0.00    +0.000 OA
ATOM     10  N   UNL     1       2.154   7.493  19.346  0.00  0.00    +0.000 N 
ATOM     11  C   UNL     1       2.316   6.043  19.487  0.00  0.00    +0.000 C 
ATOM     12  C   UNL     1       2.730   5.404  18.159  0.00  0.00    +0.000 C 
ATOM     13  C   UNL     1       4.201   5.777  17.918  0.00  0.00    +0.000 C 
ATOM     14  C   UNL     1       4.392   7.300  18.202  0.00  0.00    +0.000 C 
ATOM     15  C   UNL     1       3.070   8.112  18.371  0.00  0.00    +0.000 C 
BRANCH  13  16
ATOM     16  C   UNL     1       4.785   5.242  16.601  0.00  0.00    +0.000 A 
ATOM     17  C   UNL     1       5.126   6.076  15.533  0.00  0.00    +0.000 A 
ATOM     18  C   UNL     1       5.649   5.546  14.330  0.00  0.00    +0.000 A 
ATOM     19  C   UNL     1       5.847   4.168  14.164  0.00  0.00    +0.000 A 
ATOM     20  C   UNL     1       5.511   3.322  15.226  0.00  0.00    +0.000 A 
ATOM     21  C   UNL     1       4.995   3.860  16.428  0.00  0.00    +0.000 A 
BRANCH  19  22
ATOM     22  C   UNL     1       6.383   3.631  12.925  0.00  0.00    +0.000 C 
ATOM     23  N   UNL     1       6.813   3.190  11.927  0.00  0.00    +0.000 NA
ENDBRANCH  19  22
ENDBRANCH  13  16
ENDBRANCH   5   8
BRANCH   7  24
ATOM     24  N   UNL     1      -0.409  12.383  22.397  0.00  0.00    +0.000 N 
ATOM     25  C   UNL     1      -1.649  13.046  22.568  0.00  0.00    +0.000 A 
ATOM     26  C   UNL     1      -2.820  12.464  22.083  0.00  0.00    +0.000 A 
ATOM     27  C   UNL     1      -3.979  13.230  22.015  0.00  0.00    +0.000 A 
ATOM     28  C   UNL     1      -3.980  14.508  22.568  0.00  0.00    +0.000 A 
ATOM     29  C   UNL     1      -2.812  14.959  23.153  0.00  0.00    +0.000 A 
ATOM     30  N   UNL     1      -1.647  14.266  23.140  0.00  0.00    +0.000 NA
ATOM     31  H   UNL     1       0.309  13.064  22.648  0.00  0.00    +0.000 HD
BRANCH  27  32
ATOM     32  C   UNL     1      -5.166  12.789  21.234  0.00  0.00    +0.000 C 
ATOM     33  O   UNL     1      -6.279  12.869  21.748  0.00  0.00    +0.000 OA
ATOM     34  N   UNL     1      -4.950  12.341  19.943  0.00  0.00    +0.000 N 
ATOM     35  H   UNL     1      -4.009  12.248  19.586  0.00  0.00    +0.000 HD
BRANCH  34  36
ATOM     36  C   UNL     1      -6.024  11.912  19.099  0.00  0.00    +0.000 C 
ATOM     37  C   UNL     1      -5.751  11.277  17.762  0.00  0.00    +0.000 C 
ATOM     38  C   UNL     1      -6.294  10.447  18.887  0.00  0.00    +0.000 C 
ENDBRANCH  34  36
ENDBRANCH  27  32
ENDBRANCH   7  24
TORSDOF 6
ENDMDL
MODEL 9
REMARK VINA RESULT:      -7.5      4.950      9.532
REMARK  Name = 
REMARK  7 active torsions:
REMARK  status: ('A' for Active; 'I' for Inactive)
REMARK    1  A    between atoms: C_1  and  C_2
REMARK    2  A    between atoms: C_5  and  C_6
REMARK    3  A    between atoms: C_11  and  C_12
REMARK    4  A    between atoms: C_15  and  C_16
REMARK    5  A    between atoms: C_23  and  N_24
REMARK    6  A    between atoms: C_27  and  C_28
REMARK    7  A    between atoms: N_30  and  C_31
REMARK                            x       y       z     vdW  Elec       q    Type
REMARK                         _______ _______ _______ _____ _____    ______ ____
ROOT
ATOM      1  C   UNL     1      -7.553  11.174  20.698  0.00  0.00    +0.000 C 
ATOM      2  C   UNL     1      -6.339  12.048  20.906  0.00  0.00    +0.000 A 
ATOM      3  C   UNL     1      -6.249  12.719  22.132  0.00  0.00    +0.000 A 
ATOM      4  C   UNL     1      -5.148  13.525  22.433  0.00  0.00    +0.000 A 
ATOM      5  C   UNL     1      -4.085  13.716  21.530  0.00  0.00    +0.000 A 
ATOM      6  C   UNL     1      -4.189  13.069  20.301  0.00  0.00    +0.000 A 
ATOM      7  C   UNL     1      -5.293  12.220  19.972  0.00  0.00    +0.000 A 
ENDROOT
BRANCH   5   8
ATOM      8  C   UNL     1      -2.909  14.510  22.041  0.00  0.00    +0.000 C 
ATOM      9  O   UNL     1      -3.087  15.068  23.133  0.00  0.00    +0.000 OA
ATOM     10  N   UNL     1      -1.634  14.594  21.447  0.00  0.00    +0.000 N 
ATOM     11  C   UNL     1      -0.579  15.115  22.321  0.00  0.00    +0.000 C 
ATOM     12  C   UNL     1       0.808  14.755  21.783  0.00  0.00    +0.000 C 
ATOM     13  C   UNL     1       1.062  15.648  20.557  0.00  0.00    +0.000 C 
ATOM     14  C   UNL     1      -0.208  15.640  19.651  0.00  0.00    +0.000 C 
ATOM     15  C   UNL     1      -1.276  14.563  20.019  0.00  0.00    +0.000 C 
BRANCH  13  16
ATOM     16  C   UNL     1       2.410  15.402  19.860  0.00  0.00    +0.000 A 
ATOM     17  C   UNL     1       2.509  15.072  18.506  0.00  0.00    +0.000 A 
ATOM     18  C   UNL     1       3.767  14.839  17.901  0.00  0.00    +0.000 A 
ATOM     19  C   UNL     1       4.958  14.933  18.634  0.00  0.00    +0.000 A 
ATOM     20  C   UNL     1       4.873  15.264  19.990  0.00  0.00    +0.000 A 
ATOM     21  C   UNL     1       3.612  15.501  20.586  0.00  0.00    +0.000 A 
BRANCH  19  22
ATOM     22  C   UNL     1       6.246  14.691  18.006  0.00  0.00    +0.000 C 
ATOM     23  N   UNL     1       7.282  14.499  17.492  0.00  0.00    +0.000 NA
ENDBRANCH  19  22
ENDBRANCH  13  16
ENDBRANCH   5   8
BRANCH   7  24
ATOM     24  N   UNL     1      -5.351  11.601  18.687  0.00  0.00    +0.000 N 
ATOM     25  C   UNL     1      -4.231  11.153  17.943  0.00  0.00    +0.000 A 
ATOM     26  C   UNL     1      -3.146  10.576  18.603  0.00  0.00    +0.000 A 
ATOM     27  C   UNL     1      -1.955  10.386  17.908  0.00  0.00    +0.000 A 
ATOM     28  C   UNL     1      -1.922  10.639  16.539  0.00  0.00    +0.000 A 
ATOM     29  C   UNL     1      -3.083  11.081  15.935  0.00  0.00    +0.000 A 
ATOM     30  N   UNL     1      -4.223  11.365  16.613  0.00  0.00    +0.000 NA
ATOM     31  H   UNL     1      -5.918  12.147  18.037  0.00  0.00    +0.000 HD
BRANCH  27  32
ATOM     32  C   UNL     1      -0.680  10.074  18.609  0.00  0.00    +0.000 C 
ATOM     33  O   UNL     1       0.317   9.816  17.940  0.00  0.00    +0.000 OA
ATOM     34  N   UNL     1      -0.682  10.129  19.992  0.00  0.00    +0.000 N 
ATOM     35  H   UNL     1      -1.542  10.297  20.495  0.00  0.00    +0.000 HD
BRANCH  34  36
ATOM     36  C   UNL     1       0.496   9.865  20.762  0.00  0.00    +0.000 C 
ATOM     37  C   UNL     1       0.402   9.525  22.225  0.00  0.00    +0.000 C 
ATOM     38  C   UNL     1       0.805   8.472  21.237  0.00  0.00    +0.000 C 
ENDBRANCH  34  36
ENDBRANCH  27  32
ENDBRANCH   7  24
TORSDOF 6
ENDMDL
