MODEL 1
REMARK VINA RESULT:      -6.3      0.000      0.000
REMARK  Name = 
REMARK  8 active torsions:
REMARK  status: ('A' for Active; 'I' for Inactive)
REMARK    1  A    between atoms: C_2  and  C_12
REMARK    2  A    between atoms: N_3  and  C_4
REMARK    3  A    between atoms: C_4  and  C_5
REMARK    4  A    between atoms: C_15  and  C_16
REMARK    5  A    between atoms: C_16  and  O_17
REMARK    6  A    between atoms: O_17  and  C_18
REMARK    7  A    between atoms: C_18  and  C_19
REMARK    8  A    between atoms: C_19  and  O_20
REMARK                            x       y       z     vdW  Elec       q    Type
REMARK                         _______ _______ _______ _____ _____    ______ ____
ROOT
ATOM      1  O   UNL     1       2.583   8.088  17.727  0.00  0.00    +0.000 OA
ATOM      2  C   UNL     1       1.981   8.210  18.792  0.00  0.00    +0.000 C 
ATOM      3  N   UNL     1       2.193   7.388  19.875  0.00  0.00    +0.000 N 
ATOM      4  H   UNL     1       1.512   7.449  20.628  0.00  0.00    +0.000 HD
ENDROOT
BRANCH   2   5
ATOM      5  C   UNL     1       0.971   9.254  19.004  0.00  0.00    +0.000 A 
ATOM      6  C   UNL     1       0.825   9.920  20.208  0.00  0.00    +0.000 A 
ATOM      7  S   UNL     1      -0.444  11.060  20.113  0.00  0.00    +0.000 S 
ATOM      8  C   UNL     1      -0.717  10.607  18.474  0.00  0.00    +0.000 A 
ATOM      9  N   UNL     1       0.073   9.652  18.010  0.00  0.00    +0.000 NA
BRANCH   8  10
ATOM     10  C   UNL     1      -1.808  11.283  17.698  0.00  0.00    +0.000 C 
BRANCH  10  11
ATOM     11  O   UNL     1      -2.123  10.447  16.580  0.00  0.00    +0.000 OA
BRANCH  11  12
ATOM     12  C   UNL     1      -3.047  11.092  15.696  0.00  0.00    +0.000 C 
BRANCH  12  13
ATOM     13  C   UNL     1      -3.556  10.066  14.686  0.00  0.00    +0.000 C 
BRANCH  13  14
ATOM     14  O   UNL     1      -2.679   9.996  13.565  0.00  0.00    +0.000 OA
ATOM     15  H   UNL     1      -1.938   9.425  13.847  0.00  0.00    +0.000 HD
ENDBRANCH  13  14
ENDBRANCH  12  13
ENDBRANCH  11  12
ENDBRANCH  10  11
ENDBRANCH   8  10
ENDBRANCH   2   5
BRANCH   3  16
ATOM     16  C   UNL     1       3.051   6.232  19.773  0.00  0.00    +0.000 C 
BRANCH  16  17
ATOM     17  C   UNL     1       2.316   4.964  19.419  0.00  0.00    +0.000 A 
ATOM     18  C   UNL     1       1.354   4.465  20.317  0.00  0.00    +0.000 A 
ATOM     19  C   UNL     1       0.676   3.270  20.060  0.00  0.00    +0.000 A 
ATOM     20  C   UNL     1       0.943   2.556  18.897  0.00  0.00    +0.000 A 
ATOM     21  C   UNL     1       1.891   3.036  17.993  0.00  0.00    +0.000 A 
ATOM     22  C   UNL     1       2.577   4.228  18.253  0.00  0.00    +0.000 A 
ATOM     23 CL   UNL     1       3.758   4.739  17.099  0.00  0.00    +0.000 Cl
ENDBRANCH  16  17
ENDBRANCH   3  16
TORSDOF 8
ENDMDL
MODEL 2
REMARK VINA RESULT:      -6.2      2.590      2.869
REMARK  Name = 
REMARK  8 active torsions:
REMARK  status: ('A' for Active; 'I' for Inactive)
REMARK    1  A    between atoms: C_2  and  C_12
REMARK    2  A    between atoms: N_3  and  C_4
REMARK    3  A    between atoms: C_4  and  C_5
REMARK    4  A    between atoms: C_15  and  C_16
REMARK    5  A    between atoms: C_16  and  O_17
REMARK    6  A    between atoms: O_17  and  C_18
REMARK    7  A    between atoms: C_18  and  C_19
REMARK    8  A    between atoms: C_19  and  O_20
REMARK                            x       y       z     vdW  Elec       q    Type
REMARK                         _______ _______ _______ _____ _____    ______ ____
ROOT
ATOM      1  O   UNL     1       2.498   7.758  18.131  0.00  0.00    +0.000 OA
ATOM      2  C   UNL     1       2.243   7.719  19.333  0.00  0.00    +0.000 C 
ATOM      3  N   UNL     1       2.728   6.744  20.174  0.00  0.00    +0.000 N 
ATOM      4  H   UNL     1       2.303   6.691  21.096  0.00  0.00    +0.000 HD
ENDROOT
BRANCH   2   5
ATOM      5  C   UNL     1       1.389   8.720  19.984  0.00  0.00    +0.000 A 
ATOM      6  C   UNL     1       0.883   8.554  21.261  0.00  0.00    +0.000 A 
ATOM      7  S   UNL     1      -0.075   9.897  21.705  0.00  0.00    +0.000 S 
ATOM      8  C   UNL     1       0.249  10.624  20.177  0.00  0.00    +0.000 A 
ATOM      9  N   UNL     1       1.013   9.914  19.363  0.00  0.00    +0.000 NA
BRANCH   8  10
ATOM     10  C   UNL     1      -0.348  11.963  19.860  0.00  0.00    +0.000 C 
BRANCH  10  11
ATOM     11  O   UNL     1       0.089  12.328  18.547  0.00  0.00    +0.000 OA
BRANCH  11  12
ATOM     12  C   UNL     1       0.888  13.517  18.580  0.00  0.00    +0.000 C 
BRANCH  12  13
ATOM     13  C   UNL     1       2.351  13.129  18.387  0.00  0.00    +0.000 C 
BRANCH  13  14
ATOM     14  O   UNL     1       2.454  11.993  17.533  0.00  0.00    +0.000 OA
ATOM     15  H   UNL     1       2.705  11.249  18.114  0.00  0.00    +0.000 HD
ENDBRANCH  13  14
ENDBRANCH  12  13
ENDBRANCH  11  12
ENDBRANCH  10  11
ENDBRANCH   8  10
ENDBRANCH   2   5
BRANCH   3  16
ATOM     16  C   UNL     1       3.465   5.617  19.656  0.00  0.00    +0.000 C 
BRANCH  16  17
ATOM     17  C   UNL     1       2.595   4.436  19.306  0.00  0.00    +0.000 A 
ATOM     18  C   UNL     1       1.538   4.093  20.169  0.00  0.00    +0.000 A 
ATOM     19  C   UNL     1       0.728   2.982  19.916  0.00  0.00    +0.000 A 
ATOM     20  C   UNL     1       0.957   2.198  18.791  0.00  0.00    +0.000 A 
ATOM     21  C   UNL     1       1.999   2.523  17.922  0.00  0.00    +0.000 A 
ATOM     22  C   UNL     1       2.816   3.630  18.179  0.00  0.00    +0.000 A 
ATOM     23 CL   UNL     1       4.103   3.948  17.070  0.00  0.00    +0.000 Cl
ENDBRANCH  16  17
ENDBRANCH   3  16
TORSDOF 8
ENDMDL
MODEL 3
REMARK VINA RESULT:      -6.2      1.607      1.933
REMARK  Name = 
REMARK  8 active torsions:
REMARK  status: ('A' for Active; 'I' for Inactive)
REMARK    1  A    between atoms: C_2  and  C_12
REMARK    2  A    between atoms: N_3  and  C_4
REMARK    3  A    between atoms: C_4  and  C_5
REMARK    4  A    between atoms: C_15  and  C_16
REMARK    5  A    between atoms: C_16  and  O_17
REMARK    6  A    between atoms: O_17  and  C_18
REMARK    7  A    between atoms: C_18  and  C_19
REMARK    8  A    between atoms: C_19  and  O_20
REMARK                            x       y       z     vdW  Elec       q    Type
REMARK                         _______ _______ _______ _____ _____    ______ ____
ROOT
ATOM      1  O   UNL     1       2.225   7.626  18.078  0.00  0.00    +0.000 OA
ATOM      2  C   UNL     1       2.191   7.644  19.307  0.00  0.00    +0.000 C 
ATOM      3  N   UNL     1       2.877   6.747  20.093  0.00  0.00    +0.000 N 
ATOM      4  H   UNL     1       2.627   6.727  21.078  0.00  0.00    +0.000 HD
ENDROOT
BRANCH   2   5
ATOM      5  C   UNL     1       1.405   8.635  20.053  0.00  0.00    +0.000 A 
ATOM      6  C   UNL     1       1.012   8.445  21.365  0.00  0.00    +0.000 A 
ATOM      7  S   UNL     1       0.108   9.783  21.921  0.00  0.00    +0.000 S 
ATOM      8  C   UNL     1       0.302  10.541  20.386  0.00  0.00    +0.000 A 
ATOM      9  N   UNL     1       0.986   9.845  19.493  0.00  0.00    +0.000 NA
BRANCH   8  10
ATOM     10  C   UNL     1      -0.310  11.891  20.152  0.00  0.00    +0.000 C 
BRANCH  10  11
ATOM     11  O   UNL     1      -0.773  11.924  18.798  0.00  0.00    +0.000 OA
BRANCH  11  12
ATOM     12  C   UNL     1      -2.147  11.530  18.712  0.00  0.00    +0.000 C 
BRANCH  12  13
ATOM     13  C   UNL     1      -2.266  10.385  17.710  0.00  0.00    +0.000 C 
BRANCH  13  14
ATOM     14  O   UNL     1      -0.979  10.022  17.216  0.00  0.00    +0.000 OA
ATOM     15  H   UNL     1      -0.936  10.382  16.309  0.00  0.00    +0.000 HD
ENDBRANCH  13  14
ENDBRANCH  12  13
ENDBRANCH  11  12
ENDBRANCH  10  11
ENDBRANCH   8  10
ENDBRANCH   2   5
BRANCH   3  16
ATOM     16  C   UNL     1       3.580   5.632  19.506  0.00  0.00    +0.000 C 
BRANCH  16  17
ATOM     17  C   UNL     1       2.692   4.451  19.206  0.00  0.00    +0.000 A 
ATOM     18  C   UNL     1       1.637   4.154  20.089  0.00  0.00    +0.000 A 
ATOM     19  C   UNL     1       0.812   3.045  19.882  0.00  0.00    +0.000 A 
ATOM     20  C   UNL     1       1.023   2.216  18.787  0.00  0.00    +0.000 A 
ATOM     21  C   UNL     1       2.062   2.495  17.898  0.00  0.00    +0.000 A 
ATOM     22  C   UNL     1       2.895   3.600  18.108  0.00  0.00    +0.000 A 
ATOM     23 CL   UNL     1       4.178   3.860  16.980  0.00  0.00    +0.000 Cl
ENDBRANCH  16  17
ENDBRANCH   3  16
TORSDOF 8
ENDMDL
MODEL 4
REMARK VINA RESULT:      -6.1      4.142      8.038
REMARK  Name = 
REMARK  8 active torsions:
REMARK  status: ('A' for Active; 'I' for Inactive)
REMARK    1  A    between atoms: C_2  and  C_12
REMARK    2  A    between atoms: N_3  and  C_4
REMARK    3  A    between atoms: C_4  and  C_5
REMARK    4  A    between atoms: C_15  and  C_16
REMARK    5  A    between atoms: C_16  and  O_17
REMARK    6  A    between atoms: O_17  and  C_18
REMARK    7  A    between atoms: C_18  and  C_19
REMARK    8  A    between atoms: C_19  and  O_20
REMARK                            x       y       z     vdW  Elec       q    Type
REMARK                         _______ _______ _______ _____ _____    ______ ____
ROOT
ATOM      1  O   UNL     1       2.335   8.956  17.247  0.00  0.00    +0.000 OA
ATOM      2  C   UNL     1       2.265   8.311  18.292  0.00  0.00    +0.000 C 
ATOM      3  N   UNL     1       1.567   8.741  19.397  0.00  0.00    +0.000 N 
ATOM      4  H   UNL     1       1.735   8.233  20.261  0.00  0.00    +0.000 HD
ENDROOT
BRANCH   2   5
ATOM      5  C   UNL     1       2.929   7.012  18.453  0.00  0.00    +0.000 A 
ATOM      6  C   UNL     1       2.636   6.146  19.492  0.00  0.00    +0.000 A 
ATOM      7  S   UNL     1       3.593   4.735  19.385  0.00  0.00    +0.000 S 
ATOM      8  C   UNL     1       4.333   5.355  17.958  0.00  0.00    +0.000 A 
ATOM      9  N   UNL     1       3.913   6.550  17.576  0.00  0.00    +0.000 NA
BRANCH   8  10
ATOM     10  C   UNL     1       5.386   4.542  17.265  0.00  0.00    +0.000 C 
BRANCH  10  11
ATOM     11  O   UNL     1       6.536   5.377  17.101  0.00  0.00    +0.000 OA
BRANCH  11  12
ATOM     12  C   UNL     1       7.609   4.951  17.949  0.00  0.00    +0.000 C 
BRANCH  12  13
ATOM     13  C   UNL     1       7.584   5.784  19.227  0.00  0.00    +0.000 C 
BRANCH  13  14
ATOM     14  O   UNL     1       8.488   5.245  20.188  0.00  0.00    +0.000 OA
ATOM     15  H   UNL     1       8.370   4.276  20.145  0.00  0.00    +0.000 HD
ENDBRANCH  13  14
ENDBRANCH  12  13
ENDBRANCH  11  12
ENDBRANCH  10  11
ENDBRANCH   8  10
ENDBRANCH   2   5
BRANCH   3  16
ATOM     16  C   UNL     1       0.980  10.058  19.438  0.00  0.00    +0.000 C 
BRANCH  16  17
ATOM     17  C   UNL     1       0.245  10.351  20.722  0.00  0.00    +0.000 A 
ATOM     18  C   UNL     1       0.371   9.450  21.795  0.00  0.00    +0.000 A 
ATOM     19  C   UNL     1      -0.323   9.649  22.992  0.00  0.00    +0.000 A 
ATOM     20  C   UNL     1      -1.151  10.756  23.139  0.00  0.00    +0.000 A 
ATOM     21  C   UNL     1      -1.287  11.663  22.087  0.00  0.00    +0.000 A 
ATOM     22  C   UNL     1      -0.599  11.460  20.885  0.00  0.00    +0.000 A 
ATOM     23 CL   UNL     1      -0.844  12.611  19.620  0.00  0.00    +0.000 Cl
ENDBRANCH  16  17
ENDBRANCH   3  16
TORSDOF 8
ENDMDL
MODEL 5
REMARK VINA RESULT:      -6.0      4.637      7.980
REMARK  Name = 
REMARK  8 active torsions:
REMARK  status: ('A' for Active; 'I' for Inactive)
REMARK    1  A    between atoms: C_2  and  C_12
REMARK    2  A    between atoms: N_3  and  C_4
REMARK    3  A    between atoms: C_4  and  C_5
REMARK    4  A    between atoms: C_15  and  C_16
REMARK    5  A    between atoms: C_16  and  O_17
REMARK    6  A    between atoms: O_17  and  C_18
REMARK    7  A    between atoms: C_18  and  C_19
REMARK    8  A    between atoms: C_19  and  O_20
REMARK                            x       y       z     vdW  Elec       q    Type
REMARK                         _______ _______ _______ _____ _____    ______ ____
ROOT
ATOM      1  O   UNL     1       1.654   4.938  20.625  0.00  0.00    +0.000 OA
ATOM      2  C   UNL     1       2.368   5.755  20.047  0.00  0.00    +0.000 C 
ATOM      3  N   UNL     1       2.289   7.111  20.264  0.00  0.00    +0.000 N 
ATOM      4  H   UNL     1       2.780   7.704  19.601  0.00  0.00    +0.000 HD
ENDROOT
BRANCH   2   5
ATOM      5  C   UNL     1       3.381   5.351  19.063  0.00  0.00    +0.000 A 
ATOM      6  C   UNL     1       3.057   4.936  17.784  0.00  0.00    +0.000 A 
ATOM      7  S   UNL     1       4.467   4.532  16.909  0.00  0.00    +0.000 S 
ATOM      8  C   UNL     1       5.426   4.943  18.280  0.00  0.00    +0.000 A 
ATOM      9  N   UNL     1       4.750   5.347  19.344  0.00  0.00    +0.000 NA
BRANCH   8  10
ATOM     10  C   UNL     1       6.918   4.808  18.200  0.00  0.00    +0.000 C 
BRANCH  10  11
ATOM     11  O   UNL     1       7.411   5.923  17.451  0.00  0.00    +0.000 OA
BRANCH  11  12
ATOM     12  C   UNL     1       7.895   6.955  18.318  0.00  0.00    +0.000 C 
BRANCH  12  13
ATOM     13  C   UNL     1       7.732   8.300  17.617  0.00  0.00    +0.000 C 
BRANCH  13  14
ATOM     14  O   UNL     1       8.535   9.291  18.252  0.00  0.00    +0.000 OA
ATOM     15  H   UNL     1       9.249   8.801  18.703  0.00  0.00    +0.000 HD
ENDBRANCH  13  14
ENDBRANCH  12  13
ENDBRANCH  11  12
ENDBRANCH  10  11
ENDBRANCH   8  10
ENDBRANCH   2   5
BRANCH   3  16
ATOM     16  C   UNL     1       1.251   7.670  21.097  0.00  0.00    +0.000 C 
BRANCH  16  17
ATOM     17  C   UNL     1       0.837   9.062  20.693  0.00  0.00    +0.000 A 
ATOM     18  C   UNL     1       1.074   9.483  19.370  0.00  0.00    +0.000 A 
ATOM     19  C   UNL     1       0.752  10.778  18.955  0.00  0.00    +0.000 A 
ATOM     20  C   UNL     1       0.182  11.674  19.851  0.00  0.00    +0.000 A 
ATOM     21  C   UNL     1      -0.063  11.275  21.166  0.00  0.00    +0.000 A 
ATOM     22  C   UNL     1       0.267   9.981  21.587  0.00  0.00    +0.000 A 
ATOM     23 CL   UNL     1      -0.040   9.575  23.238  0.00  0.00    +0.000 Cl
ENDBRANCH  16  17
ENDBRANCH   3  16
TORSDOF 8
ENDMDL
MODEL 6
REMARK VINA RESULT:      -6.0      1.316      1.473
REMARK  Name = 
REMARK  8 active torsions:
REMARK  status: ('A' for Active; 'I' for Inactive)
REMARK    1  A    between atoms: C_2  and  C_12
REMARK    2  A    between atoms: N_3  and  C_4
REMARK    3  A    between atoms: C_4  and  C_5
REMARK    4  A    between atoms: C_15  and  C_16
REMARK    5  A    between atoms: C_16  and  O_17
REMARK    6  A    between atoms: O_17  and  C_18
REMARK    7  A    between atoms: C_18  and  C_19
REMARK    8  A    between atoms: C_19  and  O_20
REMARK                            x       y       z     vdW  Elec       q    Type
REMARK                         _______ _______ _______ _____ _____    ______ ____
ROOT
ATOM      1  O   UNL     1       2.865   8.371  17.782  0.00  0.00    +0.000 OA
ATOM      2  C   UNL     1       2.140   8.280  18.771  0.00  0.00    +0.000 C 
ATOM      3  N   UNL     1       2.244   7.261  19.690  0.00  0.00    +0.000 N 
ATOM      4  H   UNL     1       1.479   7.172  20.354  0.00  0.00    +0.000 HD
ENDROOT
BRANCH   2   5
ATOM      5  C   UNL     1       1.087   9.261  19.061  0.00  0.00    +0.000 A 
ATOM      6  C   UNL     1       0.870   9.773  20.328  0.00  0.00    +0.000 A 
ATOM      7  S   UNL     1      -0.433  10.878  20.313  0.00  0.00    +0.000 S 
ATOM      8  C   UNL     1      -0.625  10.616  18.621  0.00  0.00    +0.000 A 
ATOM      9  N   UNL     1       0.216   9.748  18.083  0.00  0.00    +0.000 NA
BRANCH   8  10
ATOM     10  C   UNL     1      -1.707  11.348  17.884  0.00  0.00    +0.000 C 
BRANCH  10  11
ATOM     11  O   UNL     1      -2.911  10.585  18.018  0.00  0.00    +0.000 OA
BRANCH  11  12
ATOM     12  C   UNL     1      -4.052  11.440  18.155  0.00  0.00    +0.000 C 
BRANCH  12  13
ATOM     13  C   UNL     1      -4.691  11.628  16.783  0.00  0.00    +0.000 C 
BRANCH  13  14
ATOM     14  O   UNL     1      -6.085  11.894  16.917  0.00  0.00    +0.000 OA
ATOM     15  H   UNL     1      -6.333  12.398  16.118  0.00  0.00    +0.000 HD
ENDBRANCH  13  14
ENDBRANCH  12  13
ENDBRANCH  11  12
ENDBRANCH  10  11
ENDBRANCH   8  10
ENDBRANCH   2   5
BRANCH   3  16
ATOM     16  C   UNL     1       3.137   6.149  19.468  0.00  0.00    +0.000 C 
BRANCH  16  17
ATOM     17  C   UNL     1       2.424   4.843  19.222  0.00  0.00    +0.000 A 
ATOM     18  C   UNL     1       1.429   4.433  20.129  0.00  0.00    +0.000 A 
ATOM     19  C   UNL     1       0.769   3.211  19.974  0.00  0.00    +0.000 A 
ATOM     20  C   UNL     1       1.087   2.380  18.906  0.00  0.00    +0.000 A 
ATOM     21  C   UNL     1       2.069   2.770  17.994  0.00  0.00    +0.000 A 
ATOM     22  C   UNL     1       2.737   3.990  18.153  0.00  0.00    +0.000 A 
ATOM     23 CL   UNL     1       3.960   4.387  16.999  0.00  0.00    +0.000 Cl
ENDBRANCH  16  17
ENDBRANCH   3  16
TORSDOF 8
ENDMDL
MODEL 7
REMARK VINA RESULT:      -6.0      3.459      7.480
REMARK  Name = 
REMARK  8 active torsions:
REMARK  status: ('A' for Active; 'I' for Inactive)
REMARK    1  A    between atoms: C_2  and  C_12
REMARK    2  A    between atoms: N_3  and  C_4
REMARK    3  A    between atoms: C_4  and  C_5
REMARK    4  A    between atoms: C_15  and  C_16
REMARK    5  A    between atoms: C_16  and  O_17
REMARK    6  A    between atoms: O_17  and  C_18
REMARK    7  A    between atoms: C_18  and  C_19
REMARK    8  A    between atoms: C_19  and  O_20
REMARK                            x       y       z     vdW  Elec       q    Type
REMARK                         _______ _______ _______ _____ _____    ______ ____
ROOT
ATOM      1  O   UNL     1       2.327   9.895  17.364  0.00  0.00    +0.000 OA
ATOM      2  C   UNL     1       1.786   9.178  18.203  0.00  0.00    +0.000 C 
ATOM      3  N   UNL     1       0.628   9.527  18.859  0.00  0.00    +0.000 N 
ATOM      4  H   UNL     1       0.377   8.959  19.664  0.00  0.00    +0.000 HD
ENDROOT
BRANCH   2   5
ATOM      5  C   UNL     1       2.335   7.870  18.584  0.00  0.00    +0.000 A 
ATOM      6  C   UNL     1       3.331   7.238  17.862  0.00  0.00    +0.000 A 
ATOM      7  S   UNL     1       3.726   5.736  18.573  0.00  0.00    +0.000 S 
ATOM      8  C   UNL     1       2.556   6.020  19.805  0.00  0.00    +0.000 A 
ATOM      9  N   UNL     1       1.889   7.158  19.701  0.00  0.00    +0.000 NA
BRANCH   8  10
ATOM     10  C   UNL     1       2.354   4.990  20.877  0.00  0.00    +0.000 C 
BRANCH  10  11
ATOM     11  O   UNL     1       2.434   3.703  20.257  0.00  0.00    +0.000 OA
BRANCH  11  12
ATOM     12  C   UNL     1       1.150   3.071  20.210  0.00  0.00    +0.000 C 
BRANCH  12  13
ATOM     13  C   UNL     1       0.930   2.512  18.807  0.00  0.00    +0.000 C 
BRANCH  13  14
ATOM     14  O   UNL     1       1.921   1.535  18.501  0.00  0.00    +0.000 OA
ATOM     15  H   UNL     1       1.774   1.297  17.565  0.00  0.00    +0.000 HD
ENDBRANCH  13  14
ENDBRANCH  12  13
ENDBRANCH  11  12
ENDBRANCH  10  11
ENDBRANCH   8  10
ENDBRANCH   2   5
BRANCH   3  16
ATOM     16  C   UNL     1       0.048  10.838  18.694  0.00  0.00    +0.000 C 
BRANCH  16  17
ATOM     17  C   UNL     1      -1.390  10.808  18.240  0.00  0.00    +0.000 A 
ATOM     18  C   UNL     1      -1.751   9.944  17.190  0.00  0.00    +0.000 A 
ATOM     19  C   UNL     1      -3.060   9.909  16.699  0.00  0.00    +0.000 A 
ATOM     20  C   UNL     1      -4.032  10.734  17.254  0.00  0.00    +0.000 A 
ATOM     21  C   UNL     1      -3.694  11.596  18.298  0.00  0.00    +0.000 A 
ATOM     22  C   UNL     1      -2.381  11.638  18.784  0.00  0.00    +0.000 A 
ATOM     23 CL   UNL     1      -2.037  12.754  20.058  0.00  0.00    +0.000 Cl
ENDBRANCH  16  17
ENDBRANCH   3  16
TORSDOF 8
ENDMDL
MODEL 8
REMARK VINA RESULT:      -5.9      4.086      7.684
REMARK  Name = 
REMARK  8 active torsions:
REMARK  status: ('A' for Active; 'I' for Inactive)
REMARK    1  A    between atoms: C_2  and  C_12
REMARK    2  A    between atoms: N_3  and  C_4
REMARK    3  A    between atoms: C_4  and  C_5
REMARK    4  A    between atoms: C_15  and  C_16
REMARK    5  A    between atoms: C_16  and  O_17
REMARK    6  A    between atoms: O_17  and  C_18
REMARK    7  A    between atoms: C_18  and  C_19
REMARK    8  A    between atoms: C_19  and  O_20
REMARK                            x       y       z     vdW  Elec       q    Type
REMARK                         _______ _______ _______ _____ _____    ______ ____
ROOT
ATOM      1  O   UNL     1       2.226   8.961  17.357  0.00  0.00    +0.000 OA
ATOM      2  C   UNL     1       2.080   8.323  18.398  0.00  0.00    +0.000 C 
ATOM      3  N   UNL     1       1.356   8.788  19.471  0.00  0.00    +0.000 N 
ATOM      4  H   UNL     1       1.462   8.276  20.342  0.00  0.00    +0.000 HD
ENDROOT
BRANCH   2   5
ATOM      5  C   UNL     1       2.674   6.994  18.589  0.00  0.00    +0.000 A 
ATOM      6  C   UNL     1       2.549   6.282  19.768  0.00  0.00    +0.000 A 
ATOM      7  S   UNL     1       3.365   4.785  19.654  0.00  0.00    +0.000 S 
ATOM      8  C   UNL     1       3.828   5.169  18.041  0.00  0.00    +0.000 A 
ATOM      9  N   UNL     1       3.419   6.348  17.599  0.00  0.00    +0.000 NA
BRANCH   8  10
ATOM     10  C   UNL     1       4.654   4.190  17.261  0.00  0.00    +0.000 C 
BRANCH  10  11
ATOM     11  O   UNL     1       5.123   4.860  16.087  0.00  0.00    +0.000 OA
BRANCH  11  12
ATOM     12  C   UNL     1       6.554   4.896  16.048  0.00  0.00    +0.000 C 
BRANCH  12  13
ATOM     13  C   UNL     1       7.013   4.570  14.629  0.00  0.00    +0.000 C 
BRANCH  13  14
ATOM     14  O   UNL     1       7.878   5.593  14.141  0.00  0.00    +0.000 OA
ATOM     15  H   UNL     1       8.004   6.208  14.889  0.00  0.00    +0.000 HD
ENDBRANCH  13  14
ENDBRANCH  12  13
ENDBRANCH  11  12
ENDBRANCH  10  11
ENDBRANCH   8  10
ENDBRANCH   2   5
BRANCH   3  16
ATOM     16  C   UNL     1       0.831  10.132  19.485  0.00  0.00    +0.000 C 
BRANCH  16  17
ATOM     17  C   UNL     1       0.095  10.478  20.756  0.00  0.00    +0.000 A 
ATOM     18  C   UNL     1       0.276   9.661  21.887  0.00  0.00    +0.000 A 
ATOM     19  C   UNL     1      -0.416   9.910  23.076  0.00  0.00    +0.000 A 
ATOM     20  C   UNL     1      -1.295  10.984  23.157  0.00  0.00    +0.000 A 
ATOM     21  C   UNL     1      -1.485  11.807  22.047  0.00  0.00    +0.000 A 
ATOM     22  C   UNL     1      -0.800  11.554  20.852  0.00  0.00    +0.000 A 
ATOM     23 CL   UNL     1      -1.113  12.601  19.514  0.00  0.00    +0.000 Cl
ENDBRANCH  16  17
ENDBRANCH   3  16
TORSDOF 8
ENDMDL
MODEL 9
REMARK VINA RESULT:      -5.9      5.745      7.595
REMARK  Name = 
REMARK  8 active torsions:
REMARK  status: ('A' for Active; 'I' for Inactive)
REMARK    1  A    between atoms: C_2  and  C_12
REMARK    2  A    between atoms: N_3  and  C_4
REMARK    3  A    between atoms: C_4  and  C_5
REMARK    4  A    between atoms: C_15  and  C_16
REMARK    5  A    between atoms: C_16  and  O_17
REMARK    6  A    between atoms: O_17  and  C_18
REMARK    7  A    between atoms: C_18  and  C_19
REMARK    8  A    between atoms: C_19  and  O_20
REMARK                            x       y       z     vdW  Elec       q    Type
REMARK                         _______ _______ _______ _____ _____    ______ ____
ROOT
ATOM      1  O   UNL     1       5.717   5.387  19.277  0.00  0.00    +0.000 OA
ATOM      2  C   UNL     1       5.071   5.494  18.237  0.00  0.00    +0.000 C 
ATOM      3  N   UNL     1       3.759   5.910  18.204  0.00  0.00    +0.000 N 
ATOM      4  H   UNL     1       3.266   5.776  17.326  0.00  0.00    +0.000 HD
ENDROOT
BRANCH   2   5
ATOM      5  C   UNL     1       5.647   5.185  16.922  0.00  0.00    +0.000 A 
ATOM      6  C   UNL     1       7.011   5.141  16.695  0.00  0.00    +0.000 A 
ATOM      7  S   UNL     1       7.336   4.763  15.062  0.00  0.00    +0.000 S 
ATOM      8  C   UNL     1       5.643   4.669  14.755  0.00  0.00    +0.000 A 
ATOM      9  N   UNL     1       4.865   4.916  15.796  0.00  0.00    +0.000 NA
BRANCH   8  10
ATOM     10  C   UNL     1       5.164   4.341  13.372  0.00  0.00    +0.000 C 
BRANCH  10  11
ATOM     11  O   UNL     1       5.933   3.229  12.903  0.00  0.00    +0.000 OA
BRANCH  11  12
ATOM     12  C   UNL     1       5.346   2.653  11.731  0.00  0.00    +0.000 C 
BRANCH  12  13
ATOM     13  C   UNL     1       6.124   1.392  11.363  0.00  0.00    +0.000 C 
BRANCH  13  14
ATOM     14  O   UNL     1       7.512   1.686  11.234  0.00  0.00    +0.000 OA
ATOM     15  H   UNL     1       7.979   0.926  11.633  0.00  0.00    +0.000 HD
ENDBRANCH  13  14
ENDBRANCH  12  13
ENDBRANCH  11  12
ENDBRANCH  10  11
ENDBRANCH   8  10
ENDBRANCH   2   5
BRANCH   3  16
ATOM     16  C   UNL     1       3.016   6.116  19.424  0.00  0.00    +0.000 C 
BRANCH  16  17
ATOM     17  C   UNL     1       2.342   4.869  19.938  0.00  0.00    +0.000 A 
ATOM     18  C   UNL     1       2.546   4.492  21.278  0.00  0.00    +0.000 A 
ATOM     19  C   UNL     1       1.982   3.321  21.794  0.00  0.00    +0.000 A 
ATOM     20  C   UNL     1       1.200   2.510  20.980  0.00  0.00    +0.000 A 
ATOM     21  C   UNL     1       0.984   2.868  19.649  0.00  0.00    +0.000 A 
ATOM     22  C   UNL     1       1.555   4.036  19.128  0.00  0.00    +0.000 A 
ATOM     23 CL   UNL     1       1.265   4.394  17.463  0.00  0.00    +0.000 Cl
ENDBRANCH  16  17
ENDBRANCH   3  16
TORSDOF 8
ENDMDL
