MODEL 1
REMARK VINA RESULT:      -9.1      0.000      0.000
REMARK  Name = 
REMARK  5 active torsions:
REMARK  status: ('A' for Active; 'I' for Inactive)
REMARK    1  A    between atoms: C_2  and  C_3
REMARK    2  A    between atoms: C_3  and  N_4
REMARK    3  A    between atoms: C_6  and  C_7
REMARK    4  A    between atoms: C_7  and  C_8
REMARK    5  A    between atoms: N_25  and  C_26
REMARK                            x       y       z     vdW  Elec       q    Type
REMARK                         _______ _______ _______ _____ _____    ______ ____
ROOT
ATOM      1  N   UNL     1       2.034   6.666  19.616  0.00  0.00    +0.000 N 
ATOM      2  N   UNL     1       2.997   6.883  18.650  0.00  0.00    +0.000 NA
ATOM      3  C   UNL     1       3.416   5.883  17.923  0.00  0.00    +0.000 A 
ATOM      4  C   UNL     1       2.889   4.508  18.065  0.00  0.00    +0.000 A 
ATOM      5  C   UNL     1       3.305   3.425  17.280  0.00  0.00    +0.000 A 
ATOM      6  C   UNL     1       2.764   2.152  17.489  0.00  0.00    +0.000 A 
ATOM      7  C   UNL     1       1.794   1.953  18.468  0.00  0.00    +0.000 A 
ATOM      8  C   UNL     1       1.382   3.024  19.255  0.00  0.00    +0.000 A 
ATOM      9  C   UNL     1       1.944   4.295  19.061  0.00  0.00    +0.000 A 
ATOM     10  C   UNL     1       1.565   5.398  19.952  0.00  0.00    +0.000 A 
ATOM     11  O   UNL     1       0.868   5.155  20.932  0.00  0.00    +0.000 OA
ENDROOT
BRANCH   1  12
ATOM     12  C   UNL     1       1.835   7.744  20.588  0.00  0.00    +0.000 C 
BRANCH  12  14
ATOM     13  O   UNL     1       0.892   9.064  18.812  0.00  0.00    +0.000 OA
ATOM     14  C   UNL     1       1.245   9.035  19.996  0.00  0.00    +0.000 C 
ATOM     15  N   UNL     1       1.031  10.114  20.839  0.00  0.00    +0.000 N 
ATOM     16  C   UNL     1       0.518  11.374  20.279  0.00  0.00    +0.000 C 
ATOM     17  C   UNL     1      -0.950  11.635  20.685  0.00  0.00    +0.000 C 
ATOM     18  N   UNL     1      -1.081  11.490  22.149  0.00  0.00    +0.000 N 
ATOM     19  C   UNL     1      -0.608  10.206  22.684  0.00  0.00    +0.000 C 
ATOM     20  C   UNL     1       0.867   9.997  22.294  0.00  0.00    +0.000 C 
BRANCH  18  21
ATOM     21  C   UNL     1      -1.743  12.399  22.944  0.00  0.00    +0.000 A 
ATOM     22  C   UNL     1      -3.046  12.172  23.412  0.00  0.00    +0.000 A 
ATOM     23  C   UNL     1      -3.710  13.105  24.217  0.00  0.00    +0.000 A 
ATOM     24  C   UNL     1      -3.075  14.293  24.554  0.00  0.00    +0.000 A 
ATOM     25  F   UNL     1      -3.704  15.189  25.321  0.00  0.00    +0.000 F 
ATOM     26  C   UNL     1      -1.792  14.558  24.101  0.00  0.00    +0.000 A 
ATOM     27  C   UNL     1      -1.140  13.618  23.301  0.00  0.00    +0.000 A 
ENDBRANCH  18  21
ENDBRANCH  12  14
ENDBRANCH   1  12
BRANCH   3  28
ATOM     28  C   UNL     1       4.534   6.166  16.925  0.00  0.00    +0.000 C 
BRANCH  28  29
ATOM     29  C   UNL     1       5.892   6.357  17.545  0.00  0.00    +0.000 A 
ATOM     30  C   UNL     1       6.386   5.482  18.520  0.00  0.00    +0.000 A 
ATOM     31  C   UNL     1       7.602   5.752  19.142  0.00  0.00    +0.000 A 
ATOM     32  C   UNL     1       8.291   6.892  18.768  0.00  0.00    +0.000 A 
ATOM     33  N   UNL     1       7.860   7.748  17.817  0.00  0.00    +0.000 NA
ATOM     34  C   UNL     1       6.675   7.464  17.231  0.00  0.00    +0.000 A 
ENDBRANCH  28  29
ENDBRANCH   3  28
TORSDOF 5
ENDMDL
MODEL 2
REMARK VINA RESULT:      -9.1      1.195      1.819
REMARK  Name = 
REMARK  5 active torsions:
REMARK  status: ('A' for Active; 'I' for Inactive)
REMARK    1  A    between atoms: C_2  and  C_3
REMARK    2  A    between atoms: C_3  and  N_4
REMARK    3  A    between atoms: C_6  and  C_7
REMARK    4  A    between atoms: C_7  and  C_8
REMARK    5  A    between atoms: N_25  and  C_26
REMARK                            x       y       z     vdW  Elec       q    Type
REMARK                         _______ _______ _______ _____ _____    ______ ____
ROOT
ATOM      1  N   UNL     1       2.157   6.129  20.172  0.00  0.00    +0.000 N 
ATOM      2  N   UNL     1       3.491   6.293  19.851  0.00  0.00    +0.000 NA
ATOM      3  C   UNL     1       4.137   5.320  19.269  0.00  0.00    +0.000 A 
ATOM      4  C   UNL     1       3.502   4.034  18.908  0.00  0.00    +0.000 A 
ATOM      5  C   UNL     1       4.169   2.985  18.261  0.00  0.00    +0.000 A 
ATOM      6  C   UNL     1       3.496   1.795  17.967  0.00  0.00    +0.000 A 
ATOM      7  C   UNL     1       2.151   1.647  18.299  0.00  0.00    +0.000 A 
ATOM      8  C   UNL     1       1.486   2.682  18.948  0.00  0.00    +0.000 A 
ATOM      9  C   UNL     1       2.169   3.866  19.264  0.00  0.00    +0.000 A 
ATOM     10  C   UNL     1       1.482   4.919  20.023  0.00  0.00    +0.000 A 
ATOM     11  O   UNL     1       0.368   4.687  20.482  0.00  0.00    +0.000 OA
ENDROOT
BRANCH   1  12
ATOM     12  C   UNL     1       1.582   7.120  21.084  0.00  0.00    +0.000 C 
BRANCH  12  14
ATOM     13  O   UNL     1       1.256   8.614  19.228  0.00  0.00    +0.000 OA
ATOM     14  C   UNL     1       1.347   8.503  20.455  0.00  0.00    +0.000 C 
ATOM     15  N   UNL     1       1.143   9.588  21.294  0.00  0.00    +0.000 N 
ATOM     16  C   UNL     1       0.970  10.927  20.709  0.00  0.00    +0.000 C 
ATOM     17  C   UNL     1      -0.487  11.428  20.826  0.00  0.00    +0.000 C 
ATOM     18  N   UNL     1      -0.940  11.280  22.224  0.00  0.00    +0.000 N 
ATOM     19  C   UNL     1      -0.805   9.925  22.775  0.00  0.00    +0.000 C 
ATOM     20  C   UNL     1       0.665   9.474  22.678  0.00  0.00    +0.000 C 
BRANCH  18  21
ATOM     21  C   UNL     1      -1.594  12.275  22.917  0.00  0.00    +0.000 A 
ATOM     22  C   UNL     1      -0.983  13.502  23.216  0.00  0.00    +0.000 A 
ATOM     23  C   UNL     1      -1.657  14.504  23.924  0.00  0.00    +0.000 A 
ATOM     24  C   UNL     1      -2.957  14.280  24.356  0.00  0.00    +0.000 A 
ATOM     25  F   UNL     1      -3.606  15.233  25.035  0.00  0.00    +0.000 F 
ATOM     26  C   UNL     1      -3.591  13.076  24.090  0.00  0.00    +0.000 A 
ATOM     27  C   UNL     1      -2.908  12.086  23.380  0.00  0.00    +0.000 A 
ENDBRANCH  18  21
ENDBRANCH  12  14
ENDBRANCH   1  12
BRANCH   3  28
ATOM     28  C   UNL     1       5.625   5.529  19.007  0.00  0.00    +0.000 C 
BRANCH  28  29
ATOM     29  C   UNL     1       6.028   5.408  17.562  0.00  0.00    +0.000 A 
ATOM     30  C   UNL     1       5.204   5.865  16.527  0.00  0.00    +0.000 A 
ATOM     31  C   UNL     1       5.567   5.641  15.202  0.00  0.00    +0.000 A 
ATOM     32  C   UNL     1       6.749   4.966  14.950  0.00  0.00    +0.000 A 
ATOM     33  N   UNL     1       7.581   4.530  15.919  0.00  0.00    +0.000 NA
ATOM     34  C   UNL     1       7.203   4.758  17.198  0.00  0.00    +0.000 A 
ENDBRANCH  28  29
ENDBRANCH   3  28
TORSDOF 5
ENDMDL
MODEL 3
REMARK VINA RESULT:      -8.8      0.988      1.039
REMARK  Name = 
REMARK  5 active torsions:
REMARK  status: ('A' for Active; 'I' for Inactive)
REMARK    1  A    between atoms: C_2  and  C_3
REMARK    2  A    between atoms: C_3  and  N_4
REMARK    3  A    between atoms: C_6  and  C_7
REMARK    4  A    between atoms: C_7  and  C_8
REMARK    5  A    between atoms: N_25  and  C_26
REMARK                            x       y       z     vdW  Elec       q    Type
REMARK                         _______ _______ _______ _____ _____    ______ ____
ROOT
ATOM      1  N   UNL     1       2.291   6.731  19.215  0.00  0.00    +0.000 N 
ATOM      2  N   UNL     1       3.303   6.689  18.276  0.00  0.00    +0.000 NA
ATOM      3  C   UNL     1       3.650   5.544  17.756  0.00  0.00    +0.000 A 
ATOM      4  C   UNL     1       2.989   4.267  18.105  0.00  0.00    +0.000 A 
ATOM      5  C   UNL     1       3.327   3.030  17.540  0.00  0.00    +0.000 A 
ATOM      6  C   UNL     1       2.660   1.867  17.937  0.00  0.00    +0.000 A 
ATOM      7  C   UNL     1       1.642   1.930  18.885  0.00  0.00    +0.000 A 
ATOM      8  C   UNL     1       1.307   3.154  19.454  0.00  0.00    +0.000 A 
ATOM      9  C   UNL     1       1.994   4.316  19.073  0.00  0.00    +0.000 A 
ATOM     10  C   UNL     1       1.691   5.589  19.740  0.00  0.00    +0.000 A 
ATOM     11  O   UNL     1       0.940   5.584  20.710  0.00  0.00    +0.000 OA
ENDROOT
BRANCH   1  12
ATOM     12  C   UNL     1       2.162   7.977  19.975  0.00  0.00    +0.000 C 
BRANCH  12  14
ATOM     13  O   UNL     1       1.117   8.960  18.045  0.00  0.00    +0.000 OA
ATOM     14  C   UNL     1       1.423   9.103  19.233  0.00  0.00    +0.000 C 
ATOM     15  N   UNL     1       1.028  10.222  19.950  0.00  0.00    +0.000 N 
ATOM     16  C   UNL     1       0.368  11.332  19.244  0.00  0.00    +0.000 C 
ATOM     17  C   UNL     1      -1.137  11.422  19.584  0.00  0.00    +0.000 C 
ATOM     18  N   UNL     1      -1.304  11.412  21.050  0.00  0.00    +0.000 N 
ATOM     19  C   UNL     1      -0.680  10.270  21.733  0.00  0.00    +0.000 C 
ATOM     20  C   UNL     1       0.825  10.234  21.404  0.00  0.00    +0.000 C 
BRANCH  18  21
ATOM     21  C   UNL     1      -2.117  12.296  21.726  0.00  0.00    +0.000 A 
ATOM     22  C   UNL     1      -2.435  12.129  23.082  0.00  0.00    +0.000 A 
ATOM     23  C   UNL     1      -3.264  13.032  23.758  0.00  0.00    +0.000 A 
ATOM     24  C   UNL     1      -3.800  14.113  23.072  0.00  0.00    +0.000 A 
ATOM     25  F   UNL     1      -4.595  14.979  23.711  0.00  0.00    +0.000 F 
ATOM     26  C   UNL     1      -3.519  14.305  21.729  0.00  0.00    +0.000 A 
ATOM     27  C   UNL     1      -2.687  13.399  21.067  0.00  0.00    +0.000 A 
ENDBRANCH  18  21
ENDBRANCH  12  14
ENDBRANCH   1  12
BRANCH   3  28
ATOM     28  C   UNL     1       4.824   5.547  16.782  0.00  0.00    +0.000 C 
BRANCH  28  29
ATOM     29  C   UNL     1       6.090   6.145  17.332  0.00  0.00    +0.000 A 
ATOM     30  C   UNL     1       6.810   5.527  18.362  0.00  0.00    +0.000 A 
ATOM     31  C   UNL     1       7.919   6.165  18.912  0.00  0.00    +0.000 A 
ATOM     32  C   UNL     1       8.277   7.405  18.414  0.00  0.00    +0.000 A 
ATOM     33  N   UNL     1       7.624   8.023  17.408  0.00  0.00    +0.000 NA
ATOM     34  C   UNL     1       6.549   7.384  16.894  0.00  0.00    +0.000 A 
ENDBRANCH  28  29
ENDBRANCH   3  28
TORSDOF 5
ENDMDL
MODEL 4
REMARK VINA RESULT:      -8.7      0.845      1.040
REMARK  Name = 
REMARK  5 active torsions:
REMARK  status: ('A' for Active; 'I' for Inactive)
REMARK    1  A    between atoms: C_2  and  C_3
REMARK    2  A    between atoms: C_3  and  N_4
REMARK    3  A    between atoms: C_6  and  C_7
REMARK    4  A    between atoms: C_7  and  C_8
REMARK    5  A    between atoms: N_25  and  C_26
REMARK                            x       y       z     vdW  Elec       q    Type
REMARK                         _______ _______ _______ _____ _____    ______ ____
ROOT
ATOM      1  N   UNL     1       1.827   6.698  19.750  0.00  0.00    +0.000 N 
ATOM      2  N   UNL     1       2.750   7.012  18.772  0.00  0.00    +0.000 NA
ATOM      3  C   UNL     1       3.209   6.071  17.994  0.00  0.00    +0.000 A 
ATOM      4  C   UNL     1       2.769   4.661  18.089  0.00  0.00    +0.000 A 
ATOM      5  C   UNL     1       3.229   3.638  17.249  0.00  0.00    +0.000 A 
ATOM      6  C   UNL     1       2.771   2.328  17.416  0.00  0.00    +0.000 A 
ATOM      7  C   UNL     1       1.840   2.030  18.408  0.00  0.00    +0.000 A 
ATOM      8  C   UNL     1       1.386   3.040  19.250  0.00  0.00    +0.000 A 
ATOM      9  C   UNL     1       1.865   4.349  19.097  0.00  0.00    +0.000 A 
ATOM     10  C   UNL     1       1.443   5.390  20.043  0.00  0.00    +0.000 A 
ATOM     11  O   UNL     1       0.788   5.065  21.027  0.00  0.00    +0.000 OA
ENDROOT
BRANCH   1  12
ATOM     12  C   UNL     1       1.589   7.720  20.771  0.00  0.00    +0.000 C 
BRANCH  12  14
ATOM     13  O   UNL     1       0.942   9.223  19.008  0.00  0.00    +0.000 OA
ATOM     14  C   UNL     1       1.173   9.092  20.215  0.00  0.00    +0.000 C 
ATOM     15  N   UNL     1       0.970  10.135  21.105  0.00  0.00    +0.000 N 
ATOM     16  C   UNL     1       0.624  11.468  20.584  0.00  0.00    +0.000 C 
ATOM     17  C   UNL     1      -0.849  11.837  20.869  0.00  0.00    +0.000 C 
ATOM     18  N   UNL     1      -1.136  11.620  22.301  0.00  0.00    +0.000 N 
ATOM     19  C   UNL     1      -0.829  10.269  22.791  0.00  0.00    +0.000 C 
ATOM     20  C   UNL     1       0.654   9.949  22.527  0.00  0.00    +0.000 C 
BRANCH  18  21
ATOM     21  C   UNL     1      -1.793  12.538  23.090  0.00  0.00    +0.000 A 
ATOM     22  C   UNL     1      -3.093  12.317  23.567  0.00  0.00    +0.000 A 
ATOM     23  C   UNL     1      -3.751  13.259  24.366  0.00  0.00    +0.000 A 
ATOM     24  C   UNL     1      -3.114  14.450  24.687  0.00  0.00    +0.000 A 
ATOM     25  F   UNL     1      -3.738  15.355  25.448  0.00  0.00    +0.000 F 
ATOM     26  C   UNL     1      -1.833  14.710  24.225  0.00  0.00    +0.000 A 
ATOM     27  C   UNL     1      -1.186  13.760  23.431  0.00  0.00    +0.000 A 
ENDBRANCH  18  21
ENDBRANCH  12  14
ENDBRANCH   1  12
BRANCH   3  28
ATOM     28  C   UNL     1       4.282   6.462  16.983  0.00  0.00    +0.000 C 
BRANCH  28  29
ATOM     29  C   UNL     1       5.618   5.806  17.204  0.00  0.00    +0.000 A 
ATOM     30  C   UNL     1       6.306   5.166  16.167  0.00  0.00    +0.000 A 
ATOM     31  C   UNL     1       7.488   4.482  16.436  0.00  0.00    +0.000 A 
ATOM     32  C   UNL     1       7.952   4.462  17.740  0.00  0.00    +0.000 A 
ATOM     33  N   UNL     1       7.331   5.085  18.763  0.00  0.00    +0.000 NA
ATOM     34  C   UNL     1       6.182   5.738  18.475  0.00  0.00    +0.000 A 
ENDBRANCH  28  29
ENDBRANCH   3  28
TORSDOF 5
ENDMDL
MODEL 5
REMARK VINA RESULT:      -8.5      0.950      1.341
REMARK  Name = 
REMARK  5 active torsions:
REMARK  status: ('A' for Active; 'I' for Inactive)
REMARK    1  A    between atoms: C_2  and  C_3
REMARK    2  A    between atoms: C_3  and  N_4
REMARK    3  A    between atoms: C_6  and  C_7
REMARK    4  A    between atoms: C_7  and  C_8
REMARK    5  A    between atoms: N_25  and  C_26
REMARK                            x       y       z     vdW  Elec       q    Type
REMARK                         _______ _______ _______ _____ _____    ______ ____
ROOT
ATOM      1  N   UNL     1       2.304   6.577  19.328  0.00  0.00    +0.000 N 
ATOM      2  N   UNL     1       3.368   6.577  18.448  0.00  0.00    +0.000 NA
ATOM      3  C   UNL     1       3.755   5.454  17.908  0.00  0.00    +0.000 A 
ATOM      4  C   UNL     1       3.090   4.160  18.173  0.00  0.00    +0.000 A 
ATOM      5  C   UNL     1       3.472   2.947  17.585  0.00  0.00    +0.000 A 
ATOM      6  C   UNL     1       2.796   1.765  17.902  0.00  0.00    +0.000 A 
ATOM      7  C   UNL     1       1.725   1.785  18.792  0.00  0.00    +0.000 A 
ATOM      8  C   UNL     1       1.346   2.985  19.384  0.00  0.00    +0.000 A 
ATOM      9  C   UNL     1       2.040   4.166  19.084  0.00  0.00    +0.000 A 
ATOM     10  C   UNL     1       1.687   5.411  19.778  0.00  0.00    +0.000 A 
ATOM     11  O   UNL     1       0.883   5.366  20.703  0.00  0.00    +0.000 OA
ENDROOT
BRANCH   1  12
ATOM     12  C   UNL     1       2.119   7.793  20.124  0.00  0.00    +0.000 C 
BRANCH  12  14
ATOM     13  O   UNL     1       1.109   8.806  18.190  0.00  0.00    +0.000 OA
ATOM     14  C   UNL     1       1.427   8.945  19.376  0.00  0.00    +0.000 C 
ATOM     15  N   UNL     1       1.086  10.086  20.085  0.00  0.00    +0.000 N 
ATOM     16  C   UNL     1       0.472  11.218  19.372  0.00  0.00    +0.000 C 
ATOM     17  C   UNL     1      -1.026  11.378  19.718  0.00  0.00    +0.000 C 
ATOM     18  N   UNL     1      -1.187  11.387  21.185  0.00  0.00    +0.000 N 
ATOM     19  C   UNL     1      -0.610  10.224  21.875  0.00  0.00    +0.000 C 
ATOM     20  C   UNL     1       0.889  10.119  21.540  0.00  0.00    +0.000 C 
BRANCH  18  21
ATOM     21  C   UNL     1      -1.957  12.311  21.857  0.00  0.00    +0.000 A 
ATOM     22  C   UNL     1      -2.180  13.602  21.356  0.00  0.00    +0.000 A 
ATOM     23  C   UNL     1      -2.961  14.533  22.050  0.00  0.00    +0.000 A 
ATOM     24  C   UNL     1      -3.521  14.183  23.271  0.00  0.00    +0.000 A 
ATOM     25  F   UNL     1      -4.267  15.069  23.940  0.00  0.00    +0.000 F 
ATOM     26  C   UNL     1      -3.313  12.921  23.805  0.00  0.00    +0.000 A 
ATOM     27  C   UNL     1      -2.534  12.000  23.101  0.00  0.00    +0.000 A 
ENDBRANCH  18  21
ENDBRANCH  12  14
ENDBRANCH   1  12
BRANCH   3  28
ATOM     28  C   UNL     1       4.983   5.503  17.003  0.00  0.00    +0.000 C 
BRANCH  28  29
ATOM     29  C   UNL     1       6.163   6.230  17.589  0.00  0.00    +0.000 A 
ATOM     30  C   UNL     1       6.597   7.460  17.081  0.00  0.00    +0.000 A 
ATOM     31  C   UNL     1       7.754   8.049  17.584  0.00  0.00    +0.000 A 
ATOM     32  C   UNL     1       8.443   7.390  18.587  0.00  0.00    +0.000 A 
ATOM     33  N   UNL     1       8.045   6.215  19.119  0.00  0.00    +0.000 NA
ATOM     34  C   UNL     1       6.921   5.663  18.609  0.00  0.00    +0.000 A 
ENDBRANCH  28  29
ENDBRANCH   3  28
TORSDOF 5
ENDMDL
MODEL 6
REMARK VINA RESULT:      -8.5      1.136      1.253
REMARK  Name = 
REMARK  5 active torsions:
REMARK  status: ('A' for Active; 'I' for Inactive)
REMARK    1  A    between atoms: C_2  and  C_3
REMARK    2  A    between atoms: C_3  and  N_4
REMARK    3  A    between atoms: C_6  and  C_7
REMARK    4  A    between atoms: C_7  and  C_8
REMARK    5  A    between atoms: N_25  and  C_26
REMARK                            x       y       z     vdW  Elec       q    Type
REMARK                         _______ _______ _______ _____ _____    ______ ____
ROOT
ATOM      1  N   UNL     1       2.118   7.362  19.415  0.00  0.00    +0.000 N 
ATOM      2  N   UNL     1       3.048   7.052  18.441  0.00  0.00    +0.000 NA
ATOM      3  C   UNL     1       3.305   5.801  18.172  0.00  0.00    +0.000 A 
ATOM      4  C   UNL     1       2.626   4.675  18.851  0.00  0.00    +0.000 A 
ATOM      5  C   UNL     1       2.868   3.326  18.562  0.00  0.00    +0.000 A 
ATOM      6  C   UNL     1       2.191   2.322  19.261  0.00  0.00    +0.000 A 
ATOM      7  C   UNL     1       1.257   2.654  20.240  0.00  0.00    +0.000 A 
ATOM      8  C   UNL     1       1.019   3.992  20.536  0.00  0.00    +0.000 A 
ATOM      9  C   UNL     1       1.717   4.998  19.851  0.00  0.00    +0.000 A 
ATOM     10  C   UNL     1       1.520   6.403  20.229  0.00  0.00    +0.000 A 
ATOM     11  O   UNL     1       0.852   6.660  21.225  0.00  0.00    +0.000 OA
ENDROOT
BRANCH   1  12
ATOM     12  C   UNL     1       2.101   8.752  19.877  0.00  0.00    +0.000 C 
BRANCH  12  14
ATOM     13  O   UNL     1       0.604   9.298  18.076  0.00  0.00    +0.000 OA
ATOM     14  C   UNL     1       1.078   9.649  19.162  0.00  0.00    +0.000 C 
ATOM     15  N   UNL     1       0.634  10.793  19.806  0.00  0.00    +0.000 N 
ATOM     16  C   UNL     1      -0.305  11.690  19.113  0.00  0.00    +0.000 C 
ATOM     17  C   UNL     1      -1.727  11.620  19.715  0.00  0.00    +0.000 C 
ATOM     18  N   UNL     1      -1.643  11.794  21.178  0.00  0.00    +0.000 N 
ATOM     19  C   UNL     1      -0.738  10.858  21.859  0.00  0.00    +0.000 C 
ATOM     20  C   UNL     1       0.677  10.983  21.262  0.00  0.00    +0.000 C 
BRANCH  18  21
ATOM     21  C   UNL     1      -2.463  12.644  21.888  0.00  0.00    +0.000 A 
ATOM     22  C   UNL     1      -3.731  13.020  21.422  0.00  0.00    +0.000 A 
ATOM     23  C   UNL     1      -4.554  13.886  22.151  0.00  0.00    +0.000 A 
ATOM     24  C   UNL     1      -4.104  14.402  23.359  0.00  0.00    +0.000 A 
ATOM     25  F   UNL     1      -4.884  15.233  24.059  0.00  0.00    +0.000 F 
ATOM     26  C   UNL     1      -2.852  14.064  23.847  0.00  0.00    +0.000 A 
ATOM     27  C   UNL     1      -2.042  13.195  23.111  0.00  0.00    +0.000 A 
ENDBRANCH  18  21
ENDBRANCH  12  14
ENDBRANCH   1  12
BRANCH   3  28
ATOM     28  C   UNL     1       4.394   5.518  17.142  0.00  0.00    +0.000 C 
BRANCH  28  29
ATOM     29  C   UNL     1       5.763   6.007  17.531  0.00  0.00    +0.000 A 
ATOM     30  C   UNL     1       6.484   5.424  18.580  0.00  0.00    +0.000 A 
ATOM     31  C   UNL     1       7.701   5.973  18.974  0.00  0.00    +0.000 A 
ATOM     32  C   UNL     1       8.165   7.090  18.302  0.00  0.00    +0.000 A 
ATOM     33  N   UNL     1       7.513   7.668  17.272  0.00  0.00    +0.000 NA
ATOM     34  C   UNL     1       6.331   7.117  16.912  0.00  0.00    +0.000 A 
ENDBRANCH  28  29
ENDBRANCH   3  28
TORSDOF 5
ENDMDL
MODEL 7
REMARK VINA RESULT:      -8.3      1.701      2.067
REMARK  Name = 
REMARK  5 active torsions:
REMARK  status: ('A' for Active; 'I' for Inactive)
REMARK    1  A    between atoms: C_2  and  C_3
REMARK    2  A    between atoms: C_3  and  N_4
REMARK    3  A    between atoms: C_6  and  C_7
REMARK    4  A    between atoms: C_7  and  C_8
REMARK    5  A    between atoms: N_25  and  C_26
REMARK                            x       y       z     vdW  Elec       q    Type
REMARK                         _______ _______ _______ _____ _____    ______ ____
ROOT
ATOM      1  N   UNL     1       2.353   6.397  19.857  0.00  0.00    +0.000 N 
ATOM      2  N   UNL     1       3.695   6.381  19.527  0.00  0.00    +0.000 NA
ATOM      3  C   UNL     1       4.257   5.257  19.178  0.00  0.00    +0.000 A 
ATOM      4  C   UNL     1       3.518   3.978  19.093  0.00  0.00    +0.000 A 
ATOM      5  C   UNL     1       4.095   2.764  18.697  0.00  0.00    +0.000 A 
ATOM      6  C   UNL     1       3.326   1.597  18.656  0.00  0.00    +0.000 A 
ATOM      7  C   UNL     1       1.975   1.633  18.993  0.00  0.00    +0.000 A 
ATOM      8  C   UNL     1       1.399   2.834  19.394  0.00  0.00    +0.000 A 
ATOM      9  C   UNL     1       2.177   3.999  19.458  0.00  0.00    +0.000 A 
ATOM     10  C   UNL     1       1.581   5.243  19.962  0.00  0.00    +0.000 A 
ATOM     11  O   UNL     1       0.453   5.205  20.444  0.00  0.00    +0.000 OA
ENDROOT
BRANCH   1  12
ATOM     12  C   UNL     1       1.864   7.605  20.526  0.00  0.00    +0.000 C 
BRANCH  12  14
ATOM     13  O   UNL     1       1.399   8.545  18.362  0.00  0.00    +0.000 OA
ATOM     14  C   UNL     1       1.498   8.756  19.575  0.00  0.00    +0.000 C 
ATOM     15  N   UNL     1       1.188   9.993  20.118  0.00  0.00    +0.000 N 
ATOM     16  C   UNL     1       0.888  11.119  19.220  0.00  0.00    +0.000 C 
ATOM     17  C   UNL     1      -0.611  11.494  19.239  0.00  0.00    +0.000 C 
ATOM     18  N   UNL     1      -1.050  11.663  20.638  0.00  0.00    +0.000 N 
ATOM     19  C   UNL     1      -0.786  10.509  21.510  0.00  0.00    +0.000 C 
ATOM     20  C   UNL     1       0.720  10.189  21.497  0.00  0.00    +0.000 C 
BRANCH  18  21
ATOM     21  C   UNL     1      -1.799  12.735  21.074  0.00  0.00    +0.000 A 
ATOM     22  C   UNL     1      -2.789  12.603  22.059  0.00  0.00    +0.000 A 
ATOM     23  C   UNL     1      -3.545  13.698  22.491  0.00  0.00    +0.000 A 
ATOM     24  C   UNL     1      -3.326  14.947  21.925  0.00  0.00    +0.000 A 
ATOM     25  F   UNL     1      -4.046  15.998  22.332  0.00  0.00    +0.000 F 
ATOM     26  C   UNL     1      -2.364  15.115  20.940  0.00  0.00    +0.000 A 
ATOM     27  C   UNL     1      -1.614  14.014  20.521  0.00  0.00    +0.000 A 
ENDBRANCH  18  21
ENDBRANCH  12  14
ENDBRANCH   1  12
BRANCH   3  28
ATOM     28  C   UNL     1       5.757   5.285  18.899  0.00  0.00    +0.000 C 
BRANCH  28  29
ATOM     29  C   UNL     1       6.121   5.234  17.440  0.00  0.00    +0.000 A 
ATOM     30  C   UNL     1       5.220   5.624  16.441  0.00  0.00    +0.000 A 
ATOM     31  C   UNL     1       5.560   5.465  15.100  0.00  0.00    +0.000 A 
ATOM     32  C   UNL     1       6.795   4.921  14.797  0.00  0.00    +0.000 A 
ATOM     33  N   UNL     1       7.700   4.554  15.728  0.00  0.00    +0.000 NA
ATOM     34  C   UNL     1       7.343   4.716  17.023  0.00  0.00    +0.000 A 
ENDBRANCH  28  29
ENDBRANCH   3  28
TORSDOF 5
ENDMDL
MODEL 8
REMARK VINA RESULT:      -8.2      1.665      2.049
REMARK  Name = 
REMARK  5 active torsions:
REMARK  status: ('A' for Active; 'I' for Inactive)
REMARK    1  A    between atoms: C_2  and  C_3
REMARK    2  A    between atoms: C_3  and  N_4
REMARK    3  A    between atoms: C_6  and  C_7
REMARK    4  A    between atoms: C_7  and  C_8
REMARK    5  A    between atoms: N_25  and  C_26
REMARK                            x       y       z     vdW  Elec       q    Type
REMARK                         _______ _______ _______ _____ _____    ______ ____
ROOT
ATOM      1  N   UNL     1       2.263   6.923  18.760  0.00  0.00    +0.000 N 
ATOM      2  N   UNL     1       2.791   6.196  17.710  0.00  0.00    +0.000 NA
ATOM      3  C   UNL     1       2.851   4.896  17.796  0.00  0.00    +0.000 A 
ATOM      4  C   UNL     1       2.356   4.141  18.968  0.00  0.00    +0.000 A 
ATOM      5  C   UNL     1       2.387   2.744  19.071  0.00  0.00    +0.000 A 
ATOM      6  C   UNL     1       1.909   2.110  20.222  0.00  0.00    +0.000 A 
ATOM      7  C   UNL     1       1.381   2.860  21.270  0.00  0.00    +0.000 A 
ATOM      8  C   UNL     1       1.354   4.248  21.176  0.00  0.00    +0.000 A 
ATOM      9  C   UNL     1       1.856   4.884  20.031  0.00  0.00    +0.000 A 
ATOM     10  C   UNL     1       1.901   6.351  19.977  0.00  0.00    +0.000 A 
ATOM     11  O   UNL     1       1.623   6.988  20.987  0.00  0.00    +0.000 OA
ENDROOT
BRANCH   1  12
ATOM     12  C   UNL     1       2.503   8.368  18.734  0.00  0.00    +0.000 C 
BRANCH  12  14
ATOM     13  O   UNL     1       0.656   8.806  17.257  0.00  0.00    +0.000 OA
ATOM     14  C   UNL     1       1.317   9.202  18.223  0.00  0.00    +0.000 C 
ATOM     15  N   UNL     1       0.953  10.340  18.927  0.00  0.00    +0.000 N 
ATOM     16  C   UNL     1      -0.145  11.178  18.421  0.00  0.00    +0.000 C 
ATOM     17  C   UNL     1      -1.416  11.058  19.293  0.00  0.00    +0.000 C 
ATOM     18  N   UNL     1      -1.054  11.269  20.709  0.00  0.00    +0.000 N 
ATOM     19  C   UNL     1       0.012  10.390  21.209  0.00  0.00    +0.000 C 
ATOM     20  C   UNL     1       1.273  10.564  20.343  0.00  0.00    +0.000 C 
BRANCH  18  21
ATOM     21  C   UNL     1      -1.757  12.098  21.555  0.00  0.00    +0.000 A 
ATOM     22  C   UNL     1      -2.084  11.721  22.867  0.00  0.00    +0.000 A 
ATOM     23  C   UNL     1      -2.802  12.571  23.716  0.00  0.00    +0.000 A 
ATOM     24  C   UNL     1      -3.217  13.812  23.253  0.00  0.00    +0.000 A 
ATOM     25  F   UNL     1      -3.906  14.627  24.059  0.00  0.00    +0.000 F 
ATOM     26  C   UNL     1      -2.924  14.214  21.959  0.00  0.00    +0.000 A 
ATOM     27  C   UNL     1      -2.204  13.359  21.123  0.00  0.00    +0.000 A 
ENDBRANCH  18  21
ENDBRANCH  12  14
ENDBRANCH   1  12
BRANCH   3  28
ATOM     28  C   UNL     1       3.512   4.151  16.640  0.00  0.00    +0.000 C 
BRANCH  28  29
ATOM     29  C   UNL     1       4.966   4.480  16.435  0.00  0.00    +0.000 A 
ATOM     30  C   UNL     1       5.901   4.368  17.471  0.00  0.00    +0.000 A 
ATOM     31  C   UNL     1       7.214   4.781  17.268  0.00  0.00    +0.000 A 
ATOM     32  C   UNL     1       7.557   5.292  16.029  0.00  0.00    +0.000 A 
ATOM     33  N   UNL     1       6.693   5.395  14.998  0.00  0.00    +0.000 NA
ATOM     34  C   UNL     1       5.422   4.991  15.223  0.00  0.00    +0.000 A 
ENDBRANCH  28  29
ENDBRANCH   3  28
TORSDOF 5
ENDMDL
MODEL 9
REMARK VINA RESULT:      -8.2      1.728      2.418
REMARK  Name = 
REMARK  5 active torsions:
REMARK  status: ('A' for Active; 'I' for Inactive)
REMARK    1  A    between atoms: C_2  and  C_3
REMARK    2  A    between atoms: C_3  and  N_4
REMARK    3  A    between atoms: C_6  and  C_7
REMARK    4  A    between atoms: C_7  and  C_8
REMARK    5  A    between atoms: N_25  and  C_26
REMARK                            x       y       z     vdW  Elec       q    Type
REMARK                         _______ _______ _______ _____ _____    ______ ____
ROOT
ATOM      1  N   UNL     1       2.409   6.875  18.540  0.00  0.00    +0.000 N 
ATOM      2  N   UNL     1       2.911   6.049  17.553  0.00  0.00    +0.000 NA
ATOM      3  C   UNL     1       3.005   4.766  17.775  0.00  0.00    +0.000 A 
ATOM      4  C   UNL     1       2.574   4.134  19.041  0.00  0.00    +0.000 A 
ATOM      5  C   UNL     1       2.642   2.757  19.292  0.00  0.00    +0.000 A 
ATOM      6  C   UNL     1       2.224   2.242  20.523  0.00  0.00    +0.000 A 
ATOM      7  C   UNL     1       1.721   3.092  21.506  0.00  0.00    +0.000 A 
ATOM      8  C   UNL     1       1.658   4.460  21.265  0.00  0.00    +0.000 A 
ATOM      9  C   UNL     1       2.100   4.978  20.038  0.00  0.00    +0.000 A 
ATOM     10  C   UNL     1       2.108   6.431  19.825  0.00  0.00    +0.000 A 
ATOM     11  O   UNL     1       1.856   7.169  20.772  0.00  0.00    +0.000 OA
ENDROOT
BRANCH   1  12
ATOM     12  C   UNL     1       2.614   8.313  18.349  0.00  0.00    +0.000 C 
BRANCH  12  14
ATOM     13  O   UNL     1       0.491   8.658  17.274  0.00  0.00    +0.000 OA
ATOM     14  C   UNL     1       1.330   9.108  18.062  0.00  0.00    +0.000 C 
ATOM     15  N   UNL     1       1.097  10.273  18.775  0.00  0.00    +0.000 N 
ATOM     16  C   UNL     1      -0.101  11.074  18.474  0.00  0.00    +0.000 C 
ATOM     17  C   UNL     1      -1.158  10.980  19.597  0.00  0.00    +0.000 C 
ATOM     18  N   UNL     1      -0.514  11.263  20.895  0.00  0.00    +0.000 N 
ATOM     19  C   UNL     1       0.652  10.421  21.200  0.00  0.00    +0.000 C 
ATOM     20  C   UNL     1       1.700  10.569  20.081  0.00  0.00    +0.000 C 
BRANCH  18  21
ATOM     21  C   UNL     1      -1.043  12.123  21.833  0.00  0.00    +0.000 A 
ATOM     22  C   UNL     1      -0.429  13.341  22.159  0.00  0.00    +0.000 A 
ATOM     23  C   UNL     1      -0.974  14.205  23.115  0.00  0.00    +0.000 A 
ATOM     24  C   UNL     1      -2.144  13.848  23.772  0.00  0.00    +0.000 A 
ATOM     25  F   UNL     1      -2.670  14.668  24.689  0.00  0.00    +0.000 F 
ATOM     26  C   UNL     1      -2.774  12.647  23.486  0.00  0.00    +0.000 A 
ATOM     27  C   UNL     1      -2.221  11.795  22.527  0.00  0.00    +0.000 A 
ENDBRANCH  18  21
ENDBRANCH  12  14
ENDBRANCH   1  12
BRANCH   3  28
ATOM     28  C   UNL     1       3.637   3.913  16.680  0.00  0.00    +0.000 C 
BRANCH  28  29
ATOM     29  C   UNL     1       5.004   4.367  16.245  0.00  0.00    +0.000 A 
ATOM     30  C   UNL     1       5.286   4.683  14.910  0.00  0.00    +0.000 A 
ATOM     31  C   UNL     1       6.589   4.999  14.533  0.00  0.00    +0.000 A 
ATOM     32  C   UNL     1       7.573   4.992  15.505  0.00  0.00    +0.000 A 
ATOM     33  N   UNL     1       7.339   4.716  16.805  0.00  0.00    +0.000 NA
ATOM     34  C   UNL     1       6.065   4.409  17.144  0.00  0.00    +0.000 A 
ENDBRANCH  28  29
ENDBRANCH   3  28
TORSDOF 5
ENDMDL
