MODEL 1
REMARK VINA RESULT:      -7.4      0.000      0.000
REMARK  Name = 
REMARK  9 active torsions:
REMARK  status: ('A' for Active; 'I' for Inactive)
REMARK    1  A    between atoms: C_1  and  C_2
REMARK    2  A    between atoms: C_2  and  C_3
REMARK    3  A    between atoms: C_3  and  C_4
REMARK    4  A    between atoms: C_3  and  C_6
REMARK    5  A    between atoms: C_4  and  C_5
REMARK    6  A    between atoms: N_8  and  C_9
REMARK    7  A    between atoms: C_14  and  N_15
REMARK    8  A    between atoms: C_17  and  C_18
REMARK    9  A    between atoms: C_18  and  O_20
REMARK                            x       y       z     vdW  Elec       q    Type
REMARK                         _______ _______ _______ _____ _____    ______ ____
ROOT
ATOM      1  C   UNL     1       3.992   3.836  19.464  0.00  0.00    +0.000 C 
ATOM      2  C   UNL     1       4.144   2.310  19.371  0.00  0.00    +0.000 C 
ATOM      3  C   UNL     1       3.489   1.747  18.111  0.00  0.00    +0.000 C 
ATOM      4  C   UNL     1       2.014   2.130  18.037  0.00  0.00    +0.000 C 
ATOM      5  C   UNL     1       1.807   3.639  18.144  0.00  0.00    +0.000 C 
ATOM      6  C   UNL     1       2.502   4.235  19.383  0.00  0.00    +0.000 C 
ENDROOT
BRANCH   6   7
ATOM      7  N   UNL     1       2.323   5.678  19.495  0.00  0.00    +0.000 N 
ATOM      8  C   UNL     1       1.876   6.380  20.575  0.00  0.00    +0.000 A 
ATOM      9  C   UNL     1       1.839   7.686  20.132  0.00  0.00    +0.000 A 
ATOM     10  N   UNL     1       2.278   7.731  18.830  0.00  0.00    +0.000 NA
ATOM     11  N   UNL     1       2.582   6.499  18.456  0.00  0.00    +0.000 NA
BRANCH   9  12
ATOM     12  C   UNL     1       1.412   8.872  20.850  0.00  0.00    +0.000 C 
ATOM     13  O   UNL     1       0.908   9.851  20.321  0.00  0.00    +0.000 OA
BRANCH  12  14
ATOM     14  O   UNL     1       1.644   8.803  22.187  0.00  0.00    +0.000 OA
ATOM     15  H   UNL     1       2.043   9.643  22.498  0.00  0.00    +0.000 HD
ENDBRANCH  12  14
ENDBRANCH   9  12
ENDBRANCH   6   7
BRANCH   1  18
ATOM     16  C   UNL     1       6.018   5.084  18.768  0.00  0.00    +0.000 C 
ATOM     17  O   UNL     1       6.458   5.080  19.916  0.00  0.00    +0.000 OA
ATOM     18  N   UNL     1       4.816   4.496  18.449  0.00  0.00    +0.000 N 
ATOM     19  H   UNL     1       4.524   4.471  17.480  0.00  0.00    +0.000 HD
BRANCH  16  20
ATOM     20  C   UNL     1       6.723   5.793  17.604  0.00  0.00    +0.000 C 
BRANCH  20  22
ATOM     21  C   UNL     1       7.729   8.164  17.583  0.00  0.00    +0.000 C 
ATOM     22  C   UNL     1       7.784   6.761  18.164  0.00  0.00    +0.000 C 
ENDBRANCH  20  22
BRANCH  20  23
ATOM     23  C   UNL     1       7.261   4.810  16.547  0.00  0.00    +0.000 C 
ATOM     24  C   UNL     1       6.645   4.954  15.162  0.00  0.00    +0.000 C 
ENDBRANCH  20  23
ENDBRANCH  16  20
ENDBRANCH   1  18
TORSDOF 7
ENDMDL
MODEL 2
REMARK VINA RESULT:      -7.3      0.673      1.497
REMARK  Name = 
REMARK  9 active torsions:
REMARK  status: ('A' for Active; 'I' for Inactive)
REMARK    1  A    between atoms: C_1  and  C_2
REMARK    2  A    between atoms: C_2  and  C_3
REMARK    3  A    between atoms: C_3  and  C_4
REMARK    4  A    between atoms: C_3  and  C_6
REMARK    5  A    between atoms: C_4  and  C_5
REMARK    6  A    between atoms: N_8  and  C_9
REMARK    7  A    between atoms: C_14  and  N_15
REMARK    8  A    between atoms: C_17  and  C_18
REMARK    9  A    between atoms: C_18  and  O_20
REMARK                            x       y       z     vdW  Elec       q    Type
REMARK                         _______ _______ _______ _____ _____    ______ ____
ROOT
ATOM      1  C   UNL     1       3.950   3.989  19.550  0.00  0.00    +0.000 C 
ATOM      2  C   UNL     1       4.146   2.479  19.350  0.00  0.00    +0.000 C 
ATOM      3  C   UNL     1       3.476   1.981  18.070  0.00  0.00    +0.000 C 
ATOM      4  C   UNL     1       1.989   2.322  18.056  0.00  0.00    +0.000 C 
ATOM      5  C   UNL     1       1.740   3.813  18.270  0.00  0.00    +0.000 C 
ATOM      6  C   UNL     1       2.448   4.346  19.530  0.00  0.00    +0.000 C 
ENDROOT
BRANCH   6   7
ATOM      7  N   UNL     1       2.229   5.771  19.744  0.00  0.00    +0.000 N 
ATOM      8  C   UNL     1       1.689   6.376  20.841  0.00  0.00    +0.000 A 
ATOM      9  C   UNL     1       1.655   7.712  20.503  0.00  0.00    +0.000 A 
ATOM     10  N   UNL     1       2.185   7.871  19.245  0.00  0.00    +0.000 NA
ATOM     11  N   UNL     1       2.543   6.679  18.796  0.00  0.00    +0.000 NA
BRANCH   9  12
ATOM     12  C   UNL     1       1.150   8.829  21.280  0.00  0.00    +0.000 C 
ATOM     13  O   UNL     1       0.159   9.479  20.985  0.00  0.00    +0.000 OA
BRANCH  12  14
ATOM     14  O   UNL     1       1.904   9.103  22.377  0.00  0.00    +0.000 OA
ATOM     15  H   UNL     1       1.330   9.138  23.172  0.00  0.00    +0.000 HD
ENDBRANCH  12  14
ENDBRANCH   9  12
ENDBRANCH   6   7
BRANCH   1  18
ATOM     16  C   UNL     1       5.992   5.208  18.847  0.00  0.00    +0.000 C 
ATOM     17  O   UNL     1       6.526   5.013  19.937  0.00  0.00    +0.000 OA
ATOM     18  N   UNL     1       4.729   4.741  18.564  0.00  0.00    +0.000 N 
ATOM     19  H   UNL     1       4.354   4.874  17.633  0.00  0.00    +0.000 HD
BRANCH  16  20
ATOM     20  C   UNL     1       6.642   6.037  17.732  0.00  0.00    +0.000 C 
BRANCH  20  22
ATOM     21  C   UNL     1       5.256   6.280  15.574  0.00  0.00    +0.000 C 
ATOM     22  C   UNL     1       5.549   6.810  16.968  0.00  0.00    +0.000 C 
ENDBRANCH  20  22
BRANCH  20  23
ATOM     23  C   UNL     1       7.798   6.918  18.244  0.00  0.00    +0.000 C 
ATOM     24  C   UNL     1       7.865   8.310  17.631  0.00  0.00    +0.000 C 
ENDBRANCH  20  23
ENDBRANCH  16  20
ENDBRANCH   1  18
TORSDOF 7
ENDMDL
MODEL 3
REMARK VINA RESULT:      -7.2      1.219      2.120
REMARK  Name = 
REMARK  9 active torsions:
REMARK  status: ('A' for Active; 'I' for Inactive)
REMARK    1  A    between atoms: C_1  and  C_2
REMARK    2  A    between atoms: C_2  and  C_3
REMARK    3  A    between atoms: C_3  and  C_4
REMARK    4  A    between atoms: C_3  and  C_6
REMARK    5  A    between atoms: C_4  and  C_5
REMARK    6  A    between atoms: N_8  and  C_9
REMARK    7  A    between atoms: C_14  and  N_15
REMARK    8  A    between atoms: C_17  and  C_18
REMARK    9  A    between atoms: C_18  and  O_20
REMARK                            x       y       z     vdW  Elec       q    Type
REMARK                         _______ _______ _______ _____ _____    ______ ____
ROOT
ATOM      1  C   UNL     1       4.091   4.509  19.304  0.00  0.00    +0.000 C 
ATOM      2  C   UNL     1       4.102   3.018  19.674  0.00  0.00    +0.000 C 
ATOM      3  C   UNL     1       3.651   2.138  18.510  0.00  0.00    +0.000 C 
ATOM      4  C   UNL     1       2.266   2.542  18.015  0.00  0.00    +0.000 C 
ATOM      5  C   UNL     1       2.198   4.024  17.650  0.00  0.00    +0.000 C 
ATOM      6  C   UNL     1       2.694   4.928  18.795  0.00  0.00    +0.000 C 
ENDROOT
BRANCH   6   7
ATOM      7  N   UNL     1       2.645   6.346  18.460  0.00  0.00    +0.000 N 
ATOM      8  C   UNL     1       1.939   7.327  19.092  0.00  0.00    +0.000 A 
ATOM      9  C   UNL     1       2.194   8.457  18.344  0.00  0.00    +0.000 A 
ATOM     10  N   UNL     1       3.048   8.132  17.316  0.00  0.00    +0.000 NA
ATOM     11  N   UNL     1       3.326   6.841  17.405  0.00  0.00    +0.000 NA
BRANCH   9  12
ATOM     12  C   UNL     1       1.681   9.801  18.532  0.00  0.00    +0.000 C 
ATOM     13  O   UNL     1       1.082  10.174  19.528  0.00  0.00    +0.000 OA
BRANCH  12  14
ATOM     14  O   UNL     1       1.918  10.618  17.471  0.00  0.00    +0.000 OA
ATOM     15  H   UNL     1       1.146  11.208  17.330  0.00  0.00    +0.000 HD
ENDBRANCH  12  14
ENDBRANCH   9  12
ENDBRANCH   6   7
BRANCH   1  18
ATOM     16  C   UNL     1       6.410   5.205  18.767  0.00  0.00    +0.000 C 
ATOM     17  O   UNL     1       6.688   5.323  19.959  0.00  0.00    +0.000 OA
ATOM     18  N   UNL     1       5.160   4.808  18.350  0.00  0.00    +0.000 N 
ATOM     19  H   UNL     1       4.996   4.666  17.360  0.00  0.00    +0.000 HD
BRANCH  16  20
ATOM     20  C   UNL     1       7.393   5.547  17.640  0.00  0.00    +0.000 C 
BRANCH  20  22
ATOM     21  C   UNL     1       6.823   4.946  15.201  0.00  0.00    +0.000 C 
ATOM     22  C   UNL     1       7.320   4.457  16.552  0.00  0.00    +0.000 C 
ENDBRANCH  20  22
BRANCH  20  23
ATOM     23  C   UNL     1       7.212   6.982  17.110  0.00  0.00    +0.000 C 
ATOM     24  C   UNL     1       8.011   8.046  17.850  0.00  0.00    +0.000 C 
ENDBRANCH  20  23
ENDBRANCH  16  20
ENDBRANCH   1  18
TORSDOF 7
ENDMDL
MODEL 4
REMARK VINA RESULT:      -7.1      0.491      1.766
REMARK  Name = 
REMARK  9 active torsions:
REMARK  status: ('A' for Active; 'I' for Inactive)
REMARK    1  A    between atoms: C_1  and  C_2
REMARK    2  A    between atoms: C_2  and  C_3
REMARK    3  A    between atoms: C_3  and  C_4
REMARK    4  A    between atoms: C_3  and  C_6
REMARK    5  A    between atoms: C_4  and  C_5
REMARK    6  A    between atoms: N_8  and  C_9
REMARK    7  A    between atoms: C_14  and  N_15
REMARK    8  A    between atoms: C_17  and  C_18
REMARK    9  A    between atoms: C_18  and  O_20
REMARK                            x       y       z     vdW  Elec       q    Type
REMARK                         _______ _______ _______ _____ _____    ______ ____
ROOT
ATOM      1  C   UNL     1       3.964   3.902  19.463  0.00  0.00    +0.000 C 
ATOM      2  C   UNL     1       4.129   2.376  19.403  0.00  0.00    +0.000 C 
ATOM      3  C   UNL     1       3.365   1.766  18.229  0.00  0.00    +0.000 C 
ATOM      4  C   UNL     1       1.885   2.129  18.284  0.00  0.00    +0.000 C 
ATOM      5  C   UNL     1       1.667   3.638  18.363  0.00  0.00    +0.000 C 
ATOM      6  C   UNL     1       2.468   4.281  19.512  0.00  0.00    +0.000 C 
ENDROOT
BRANCH   6   7
ATOM      7  N   UNL     1       2.279   5.724  19.597  0.00  0.00    +0.000 N 
ATOM      8  C   UNL     1       1.775   6.439  20.643  0.00  0.00    +0.000 A 
ATOM      9  C   UNL     1       1.757   7.738  20.183  0.00  0.00    +0.000 A 
ATOM     10  N   UNL     1       2.262   7.769  18.904  0.00  0.00    +0.000 NA
ATOM     11  N   UNL     1       2.588   6.533  18.562  0.00  0.00    +0.000 NA
BRANCH   9  12
ATOM     12  C   UNL     1       1.291   8.933  20.863  0.00  0.00    +0.000 C 
ATOM     13  O   UNL     1       1.454   9.154  22.052  0.00  0.00    +0.000 OA
BRANCH  12  14
ATOM     14  O   UNL     1       0.628   9.791  20.044  0.00  0.00    +0.000 OA
ATOM     15  H   UNL     1       0.834   9.581  19.108  0.00  0.00    +0.000 HD
ENDBRANCH  12  14
ENDBRANCH   9  12
ENDBRANCH   6   7
BRANCH   1  18
ATOM     16  C   UNL     1       5.919   5.109  18.529  0.00  0.00    +0.000 C 
ATOM     17  O   UNL     1       6.485   5.107  19.621  0.00  0.00    +0.000 OA
ATOM     18  N   UNL     1       4.679   4.539  18.355  0.00  0.00    +0.000 N 
ATOM     19  H   UNL     1       4.278   4.511  17.426  0.00  0.00    +0.000 HD
BRANCH  16  20
ATOM     20  C   UNL     1       6.498   5.796  17.286  0.00  0.00    +0.000 C 
BRANCH  20  22
ATOM     21  C   UNL     1       6.588   4.306  15.187  0.00  0.00    +0.000 C 
ATOM     22  C   UNL     1       5.773   5.272  16.030  0.00  0.00    +0.000 C 
ENDBRANCH  20  22
BRANCH  20  23
ATOM     23  C   UNL     1       6.517   7.331  17.410  0.00  0.00    +0.000 C 
ATOM     24  C   UNL     1       7.868   7.930  17.777  0.00  0.00    +0.000 C 
ENDBRANCH  20  23
ENDBRANCH  16  20
ENDBRANCH   1  18
TORSDOF 7
ENDMDL
MODEL 5
REMARK VINA RESULT:      -6.9      1.236      2.023
REMARK  Name = 
REMARK  9 active torsions:
REMARK  status: ('A' for Active; 'I' for Inactive)
REMARK    1  A    between atoms: C_1  and  C_2
REMARK    2  A    between atoms: C_2  and  C_3
REMARK    3  A    between atoms: C_3  and  C_4
REMARK    4  A    between atoms: C_3  and  C_6
REMARK    5  A    between atoms: C_4  and  C_5
REMARK    6  A    between atoms: N_8  and  C_9
REMARK    7  A    between atoms: C_14  and  N_15
REMARK    8  A    between atoms: C_17  and  C_18
REMARK    9  A    between atoms: C_18  and  O_20
REMARK                            x       y       z     vdW  Elec       q    Type
REMARK                         _______ _______ _______ _____ _____    ______ ____
ROOT
ATOM      1  C   UNL     1       3.942   3.986  19.458  0.00  0.00    +0.000 C 
ATOM      2  C   UNL     1       4.164   2.466  19.411  0.00  0.00    +0.000 C 
ATOM      3  C   UNL     1       3.577   1.843  18.145  0.00  0.00    +0.000 C 
ATOM      4  C   UNL     1       2.090   2.158  18.012  0.00  0.00    +0.000 C 
ATOM      5  C   UNL     1       1.815   3.658  18.071  0.00  0.00    +0.000 C 
ATOM      6  C   UNL     1       2.440   4.316  19.316  0.00  0.00    +0.000 C 
ENDROOT
BRANCH   6   7
ATOM      7  N   UNL     1       2.194   5.751  19.384  0.00  0.00    +0.000 N 
ATOM      8  C   UNL     1       2.191   6.645  18.354  0.00  0.00    +0.000 A 
ATOM      9  C   UNL     1       1.969   7.860  18.968  0.00  0.00    +0.000 A 
ATOM     10  N   UNL     1       1.826   7.661  20.320  0.00  0.00    +0.000 NA
ATOM     11  N   UNL     1       1.954   6.366  20.561  0.00  0.00    +0.000 NA
BRANCH   9  12
ATOM     12  C   UNL     1       1.895   9.178  18.364  0.00  0.00    +0.000 C 
ATOM     13  O   UNL     1       2.329   9.451  17.256  0.00  0.00    +0.000 OA
BRANCH  12  14
ATOM     14  O   UNL     1       1.304  10.103  19.167  0.00  0.00    +0.000 OA
ATOM     15  H   UNL     1       1.720  10.980  19.022  0.00  0.00    +0.000 HD
ENDBRANCH  12  14
ENDBRANCH   9  12
ENDBRANCH   6   7
BRANCH   1  18
ATOM     16  C   UNL     1       6.000   5.186  18.772  0.00  0.00    +0.000 C 
ATOM     17  O   UNL     1       6.461   5.118  19.910  0.00  0.00    +0.000 OA
ATOM     18  N   UNL     1       4.771   4.656  18.455  0.00  0.00    +0.000 N 
ATOM     19  H   UNL     1       4.459   4.682  17.491  0.00  0.00    +0.000 HD
BRANCH  16  20
ATOM     20  C   UNL     1       6.709   5.915  17.624  0.00  0.00    +0.000 C 
BRANCH  20  22
ATOM     21  C   UNL     1       5.444   5.915  15.380  0.00  0.00    +0.000 C 
ATOM     22  C   UNL     1       5.656   6.593  16.724  0.00  0.00    +0.000 C 
ENDBRANCH  20  22
BRANCH  20  23
ATOM     23  C   UNL     1       7.820   6.861  18.117  0.00  0.00    +0.000 C 
ATOM     24  C   UNL     1       7.716   8.294  17.612  0.00  0.00    +0.000 C 
ENDBRANCH  20  23
ENDBRANCH  16  20
ENDBRANCH   1  18
TORSDOF 7
ENDMDL
MODEL 6
REMARK VINA RESULT:      -6.8      1.216      1.522
REMARK  Name = 
REMARK  9 active torsions:
REMARK  status: ('A' for Active; 'I' for Inactive)
REMARK    1  A    between atoms: C_1  and  C_2
REMARK    2  A    between atoms: C_2  and  C_3
REMARK    3  A    between atoms: C_3  and  C_4
REMARK    4  A    between atoms: C_3  and  C_6
REMARK    5  A    between atoms: C_4  and  C_5
REMARK    6  A    between atoms: N_8  and  C_9
REMARK    7  A    between atoms: C_14  and  N_15
REMARK    8  A    between atoms: C_17  and  C_18
REMARK    9  A    between atoms: C_18  and  O_20
REMARK                            x       y       z     vdW  Elec       q    Type
REMARK                         _______ _______ _______ _____ _____    ______ ____
ROOT
ATOM      1  C   UNL     1       3.923   4.323  19.445  0.00  0.00    +0.000 C 
ATOM      2  C   UNL     1       4.184   2.813  19.345  0.00  0.00    +0.000 C 
ATOM      3  C   UNL     1       3.617   2.220  18.057  0.00  0.00    +0.000 C 
ATOM      4  C   UNL     1       2.123   2.500  17.929  0.00  0.00    +0.000 C 
ATOM      5  C   UNL     1       1.808   3.990  18.040  0.00  0.00    +0.000 C 
ATOM      6  C   UNL     1       2.413   4.619  19.310  0.00  0.00    +0.000 C 
ENDROOT
BRANCH   6   7
ATOM      7  N   UNL     1       2.129   6.044  19.428  0.00  0.00    +0.000 N 
ATOM      8  C   UNL     1       2.106   6.974  18.430  0.00  0.00    +0.000 A 
ATOM      9  C   UNL     1       1.850   8.160  19.085  0.00  0.00    +0.000 A 
ATOM     10  N   UNL     1       1.709   7.910  20.429  0.00  0.00    +0.000 NA
ATOM     11  N   UNL     1       1.870   6.611  20.625  0.00  0.00    +0.000 NA
BRANCH   9  12
ATOM     12  C   UNL     1       1.743   9.496  18.528  0.00  0.00    +0.000 C 
ATOM     13  O   UNL     1       1.250  10.447  19.115  0.00  0.00    +0.000 OA
BRANCH  12  14
ATOM     14  O   UNL     1       2.236   9.591  17.265  0.00  0.00    +0.000 OA
ATOM     15  H   UNL     1       2.764  10.414  17.177  0.00  0.00    +0.000 HD
ENDBRANCH  12  14
ENDBRANCH   9  12
ENDBRANCH   6   7
BRANCH   1  18
ATOM     16  C   UNL     1       6.014   5.467  18.762  0.00  0.00    +0.000 C 
ATOM     17  O   UNL     1       6.533   5.246  19.855  0.00  0.00    +0.000 OA
ATOM     18  N   UNL     1       4.736   5.050  18.469  0.00  0.00    +0.000 N 
ATOM     19  H   UNL     1       4.373   5.202  17.536  0.00  0.00    +0.000 HD
BRANCH  16  20
ATOM     20  C   UNL     1       6.704   6.276  17.656  0.00  0.00    +0.000 C 
BRANCH  20  22
ATOM     21  C   UNL     1       8.055   8.467  17.743  0.00  0.00    +0.000 C 
ATOM     22  C   UNL     1       7.897   7.045  18.257  0.00  0.00    +0.000 C 
ENDBRANCH  20  22
BRANCH  20  23
ATOM     23  C   UNL     1       7.059   5.419  16.427  0.00  0.00    +0.000 C 
ATOM     24  C   UNL     1       6.008   5.408  15.325  0.00  0.00    +0.000 C 
ENDBRANCH  20  23
ENDBRANCH  16  20
ENDBRANCH   1  18
TORSDOF 7
ENDMDL
MODEL 7
REMARK VINA RESULT:      -6.8      1.977      4.589
REMARK  Name = 
REMARK  9 active torsions:
REMARK  status: ('A' for Active; 'I' for Inactive)
REMARK    1  A    between atoms: C_1  and  C_2
REMARK    2  A    between atoms: C_2  and  C_3
REMARK    3  A    between atoms: C_3  and  C_4
REMARK    4  A    between atoms: C_3  and  C_6
REMARK    5  A    between atoms: C_4  and  C_5
REMARK    6  A    between atoms: N_8  and  C_9
REMARK    7  A    between atoms: C_14  and  N_15
REMARK    8  A    between atoms: C_17  and  C_18
REMARK    9  A    between atoms: C_18  and  O_20
REMARK                            x       y       z     vdW  Elec       q    Type
REMARK                         _______ _______ _______ _____ _____    ______ ____
ROOT
ATOM      1  C   UNL     1       4.377   4.953  16.602  0.00  0.00    +0.000 C 
ATOM      2  C   UNL     1       5.508   4.362  15.747  0.00  0.00    +0.000 C 
ATOM      3  C   UNL     1       6.851   4.396  16.474  0.00  0.00    +0.000 C 
ATOM      4  C   UNL     1       7.211   5.815  16.905  0.00  0.00    +0.000 C 
ATOM      5  C   UNL     1       6.108   6.455  17.745  0.00  0.00    +0.000 C 
ATOM      6  C   UNL     1       4.734   6.388  17.050  0.00  0.00    +0.000 C 
ENDROOT
BRANCH   6   7
ATOM      7  N   UNL     1       3.667   6.986  17.843  0.00  0.00    +0.000 N 
ATOM      8  C   UNL     1       2.927   8.092  17.544  0.00  0.00    +0.000 A 
ATOM      9  C   UNL     1       2.112   8.256  18.644  0.00  0.00    +0.000 A 
ATOM     10  N   UNL     1       2.367   7.250  19.546  0.00  0.00    +0.000 NA
ATOM     11  N   UNL     1       3.311   6.474  19.040  0.00  0.00    +0.000 NA
BRANCH   9  12
ATOM     12  C   UNL     1       1.130   9.294  18.895  0.00  0.00    +0.000 C 
ATOM     13  O   UNL     1       0.680   9.562  19.999  0.00  0.00    +0.000 OA
BRANCH  12  14
ATOM     14  O   UNL     1       0.735   9.943  17.768  0.00  0.00    +0.000 OA
ATOM     15  H   UNL     1       0.291  10.784  18.009  0.00  0.00    +0.000 HD
ENDBRANCH  12  14
ENDBRANCH   9  12
ENDBRANCH   6   7
BRANCH   1  18
ATOM     16  C   UNL     1       2.930   3.289  17.735  0.00  0.00    +0.000 C 
ATOM     17  O   UNL     1       2.127   3.302  16.804  0.00  0.00    +0.000 OA
ATOM     18  N   UNL     1       4.066   4.066  17.724  0.00  0.00    +0.000 N 
ATOM     19  H   UNL     1       4.728   3.977  18.485  0.00  0.00    +0.000 HD
BRANCH  16  20
ATOM     20  C   UNL     1       2.716   2.470  19.015  0.00  0.00    +0.000 C 
BRANCH  20  22
ATOM     21  C   UNL     1       4.707   1.749  20.481  0.00  0.00    +0.000 C 
ATOM     22  C   UNL     1       3.774   2.873  20.061  0.00  0.00    +0.000 C 
ENDBRANCH  20  22
BRANCH  20  23
ATOM     23  C   UNL     1       1.265   2.537  19.527  0.00  0.00    +0.000 C 
ATOM     24  C   UNL     1       0.930   3.773  20.350  0.00  0.00    +0.000 C 
ENDBRANCH  20  23
ENDBRANCH  16  20
ENDBRANCH   1  18
TORSDOF 7
ENDMDL
MODEL 8
REMARK VINA RESULT:      -6.8      2.060      5.450
REMARK  Name = 
REMARK  9 active torsions:
REMARK  status: ('A' for Active; 'I' for Inactive)
REMARK    1  A    between atoms: C_1  and  C_2
REMARK    2  A    between atoms: C_2  and  C_3
REMARK    3  A    between atoms: C_3  and  C_4
REMARK    4  A    between atoms: C_3  and  C_6
REMARK    5  A    between atoms: C_4  and  C_5
REMARK    6  A    between atoms: N_8  and  C_9
REMARK    7  A    between atoms: C_14  and  N_15
REMARK    8  A    between atoms: C_17  and  C_18
REMARK    9  A    between atoms: C_18  and  O_20
REMARK                            x       y       z     vdW  Elec       q    Type
REMARK                         _______ _______ _______ _____ _____    ______ ____
ROOT
ATOM      1  C   UNL     1       2.608   4.807  18.151  0.00  0.00    +0.000 C 
ATOM      2  C   UNL     1       1.347   3.942  18.005  0.00  0.00    +0.000 C 
ATOM      3  C   UNL     1       1.001   3.214  19.303  0.00  0.00    +0.000 C 
ATOM      4  C   UNL     1       2.167   2.357  19.784  0.00  0.00    +0.000 C 
ATOM      5  C   UNL     1       3.453   3.168  19.928  0.00  0.00    +0.000 C 
ATOM      6  C   UNL     1       3.794   3.950  18.645  0.00  0.00    +0.000 C 
ENDROOT
BRANCH   6   7
ATOM      7  N   UNL     1       5.015   4.739  18.769  0.00  0.00    +0.000 N 
ATOM      8  C   UNL     1       5.528   5.626  17.870  0.00  0.00    +0.000 A 
ATOM      9  C   UNL     1       6.710   6.039  18.446  0.00  0.00    +0.000 A 
ATOM     10  N   UNL     1       6.860   5.416  19.662  0.00  0.00    +0.000 NA
ATOM     11  N   UNL     1       5.811   4.632  19.854  0.00  0.00    +0.000 NA
BRANCH   9  12
ATOM     12  C   UNL     1       7.697   6.965  17.921  0.00  0.00    +0.000 C 
ATOM     13  O   UNL     1       7.783   7.284  16.746  0.00  0.00    +0.000 OA
BRANCH  12  14
ATOM     14  O   UNL     1       8.544   7.441  18.872  0.00  0.00    +0.000 OA
ATOM     15  H   UNL     1       8.060   7.559  19.717  0.00  0.00    +0.000 HD
ENDBRANCH  12  14
ENDBRANCH   9  12
ENDBRANCH   6   7
BRANCH   1  18
ATOM     16  C   UNL     1       2.217   7.231  18.496  0.00  0.00    +0.000 C 
ATOM     17  O   UNL     1       2.322   7.454  17.291  0.00  0.00    +0.000 OA
ATOM     18  N   UNL     1       2.340   5.962  19.011  0.00  0.00    +0.000 N 
ATOM     19  H   UNL     1       2.187   5.817  20.001  0.00  0.00    +0.000 HD
BRANCH  16  20
ATOM     20  C   UNL     1       2.009   8.338  19.538  0.00  0.00    +0.000 C 
BRANCH  20  22
ATOM     21  C   UNL     1       1.919  10.621  18.348  0.00  0.00    +0.000 C 
ATOM     22  C   UNL     1       1.137   9.454  18.928  0.00  0.00    +0.000 C 
ENDBRANCH  20  22
BRANCH  20  23
ATOM     23  C   UNL     1       1.491   7.797  20.883  0.00  0.00    +0.000 C 
ATOM     24  C   UNL     1       1.160   8.862  21.920  0.00  0.00    +0.000 C 
ENDBRANCH  20  23
ENDBRANCH  16  20
ENDBRANCH   1  18
TORSDOF 7
ENDMDL
MODEL 9
REMARK VINA RESULT:      -6.4      2.382      5.638
REMARK  Name = 
REMARK  9 active torsions:
REMARK  status: ('A' for Active; 'I' for Inactive)
REMARK    1  A    between atoms: C_1  and  C_2
REMARK    2  A    between atoms: C_2  and  C_3
REMARK    3  A    between atoms: C_3  and  C_4
REMARK    4  A    between atoms: C_3  and  C_6
REMARK    5  A    between atoms: C_4  and  C_5
REMARK    6  A    between atoms: N_8  and  C_9
REMARK    7  A    between atoms: C_14  and  N_15
REMARK    8  A    between atoms: C_17  and  C_18
REMARK    9  A    between atoms: C_18  and  O_20
REMARK                            x       y       z     vdW  Elec       q    Type
REMARK                         _______ _______ _______ _____ _____    ______ ____
ROOT
ATOM      1  C   UNL     1       2.106   3.863  19.112  0.00  0.00    +0.000 C 
ATOM      2  C   UNL     1       0.934   3.135  19.788  0.00  0.00    +0.000 C 
ATOM      3  C   UNL     1       1.174   2.933  21.283  0.00  0.00    +0.000 C 
ATOM      4  C   UNL     1       2.475   2.178  21.537  0.00  0.00    +0.000 C 
ATOM      5  C   UNL     1       3.670   2.854  20.870  0.00  0.00    +0.000 C 
ATOM      6  C   UNL     1       3.429   3.110  19.370  0.00  0.00    +0.000 C 
ENDROOT
BRANCH   6   7
ATOM      7  N   UNL     1       4.558   3.764  18.718  0.00  0.00    +0.000 N 
ATOM      8  C   UNL     1       4.743   3.971  17.382  0.00  0.00    +0.000 A 
ATOM      9  C   UNL     1       5.984   4.568  17.306  0.00  0.00    +0.000 A 
ATOM     10  N   UNL     1       6.489   4.719  18.575  0.00  0.00    +0.000 NA
ATOM     11  N   UNL     1       5.603   4.234  19.431  0.00  0.00    +0.000 NA
BRANCH   9  12
ATOM     12  C   UNL     1       6.714   4.989  16.124  0.00  0.00    +0.000 C 
ATOM     13  O   UNL     1       7.829   4.589  15.828  0.00  0.00    +0.000 OA
BRANCH  12  14
ATOM     14  O   UNL     1       6.039   5.897  15.372  0.00  0.00    +0.000 OA
ATOM     15  H   UNL     1       6.675   6.509  14.943  0.00  0.00    +0.000 HD
ENDBRANCH  12  14
ENDBRANCH   9  12
ENDBRANCH   6   7
BRANCH   1  18
ATOM     16  C   UNL     1       2.108   6.296  18.630  0.00  0.00    +0.000 C 
ATOM     17  O   UNL     1       2.022   6.091  17.420  0.00  0.00    +0.000 OA
ATOM     18  N   UNL     1       2.153   5.263  19.538  0.00  0.00    +0.000 N 
ATOM     19  H   UNL     1       2.162   5.480  20.527  0.00  0.00    +0.000 HD
BRANCH  16  20
ATOM     20  C   UNL     1       2.238   7.699  19.235  0.00  0.00    +0.000 C 
BRANCH  20  22
ATOM     21  C   UNL     1       2.220   9.946  17.974  0.00  0.00    +0.000 C 
ATOM     22  C   UNL     1       1.444   8.701  18.373  0.00  0.00    +0.000 C 
ENDBRANCH  20  22
BRANCH  20  23
ATOM     23  C   UNL     1       1.884   7.736  20.733  0.00  0.00    +0.000 C 
ATOM     24  C   UNL     1       0.686   8.604  21.090  0.00  0.00    +0.000 C 
ENDBRANCH  20  23
ENDBRANCH  16  20
ENDBRANCH   1  18
TORSDOF 7
ENDMDL
