MODEL 1
REMARK VINA RESULT:      -6.0      0.000      0.000
REMARK  Name = 
REMARK  9 active torsions:
REMARK  status: ('A' for Active; 'I' for Inactive)
REMARK    1  A    between atoms: C_1  and  C_2
REMARK    2  A    between atoms: C_2  and  O_3
REMARK    3  A    between atoms: O_3  and  C_4
REMARK    4  A    between atoms: C_4  and  C_6
REMARK    5  A    between atoms: C_8  and  N_9
REMARK    6  A    between atoms: N_9  and  C_10
REMARK    7  A    between atoms: N_9  and  C_13
REMARK    8  A    between atoms: C_10  and  C_11
REMARK    9  A    between atoms: C_13  and  C_14
REMARK                            x       y       z     vdW  Elec       q    Type
REMARK                         _______ _______ _______ _____ _____    ______ ____
ROOT
ATOM      1  C   UNL     1       6.480   4.704  15.946  0.00  0.00    +0.000 C 
ATOM      2  C   UNL     1       5.893   5.960  16.584  0.00  0.00    +0.000 C 
ATOM      3  C   UNL     1       6.142   5.762  18.085  0.00  0.00    +0.000 C 
ATOM      4  C   UNL     1       7.403   4.860  18.108  0.00  0.00    +0.000 C 
ATOM      5  N   UNL     1       7.735   4.567  16.714  0.00  0.00    +0.000 NA
ATOM      6  H   UNL     1       8.115   3.629  16.594  0.00  0.00    +0.000 HD
ENDROOT
BRANCH   1   7
ATOM      7  C   UNL     1       6.762   4.817  14.455  0.00  0.00    +0.000 C 
ATOM      8  O   UNL     1       7.721   5.397  13.977  0.00  0.00    +0.000 OA
BRANCH   7   9
ATOM      9  O   UNL     1       5.797   4.179  13.743  0.00  0.00    +0.000 OA
BRANCH   9  11
ATOM     10  C   UNL     1       5.065   3.094  11.758  0.00  0.00    +0.000 C 
ATOM     11  C   UNL     1       6.281   3.527  12.565  0.00  0.00    +0.000 C 
ENDBRANCH   9  11
ENDBRANCH   7   9
ENDBRANCH   1   7
BRANCH   3  12
ATOM     12  N   UNL     1       4.963   5.273  18.863  0.00  0.00    +0.000 NA
BRANCH  12  13
ATOM     13  C   UNL     1       3.680   5.822  18.345  0.00  0.00    +0.000 C 
BRANCH  13  14
ATOM     14  C   UNL     1       2.729   6.505  19.335  0.00  0.00    +0.000 C 
ATOM     15 CL   UNL     1       1.948   5.263  20.363  0.00  0.00    +0.000 Cl
ENDBRANCH  13  14
ENDBRANCH  12  13
BRANCH  12  16
ATOM     16  C   UNL     1       4.924   3.790  18.908  0.00  0.00    +0.000 C 
BRANCH  16  17
ATOM     17  C   UNL     1       3.920   3.115  17.962  0.00  0.00    +0.000 C 
ATOM     18 CL   UNL     1       3.359   1.575  18.672  0.00  0.00    +0.000 Cl
ENDBRANCH  16  17
ENDBRANCH  12  16
ENDBRANCH   3  12
TORSDOF 8
ENDMDL
MODEL 2
REMARK VINA RESULT:      -6.0      2.027      2.544
REMARK  Name = 
REMARK  9 active torsions:
REMARK  status: ('A' for Active; 'I' for Inactive)
REMARK    1  A    between atoms: C_1  and  C_2
REMARK    2  A    between atoms: C_2  and  O_3
REMARK    3  A    between atoms: O_3  and  C_4
REMARK    4  A    between atoms: C_4  and  C_6
REMARK    5  A    between atoms: C_8  and  N_9
REMARK    6  A    between atoms: N_9  and  C_10
REMARK    7  A    between atoms: N_9  and  C_13
REMARK    8  A    between atoms: C_10  and  C_11
REMARK    9  A    between atoms: C_13  and  C_14
REMARK                            x       y       z     vdW  Elec       q    Type
REMARK                         _______ _______ _______ _____ _____    ______ ____
ROOT
ATOM      1  C   UNL     1       6.445   5.043  15.583  0.00  0.00    +0.000 C 
ATOM      2  C   UNL     1       5.614   3.887  16.132  0.00  0.00    +0.000 C 
ATOM      3  C   UNL     1       4.899   4.492  17.347  0.00  0.00    +0.000 C 
ATOM      4  C   UNL     1       4.800   5.994  16.976  0.00  0.00    +0.000 C 
ATOM      5  N   UNL     1       5.475   6.153  15.688  0.00  0.00    +0.000 NA
ATOM      6  H   UNL     1       5.960   7.047  15.611  0.00  0.00    +0.000 HD
ENDROOT
BRANCH   1   7
ATOM      7  C   UNL     1       6.917   4.865  14.147  0.00  0.00    +0.000 C 
ATOM      8  O   UNL     1       7.859   5.458  13.653  0.00  0.00    +0.000 OA
BRANCH   7   9
ATOM      9  O   UNL     1       6.142   3.952  13.506  0.00  0.00    +0.000 OA
BRANCH   9  11
ATOM     10  C   UNL     1       5.669   2.544  11.649  0.00  0.00    +0.000 C 
ATOM     11  C   UNL     1       6.636   3.573  12.217  0.00  0.00    +0.000 C 
ENDBRANCH   9  11
ENDBRANCH   7   9
ENDBRANCH   1   7
BRANCH   3  12
ATOM     12  N   UNL     1       5.521   4.176  18.669  0.00  0.00    +0.000 NA
BRANCH  12  13
ATOM     13  C   UNL     1       6.106   5.383  19.318  0.00  0.00    +0.000 C 
BRANCH  13  14
ATOM     14  C   UNL     1       7.623   5.593  19.226  0.00  0.00    +0.000 C 
ATOM     15 CL   UNL     1       7.961   7.088  18.299  0.00  0.00    +0.000 Cl
ENDBRANCH  13  14
ENDBRANCH  12  13
BRANCH  12  16
ATOM     16  C   UNL     1       4.555   3.506  19.575  0.00  0.00    +0.000 C 
BRANCH  16  17
ATOM     17  C   UNL     1       3.893   2.232  19.026  0.00  0.00    +0.000 C 
ATOM     18 CL   UNL     1       2.116   2.399  19.089  0.00  0.00    +0.000 Cl
ENDBRANCH  16  17
ENDBRANCH  12  16
ENDBRANCH   3  12
TORSDOF 8
ENDMDL
MODEL 3
REMARK VINA RESULT:      -5.9      1.921      2.603
REMARK  Name = 
REMARK  9 active torsions:
REMARK  status: ('A' for Active; 'I' for Inactive)
REMARK    1  A    between atoms: C_1  and  C_2
REMARK    2  A    between atoms: C_2  and  O_3
REMARK    3  A    between atoms: O_3  and  C_4
REMARK    4  A    between atoms: C_4  and  C_6
REMARK    5  A    between atoms: C_8  and  N_9
REMARK    6  A    between atoms: N_9  and  C_10
REMARK    7  A    between atoms: N_9  and  C_13
REMARK    8  A    between atoms: C_10  and  C_11
REMARK    9  A    between atoms: C_13  and  C_14
REMARK                            x       y       z     vdW  Elec       q    Type
REMARK                         _______ _______ _______ _____ _____    ______ ____
ROOT
ATOM      1  C   UNL     1       5.671   4.768  17.356  0.00  0.00    +0.000 C 
ATOM      2  C   UNL     1       4.393   4.304  16.663  0.00  0.00    +0.000 C 
ATOM      3  C   UNL     1       3.275   4.750  17.614  0.00  0.00    +0.000 C 
ATOM      4  C   UNL     1       3.897   5.979  18.324  0.00  0.00    +0.000 C 
ATOM      5  N   UNL     1       5.262   6.112  17.815  0.00  0.00    +0.000 NA
ATOM      6  H   UNL     1       5.911   6.449  18.525  0.00  0.00    +0.000 HD
ENDROOT
BRANCH   1   7
ATOM      7  C   UNL     1       6.894   4.848  16.455  0.00  0.00    +0.000 C 
ATOM      8  O   UNL     1       7.991   4.403  16.741  0.00  0.00    +0.000 OA
BRANCH   7   9
ATOM      9  O   UNL     1       6.583   5.478  15.293  0.00  0.00    +0.000 OA
BRANCH   9  11
ATOM     10  C   UNL     1       6.188   3.885  13.572  0.00  0.00    +0.000 C 
ATOM     11  C   UNL     1       7.183   4.891  14.134  0.00  0.00    +0.000 C 
ENDBRANCH   9  11
ENDBRANCH   7   9
ENDBRANCH   1   7
BRANCH   3  12
ATOM     12  N   UNL     1       2.734   3.676  18.502  0.00  0.00    +0.000 NA
BRANCH  12  13
ATOM     13  C   UNL     1       1.339   3.958  18.941  0.00  0.00    +0.000 C 
BRANCH  13  14
ATOM     14  C   UNL     1       0.937   3.581  20.372  0.00  0.00    +0.000 C 
ATOM     15 CL   UNL     1       2.200   4.140  21.512  0.00  0.00    +0.000 Cl
ENDBRANCH  13  14
ENDBRANCH  12  13
BRANCH  12  16
ATOM     16  C   UNL     1       2.825   2.343  17.855  0.00  0.00    +0.000 C 
BRANCH  16  17
ATOM     17  C   UNL     1       3.693   1.303  18.578  0.00  0.00    +0.000 C 
ATOM     18 CL   UNL     1       4.495   2.057  19.985  0.00  0.00    +0.000 Cl
ENDBRANCH  16  17
ENDBRANCH  12  16
ENDBRANCH   3  12
TORSDOF 8
ENDMDL
MODEL 4
REMARK VINA RESULT:      -5.9      2.750      3.791
REMARK  Name = 
REMARK  9 active torsions:
REMARK  status: ('A' for Active; 'I' for Inactive)
REMARK    1  A    between atoms: C_1  and  C_2
REMARK    2  A    between atoms: C_2  and  O_3
REMARK    3  A    between atoms: O_3  and  C_4
REMARK    4  A    between atoms: C_4  and  C_6
REMARK    5  A    between atoms: C_8  and  N_9
REMARK    6  A    between atoms: N_9  and  C_10
REMARK    7  A    between atoms: N_9  and  C_13
REMARK    8  A    between atoms: C_10  and  C_11
REMARK    9  A    between atoms: C_13  and  C_14
REMARK                            x       y       z     vdW  Elec       q    Type
REMARK                         _______ _______ _______ _____ _____    ______ ____
ROOT
ATOM      1  C   UNL     1       5.859   5.133  17.577  0.00  0.00    +0.000 C 
ATOM      2  C   UNL     1       5.674   4.660  19.016  0.00  0.00    +0.000 C 
ATOM      3  C   UNL     1       4.189   4.282  19.092  0.00  0.00    +0.000 C 
ATOM      4  C   UNL     1       3.858   3.889  17.630  0.00  0.00    +0.000 C 
ATOM      5  N   UNL     1       5.075   4.112  16.850  0.00  0.00    +0.000 NA
ATOM      6  H   UNL     1       4.877   4.435  15.904  0.00  0.00    +0.000 HD
ENDROOT
BRANCH   1   7
ATOM      7  C   UNL     1       7.301   5.160  17.094  0.00  0.00    +0.000 C 
ATOM      8  O   UNL     1       8.062   4.210  17.142  0.00  0.00    +0.000 OA
BRANCH   7   9
ATOM      9  O   UNL     1       7.611   6.388  16.602  0.00  0.00    +0.000 OA
BRANCH   9  11
ATOM     10  C   UNL     1       8.060   8.387  17.810  0.00  0.00    +0.000 C 
ATOM     11  C   UNL     1       6.966   7.467  17.285  0.00  0.00    +0.000 C 
ENDBRANCH   9  11
ENDBRANCH   7   9
ENDBRANCH   1   7
BRANCH   3  12
ATOM     12  N   UNL     1       3.305   5.315  19.716  0.00  0.00    +0.000 NA
BRANCH  12  13
ATOM     13  C   UNL     1       2.502   6.053  18.704  0.00  0.00    +0.000 C 
BRANCH  13  14
ATOM     14  C   UNL     1       3.065   7.366  18.146  0.00  0.00    +0.000 C 
ATOM     15 CL   UNL     1       1.716   8.484  17.778  0.00  0.00    +0.000 Cl
ENDBRANCH  13  14
ENDBRANCH  12  13
BRANCH  12  16
ATOM     16  C   UNL     1       2.428   4.718  20.754  0.00  0.00    +0.000 C 
BRANCH  16  17
ATOM     17  C   UNL     1       1.006   4.350  20.303  0.00  0.00    +0.000 C 
ATOM     18 CL   UNL     1       0.991   2.689  19.646  0.00  0.00    +0.000 Cl
ENDBRANCH  16  17
ENDBRANCH  12  16
ENDBRANCH   3  12
TORSDOF 8
ENDMDL
MODEL 5
REMARK VINA RESULT:      -5.9      1.514      1.737
REMARK  Name = 
REMARK  9 active torsions:
REMARK  status: ('A' for Active; 'I' for Inactive)
REMARK    1  A    between atoms: C_1  and  C_2
REMARK    2  A    between atoms: C_2  and  O_3
REMARK    3  A    between atoms: O_3  and  C_4
REMARK    4  A    between atoms: C_4  and  C_6
REMARK    5  A    between atoms: C_8  and  N_9
REMARK    6  A    between atoms: N_9  and  C_10
REMARK    7  A    between atoms: N_9  and  C_13
REMARK    8  A    between atoms: C_10  and  C_11
REMARK    9  A    between atoms: C_13  and  C_14
REMARK                            x       y       z     vdW  Elec       q    Type
REMARK                         _______ _______ _______ _____ _____    ______ ____
ROOT
ATOM      1  C   UNL     1       5.922   4.295  16.792  0.00  0.00    +0.000 C 
ATOM      2  C   UNL     1       4.846   5.342  17.069  0.00  0.00    +0.000 C 
ATOM      3  C   UNL     1       4.573   5.203  18.572  0.00  0.00    +0.000 C 
ATOM      4  C   UNL     1       5.921   4.669  19.119  0.00  0.00    +0.000 C 
ATOM      5  N   UNL     1       6.801   4.490  17.964  0.00  0.00    +0.000 NA
ATOM      6  H   UNL     1       7.422   3.688  18.069  0.00  0.00    +0.000 HD
ENDROOT
BRANCH   1   7
ATOM      7  C   UNL     1       6.690   4.495  15.494  0.00  0.00    +0.000 C 
ATOM      8  O   UNL     1       7.480   5.401  15.294  0.00  0.00    +0.000 OA
BRANCH   7   9
ATOM      9  O   UNL     1       6.370   3.522  14.602  0.00  0.00    +0.000 OA
BRANCH   9  11
ATOM     10  C   UNL     1       6.363   3.453  12.225  0.00  0.00    +0.000 C 
ATOM     11  C   UNL     1       5.653   3.995  13.458  0.00  0.00    +0.000 C 
ENDBRANCH   9  11
ENDBRANCH   7   9
ENDBRANCH   1   7
BRANCH   3  12
ATOM     12  N   UNL     1       3.355   4.408  18.922  0.00  0.00    +0.000 NA
BRANCH  12  13
ATOM     13  C   UNL     1       2.467   5.130  19.874  0.00  0.00    +0.000 C 
BRANCH  13  14
ATOM     14  C   UNL     1       2.160   4.470  21.224  0.00  0.00    +0.000 C 
ATOM     15 CL   UNL     1       1.119   3.037  20.962  0.00  0.00    +0.000 Cl
ENDBRANCH  13  14
ENDBRANCH  12  13
BRANCH  12  16
ATOM     16  C   UNL     1       2.608   4.002  17.706  0.00  0.00    +0.000 C 
BRANCH  16  17
ATOM     17  C   UNL     1       2.297   2.503  17.577  0.00  0.00    +0.000 C 
ATOM     18 CL   UNL     1       3.562   1.551  18.404  0.00  0.00    +0.000 Cl
ENDBRANCH  16  17
ENDBRANCH  12  16
ENDBRANCH   3  12
TORSDOF 8
ENDMDL
MODEL 6
REMARK VINA RESULT:      -5.9      2.024      3.387
REMARK  Name = 
REMARK  9 active torsions:
REMARK  status: ('A' for Active; 'I' for Inactive)
REMARK    1  A    between atoms: C_1  and  C_2
REMARK    2  A    between atoms: C_2  and  O_3
REMARK    3  A    between atoms: O_3  and  C_4
REMARK    4  A    between atoms: C_4  and  C_6
REMARK    5  A    between atoms: C_8  and  N_9
REMARK    6  A    between atoms: N_9  and  C_10
REMARK    7  A    between atoms: N_9  and  C_13
REMARK    8  A    between atoms: C_10  and  C_11
REMARK    9  A    between atoms: C_13  and  C_14
REMARK                            x       y       z     vdW  Elec       q    Type
REMARK                         _______ _______ _______ _____ _____    ______ ____
ROOT
ATOM      1  C   UNL     1       5.551   4.583  17.497  0.00  0.00    +0.000 C 
ATOM      2  C   UNL     1       5.095   5.792  18.308  0.00  0.00    +0.000 C 
ATOM      3  C   UNL     1       4.181   5.192  19.384  0.00  0.00    +0.000 C 
ATOM      4  C   UNL     1       4.741   3.757  19.549  0.00  0.00    +0.000 C 
ATOM      5  N   UNL     1       5.826   3.614  18.579  0.00  0.00    +0.000 NA
ATOM      6  H   UNL     1       5.884   2.672  18.195  0.00  0.00    +0.000 HD
ENDROOT
BRANCH   1   7
ATOM      7  C   UNL     1       6.789   4.815  16.644  0.00  0.00    +0.000 C 
ATOM      8  O   UNL     1       7.908   4.430  16.934  0.00  0.00    +0.000 OA
BRANCH   7   9
ATOM      9  O   UNL     1       6.464   5.505  15.519  0.00  0.00    +0.000 OA
BRANCH   9  11
ATOM     10  C   UNL     1       5.990   3.901  13.829  0.00  0.00    +0.000 C 
ATOM     11  C   UNL     1       6.993   4.937  14.317  0.00  0.00    +0.000 C 
ENDBRANCH   9  11
ENDBRANCH   7   9
ENDBRANCH   1   7
BRANCH   3  12
ATOM     12  N   UNL     1       2.717   5.304  19.104  0.00  0.00    +0.000 NA
BRANCH  12  13
ATOM     13  C   UNL     1       2.067   3.971  18.972  0.00  0.00    +0.000 C 
BRANCH  13  14
ATOM     14  C   UNL     1       0.895   3.638  19.904  0.00  0.00    +0.000 C 
ATOM     15 CL   UNL     1       1.512   2.792  21.357  0.00  0.00    +0.000 Cl
ENDBRANCH  13  14
ENDBRANCH  12  13
BRANCH  12  16
ATOM     16  C   UNL     1       2.031   6.127  20.131  0.00  0.00    +0.000 C 
BRANCH  16  17
ATOM     17  C   UNL     1       2.029   7.643  19.885  0.00  0.00    +0.000 C 
ATOM     18 CL   UNL     1       1.186   8.472  21.224  0.00  0.00    +0.000 Cl
ENDBRANCH  16  17
ENDBRANCH  12  16
ENDBRANCH   3  12
TORSDOF 8
ENDMDL
MODEL 7
REMARK VINA RESULT:      -5.9      2.670      3.685
REMARK  Name = 
REMARK  9 active torsions:
REMARK  status: ('A' for Active; 'I' for Inactive)
REMARK    1  A    between atoms: C_1  and  C_2
REMARK    2  A    between atoms: C_2  and  O_3
REMARK    3  A    between atoms: O_3  and  C_4
REMARK    4  A    between atoms: C_4  and  C_6
REMARK    5  A    between atoms: C_8  and  N_9
REMARK    6  A    between atoms: N_9  and  C_10
REMARK    7  A    between atoms: N_9  and  C_13
REMARK    8  A    between atoms: C_10  and  C_11
REMARK    9  A    between atoms: C_13  and  C_14
REMARK                            x       y       z     vdW  Elec       q    Type
REMARK                         _______ _______ _______ _____ _____    ______ ____
ROOT
ATOM      1  C   UNL     1       5.811   4.703  17.320  0.00  0.00    +0.000 C 
ATOM      2  C   UNL     1       5.460   4.340  18.760  0.00  0.00    +0.000 C 
ATOM      3  C   UNL     1       4.073   3.694  18.651  0.00  0.00    +0.000 C 
ATOM      4  C   UNL     1       4.078   3.110  17.215  0.00  0.00    +0.000 C 
ATOM      5  N   UNL     1       5.356   3.487  16.612  0.00  0.00    +0.000 NA
ATOM      6  H   UNL     1       5.275   3.676  15.614  0.00  0.00    +0.000 HD
ENDROOT
BRANCH   1   7
ATOM      7  C   UNL     1       7.289   4.961  17.067  0.00  0.00    +0.000 C 
ATOM      8  O   UNL     1       8.186   4.205  17.396  0.00  0.00    +0.000 OA
BRANCH   7   9
ATOM      9  O   UNL     1       7.458   6.145  16.424  0.00  0.00    +0.000 OA
BRANCH   9  11
ATOM     10  C   UNL     1       7.978   7.827  18.022  0.00  0.00    +0.000 C 
ATOM     11  C   UNL     1       6.894   7.266  17.112  0.00  0.00    +0.000 C 
ENDBRANCH   9  11
ENDBRANCH   7   9
ENDBRANCH   1   7
BRANCH   3  12
ATOM     12  N   UNL     1       2.928   4.591  18.997  0.00  0.00    +0.000 NA
BRANCH  12  13
ATOM     13  C   UNL     1       2.706   5.642  17.965  0.00  0.00    +0.000 C 
BRANCH  13  14
ATOM     14  C   UNL     1       2.880   7.110  18.374  0.00  0.00    +0.000 C 
ATOM     15 CL   UNL     1       2.125   7.375  19.976  0.00  0.00    +0.000 Cl
ENDBRANCH  13  14
ENDBRANCH  12  13
BRANCH  12  16
ATOM     16  C   UNL     1       1.687   3.815  19.236  0.00  0.00    +0.000 C 
BRANCH  16  17
ATOM     17  C   UNL     1       1.104   3.900  20.655  0.00  0.00    +0.000 C 
ATOM     18 CL   UNL     1       1.988   2.790  21.740  0.00  0.00    +0.000 Cl
ENDBRANCH  16  17
ENDBRANCH  12  16
ENDBRANCH   3  12
TORSDOF 8
ENDMDL
MODEL 8
REMARK VINA RESULT:      -5.8      2.834      4.332
REMARK  Name = 
REMARK  9 active torsions:
REMARK  status: ('A' for Active; 'I' for Inactive)
REMARK    1  A    between atoms: C_1  and  C_2
REMARK    2  A    between atoms: C_2  and  O_3
REMARK    3  A    between atoms: O_3  and  C_4
REMARK    4  A    between atoms: C_4  and  C_6
REMARK    5  A    between atoms: C_8  and  N_9
REMARK    6  A    between atoms: N_9  and  C_10
REMARK    7  A    between atoms: N_9  and  C_13
REMARK    8  A    between atoms: C_10  and  C_11
REMARK    9  A    between atoms: C_13  and  C_14
REMARK                            x       y       z     vdW  Elec       q    Type
REMARK                         _______ _______ _______ _____ _____    ______ ____
ROOT
ATOM      1  C   UNL     1       6.036   4.875  17.863  0.00  0.00    +0.000 C 
ATOM      2  C   UNL     1       5.365   4.060  18.965  0.00  0.00    +0.000 C 
ATOM      3  C   UNL     1       4.005   3.679  18.367  0.00  0.00    +0.000 C 
ATOM      4  C   UNL     1       4.291   3.664  16.843  0.00  0.00    +0.000 C 
ATOM      5  N   UNL     1       5.686   4.070  16.674  0.00  0.00    +0.000 NA
ATOM      6  H   UNL     1       5.831   4.620  15.828  0.00  0.00    +0.000 HD
ENDROOT
BRANCH   1   7
ATOM      7  C   UNL     1       7.544   5.018  18.002  0.00  0.00    +0.000 C 
ATOM      8  O   UNL     1       8.343   4.124  17.788  0.00  0.00    +0.000 OA
BRANCH   7   9
ATOM      9  O   UNL     1       7.865   6.279  18.391  0.00  0.00    +0.000 OA
BRANCH   9  11
ATOM     10  C   UNL     1       8.101   8.594  17.897  0.00  0.00    +0.000 C 
ATOM     11  C   UNL     1       7.411   7.298  17.494  0.00  0.00    +0.000 C 
ENDBRANCH   9  11
ENDBRANCH   7   9
ENDBRANCH   1   7
BRANCH   3  12
ATOM     12  N   UNL     1       2.857   4.525  18.816  0.00  0.00    +0.000 NA
BRANCH  12  13
ATOM     13  C   UNL     1       2.941   4.863  20.264  0.00  0.00    +0.000 C 
BRANCH  13  14
ATOM     14  C   UNL     1       1.982   4.159  21.232  0.00  0.00    +0.000 C 
ATOM     15 CL   UNL     1       0.993   2.970  20.329  0.00  0.00    +0.000 Cl
ENDBRANCH  13  14
ENDBRANCH  12  13
BRANCH  12  16
ATOM     16  C   UNL     1       2.737   5.754  17.993  0.00  0.00    +0.000 C 
BRANCH  16  17
ATOM     17  C   UNL     1       2.648   7.077  18.768  0.00  0.00    +0.000 C 
ATOM     18 CL   UNL     1       2.306   8.418  17.640  0.00  0.00    +0.000 Cl
ENDBRANCH  16  17
ENDBRANCH  12  16
ENDBRANCH   3  12
TORSDOF 8
ENDMDL
MODEL 9
REMARK VINA RESULT:      -5.8      1.979      2.918
REMARK  Name = 
REMARK  9 active torsions:
REMARK  status: ('A' for Active; 'I' for Inactive)
REMARK    1  A    between atoms: C_1  and  C_2
REMARK    2  A    between atoms: C_2  and  O_3
REMARK    3  A    between atoms: O_3  and  C_4
REMARK    4  A    between atoms: C_4  and  C_6
REMARK    5  A    between atoms: C_8  and  N_9
REMARK    6  A    between atoms: N_9  and  C_10
REMARK    7  A    between atoms: N_9  and  C_13
REMARK    8  A    between atoms: C_10  and  C_11
REMARK    9  A    between atoms: C_13  and  C_14
REMARK                            x       y       z     vdW  Elec       q    Type
REMARK                         _______ _______ _______ _____ _____    ______ ____
ROOT
ATOM      1  C   UNL     1       6.442   5.241  15.523  0.00  0.00    +0.000 C 
ATOM      2  C   UNL     1       5.511   4.210  16.154  0.00  0.00    +0.000 C 
ATOM      3  C   UNL     1       4.747   5.005  17.220  0.00  0.00    +0.000 C 
ATOM      4  C   UNL     1       4.760   6.446  16.649  0.00  0.00    +0.000 C 
ATOM      5  N   UNL     1       5.531   6.400  15.407  0.00  0.00    +0.000 NA
ATOM      6  H   UNL     1       6.070   7.251  15.251  0.00  0.00    +0.000 HD
ENDROOT
BRANCH   1   7
ATOM      7  C   UNL     1       7.002   4.850  14.164  0.00  0.00    +0.000 C 
ATOM      8  O   UNL     1       7.901   5.442  13.593  0.00  0.00    +0.000 OA
BRANCH   7   9
ATOM      9  O   UNL     1       6.362   3.751  13.688  0.00  0.00    +0.000 OA
BRANCH   9  11
ATOM     10  C   UNL     1       5.069   3.112  11.797  0.00  0.00    +0.000 C 
ATOM     11  C   UNL     1       6.430   3.608  12.266  0.00  0.00    +0.000 C 
ENDBRANCH   9  11
ENDBRANCH   7   9
ENDBRANCH   1   7
BRANCH   3  12
ATOM     12  N   UNL     1       5.257   4.842  18.616  0.00  0.00    +0.000 NA
BRANCH  12  13
ATOM     13  C   UNL     1       4.611   3.700  19.321  0.00  0.00    +0.000 C 
BRANCH  13  14
ATOM     14  C   UNL     1       3.189   3.302  18.906  0.00  0.00    +0.000 C 
ATOM     15 CL   UNL     1       3.238   1.730  18.049  0.00  0.00    +0.000 Cl
ENDBRANCH  13  14
ENDBRANCH  12  13
BRANCH  12  16
ATOM     16  C   UNL     1       6.735   4.710  18.639  0.00  0.00    +0.000 C 
BRANCH  16  17
ATOM     17  C   UNL     1       7.497   5.814  19.387  0.00  0.00    +0.000 C 
ATOM     18 CL   UNL     1       7.961   7.108  18.247  0.00  0.00    +0.000 Cl
ENDBRANCH  16  17
ENDBRANCH  12  16
ENDBRANCH   3  12
TORSDOF 8
ENDMDL
