MODEL 1
REMARK VINA RESULT:      -7.3      0.000      0.000
REMARK  Name = 
REMARK  4 active torsions:
REMARK  status: ('A' for Active; 'I' for Inactive)
REMARK    1  A    between atoms: O_1  and  C_2
REMARK    2  A    between atoms: C_7  and  C_8
REMARK    3  A    between atoms: N_9  and  C_10
REMARK    4  A    between atoms: C_12  and  C_13
REMARK                            x       y       z     vdW  Elec       q    Type
REMARK                         _______ _______ _______ _____ _____    ______ ____
ROOT
ATOM      1  C   UNL     1       4.350   4.741  17.471  0.00  0.00    +0.000 A 
ATOM      2  N   UNL     1       3.677   5.870  17.582  0.00  0.00    +0.000 NA
ATOM      3  C   UNL     1       3.183   6.027  18.870  0.00  0.00    +0.000 A 
ATOM      4  C   UNL     1       3.465   4.983  19.729  0.00  0.00    +0.000 A 
ATOM      5  S   UNL     1       4.407   3.805  18.929  0.00  0.00    +0.000 S 
ENDROOT
BRANCH   3   6
ATOM      6  C   UNL     1       2.398   7.195  19.249  0.00  0.00    +0.000 A 
ATOM      7  C   UNL     1       2.182   8.218  18.315  0.00  0.00    +0.000 A 
ATOM      8  C   UNL     1       1.426   9.343  18.654  0.00  0.00    +0.000 A 
ATOM      9  C   UNL     1       0.886   9.463  19.934  0.00  0.00    +0.000 A 
ATOM     10  C   UNL     1       1.100   8.458  20.874  0.00  0.00    +0.000 A 
ATOM     11  C   UNL     1       1.852   7.330  20.535  0.00  0.00    +0.000 A 
ENDBRANCH   3   6
BRANCH   1  13
ATOM     12  C   UNL     1       5.160   5.006  15.380  0.00  0.00    +0.000 C 
ATOM     13  N   UNL     1       4.970   4.215  16.387  0.00  0.00    +0.000 NA
BRANCH  12  19
ATOM     14  C   UNL     1       7.111   4.850  13.816  0.00  0.00    +0.000 A 
ATOM     15  C   UNL     1       7.690   4.380  12.634  0.00  0.00    +0.000 A 
ATOM     16  C   UNL     1       6.954   3.560  11.774  0.00  0.00    +0.000 A 
ATOM     17  C   UNL     1       5.645   3.207  12.094  0.00  0.00    +0.000 A 
ATOM     18  C   UNL     1       5.067   3.674  13.275  0.00  0.00    +0.000 A 
ATOM     19  C   UNL     1       5.797   4.500  14.142  0.00  0.00    +0.000 A 
BRANCH  14  20
ATOM     20  O   UNL     1       7.835   5.656  14.648  0.00  0.00    +0.000 OA
ATOM     21  H   UNL     1       8.616   5.173  14.965  0.00  0.00    +0.000 HD
ENDBRANCH  14  20
ENDBRANCH  12  19
ENDBRANCH   1  13
TORSDOF 4
ENDMDL
MODEL 2
REMARK VINA RESULT:      -7.3      3.333      7.794
REMARK  Name = 
REMARK  4 active torsions:
REMARK  status: ('A' for Active; 'I' for Inactive)
REMARK    1  A    between atoms: O_1  and  C_2
REMARK    2  A    between atoms: C_7  and  C_8
REMARK    3  A    between atoms: N_9  and  C_10
REMARK    4  A    between atoms: C_12  and  C_13
REMARK                            x       y       z     vdW  Elec       q    Type
REMARK                         _______ _______ _______ _____ _____    ______ ____
ROOT
ATOM      1  C   UNL     1       5.712   4.880  17.668  0.00  0.00    +0.000 A 
ATOM      2  N   UNL     1       5.643   4.428  16.431  0.00  0.00    +0.000 NA
ATOM      3  C   UNL     1       6.624   5.007  15.638  0.00  0.00    +0.000 A 
ATOM      4  C   UNL     1       7.421   5.930  16.284  0.00  0.00    +0.000 A 
ATOM      5  S   UNL     1       6.970   6.044  17.927  0.00  0.00    +0.000 S 
ENDROOT
BRANCH   3   6
ATOM      6  C   UNL     1       6.755   4.676  14.224  0.00  0.00    +0.000 A 
ATOM      7  C   UNL     1       5.933   3.688  13.663  0.00  0.00    +0.000 A 
ATOM      8  C   UNL     1       6.037   3.360  12.310  0.00  0.00    +0.000 A 
ATOM      9  C   UNL     1       6.970   4.008  11.503  0.00  0.00    +0.000 A 
ATOM     10  C   UNL     1       7.799   4.986  12.048  0.00  0.00    +0.000 A 
ATOM     11  C   UNL     1       7.693   5.318  13.402  0.00  0.00    +0.000 A 
ENDBRANCH   3   6
BRANCH   1  13
ATOM     12  C   UNL     1       3.957   3.754  18.535  0.00  0.00    +0.000 C 
ATOM     13  N   UNL     1       4.933   4.581  18.736  0.00  0.00    +0.000 NA
BRANCH  12  19
ATOM     14  C   UNL     1       3.445   2.556  20.675  0.00  0.00    +0.000 A 
ATOM     15  C   UNL     1       2.556   2.219  21.699  0.00  0.00    +0.000 A 
ATOM     16  C   UNL     1       1.255   2.726  21.689  0.00  0.00    +0.000 A 
ATOM     17  C   UNL     1       0.840   3.571  20.662  0.00  0.00    +0.000 A 
ATOM     18  C   UNL     1       1.728   3.910  19.640  0.00  0.00    +0.000 A 
ATOM     19  C   UNL     1       3.035   3.403  19.641  0.00  0.00    +0.000 A 
BRANCH  14  20
ATOM     20  O   UNL     1       4.714   2.050  20.689  0.00  0.00    +0.000 OA
ATOM     21  H   UNL     1       5.347   2.775  20.821  0.00  0.00    +0.000 HD
ENDBRANCH  14  20
ENDBRANCH  12  19
ENDBRANCH   1  13
TORSDOF 4
ENDMDL
MODEL 3
REMARK VINA RESULT:      -7.3      3.300      7.766
REMARK  Name = 
REMARK  4 active torsions:
REMARK  status: ('A' for Active; 'I' for Inactive)
REMARK    1  A    between atoms: O_1  and  C_2
REMARK    2  A    between atoms: C_7  and  C_8
REMARK    3  A    between atoms: N_9  and  C_10
REMARK    4  A    between atoms: C_12  and  C_13
REMARK                            x       y       z     vdW  Elec       q    Type
REMARK                         _______ _______ _______ _____ _____    ______ ____
ROOT
ATOM      1  C   UNL     1       5.836   4.684  17.672  0.00  0.00    +0.000 A 
ATOM      2  N   UNL     1       5.789   4.274  16.420  0.00  0.00    +0.000 NA
ATOM      3  C   UNL     1       6.710   4.961  15.640  0.00  0.00    +0.000 A 
ATOM      4  C   UNL     1       7.438   5.920  16.314  0.00  0.00    +0.000 A 
ATOM      5  S   UNL     1       6.999   5.935  17.964  0.00  0.00    +0.000 S 
ENDROOT
BRANCH   3   6
ATOM      6  C   UNL     1       6.851   4.694  14.213  0.00  0.00    +0.000 A 
ATOM      7  C   UNL     1       7.719   5.479  13.443  0.00  0.00    +0.000 A 
ATOM      8  C   UNL     1       7.875   5.236  12.076  0.00  0.00    +0.000 A 
ATOM      9  C   UNL     1       7.157   4.211  11.462  0.00  0.00    +0.000 A 
ATOM     10  C   UNL     1       6.284   3.428  12.214  0.00  0.00    +0.000 A 
ATOM     11  C   UNL     1       6.131   3.668  13.582  0.00  0.00    +0.000 A 
ENDBRANCH   3   6
BRANCH   1  13
ATOM     12  C   UNL     1       3.876   3.922  18.495  0.00  0.00    +0.000 C 
ATOM     13  N   UNL     1       5.097   4.282  18.735  0.00  0.00    +0.000 NA
BRANCH  12  19
ATOM     14  C   UNL     1       3.442   2.629  20.597  0.00  0.00    +0.000 A 
ATOM     15  C   UNL     1       2.585   2.230  21.627  0.00  0.00    +0.000 A 
ATOM     16  C   UNL     1       1.272   2.705  21.666  0.00  0.00    +0.000 A 
ATOM     17  C   UNL     1       0.815   3.579  20.682  0.00  0.00    +0.000 A 
ATOM     18  C   UNL     1       1.671   3.979  19.655  0.00  0.00    +0.000 A 
ATOM     19  C   UNL     1       2.989   3.505  19.607  0.00  0.00    +0.000 A 
BRANCH  14  20
ATOM     20  O   UNL     1       4.723   2.154  20.563  0.00  0.00    +0.000 OA
ATOM     21  H   UNL     1       4.758   1.290  21.004  0.00  0.00    +0.000 HD
ENDBRANCH  14  20
ENDBRANCH  12  19
ENDBRANCH   1  13
TORSDOF 4
ENDMDL
MODEL 4
REMARK VINA RESULT:      -7.2      0.271      1.111
REMARK  Name = 
REMARK  4 active torsions:
REMARK  status: ('A' for Active; 'I' for Inactive)
REMARK    1  A    between atoms: O_1  and  C_2
REMARK    2  A    between atoms: C_7  and  C_8
REMARK    3  A    between atoms: N_9  and  C_10
REMARK    4  A    between atoms: C_12  and  C_13
REMARK                            x       y       z     vdW  Elec       q    Type
REMARK                         _______ _______ _______ _____ _____    ______ ____
ROOT
ATOM      1  C   UNL     1       4.152   4.534  17.456  0.00  0.00    +0.000 A 
ATOM      2  N   UNL     1       3.550   5.692  17.641  0.00  0.00    +0.000 NA
ATOM      3  C   UNL     1       3.044   5.786  18.931  0.00  0.00    +0.000 A 
ATOM      4  C   UNL     1       3.245   4.667  19.714  0.00  0.00    +0.000 A 
ATOM      5  S   UNL     1       4.124   3.493  18.841  0.00  0.00    +0.000 S 
ENDROOT
BRANCH   3   6
ATOM      6  C   UNL     1       2.327   6.972  19.385  0.00  0.00    +0.000 A 
ATOM      7  C   UNL     1       1.807   7.012  20.685  0.00  0.00    +0.000 A 
ATOM      8  C   UNL     1       1.123   8.141  21.143  0.00  0.00    +0.000 A 
ATOM      9  C   UNL     1       0.944   9.239  20.303  0.00  0.00    +0.000 A 
ATOM     10  C   UNL     1       1.449   9.209  19.006  0.00  0.00    +0.000 A 
ATOM     11  C   UNL     1       2.137   8.082  18.548  0.00  0.00    +0.000 A 
ENDBRANCH   3   6
BRANCH   1  13
ATOM     12  C   UNL     1       5.174   4.919  15.479  0.00  0.00    +0.000 C 
ATOM     13  N   UNL     1       4.757   4.050  16.344  0.00  0.00    +0.000 NA
BRANCH  12  19
ATOM     14  C   UNL     1       7.111   4.873  13.890  0.00  0.00    +0.000 A 
ATOM     15  C   UNL     1       7.691   4.458  12.688  0.00  0.00    +0.000 A 
ATOM     16  C   UNL     1       6.971   3.643  11.811  0.00  0.00    +0.000 A 
ATOM     17  C   UNL     1       5.678   3.239  12.133  0.00  0.00    +0.000 A 
ATOM     18  C   UNL     1       5.099   3.651  13.335  0.00  0.00    +0.000 A 
ATOM     19  C   UNL     1       5.813   4.471  14.219  0.00  0.00    +0.000 A 
BRANCH  14  20
ATOM     20  O   UNL     1       7.819   5.676  14.740  0.00  0.00    +0.000 OA
ATOM     21  H   UNL     1       7.630   5.418  15.657  0.00  0.00    +0.000 HD
ENDBRANCH  14  20
ENDBRANCH  12  19
ENDBRANCH   1  13
TORSDOF 4
ENDMDL
MODEL 5
REMARK VINA RESULT:      -7.2      0.860      1.417
REMARK  Name = 
REMARK  4 active torsions:
REMARK  status: ('A' for Active; 'I' for Inactive)
REMARK    1  A    between atoms: O_1  and  C_2
REMARK    2  A    between atoms: C_7  and  C_8
REMARK    3  A    between atoms: N_9  and  C_10
REMARK    4  A    between atoms: C_12  and  C_13
REMARK                            x       y       z     vdW  Elec       q    Type
REMARK                         _______ _______ _______ _____ _____    ______ ____
ROOT
ATOM      1  C   UNL     1       4.213   6.164  17.295  0.00  0.00    +0.000 A 
ATOM      2  N   UNL     1       3.403   7.141  17.652  0.00  0.00    +0.000 NA
ATOM      3  C   UNL     1       2.904   6.926  18.930  0.00  0.00    +0.000 A 
ATOM      4  C   UNL     1       3.324   5.755  19.526  0.00  0.00    +0.000 A 
ATOM      5  S   UNL     1       4.401   4.926  18.493  0.00  0.00    +0.000 S 
ENDROOT
BRANCH   3   6
ATOM      6  C   UNL     1       1.979   7.865  19.555  0.00  0.00    +0.000 A 
ATOM      7  C   UNL     1       1.584   7.668  20.885  0.00  0.00    +0.000 A 
ATOM      8  C   UNL     1       0.705   8.559  21.506  0.00  0.00    +0.000 A 
ATOM      9  C   UNL     1       0.204   9.652  20.800  0.00  0.00    +0.000 A 
ATOM     10  C   UNL     1       0.580   9.854  19.475  0.00  0.00    +0.000 A 
ATOM     11  C   UNL     1       1.463   8.966  18.854  0.00  0.00    +0.000 A 
ENDBRANCH   3   6
BRANCH   1  13
ATOM     12  C   UNL     1       5.041   4.771  15.722  0.00  0.00    +0.000 C 
ATOM     13  N   UNL     1       4.887   5.989  16.131  0.00  0.00    +0.000 NA
BRANCH  12  19
ATOM     14  C   UNL     1       7.071   5.030  14.276  0.00  0.00    +0.000 A 
ATOM     15  C   UNL     1       7.762   4.771  13.089  0.00  0.00    +0.000 A 
ATOM     16  C   UNL     1       7.178   3.974  12.101  0.00  0.00    +0.000 A 
ATOM     17  C   UNL     1       5.910   3.433  12.298  0.00  0.00    +0.000 A 
ATOM     18  C   UNL     1       5.220   3.689  13.484  0.00  0.00    +0.000 A 
ATOM     19  C   UNL     1       5.797   4.490  14.479  0.00  0.00    +0.000 A 
BRANCH  14  20
ATOM     20  O   UNL     1       7.646   5.816  15.234  0.00  0.00    +0.000 OA
ATOM     21  H   UNL     1       7.000   6.474  15.541  0.00  0.00    +0.000 HD
ENDBRANCH  14  20
ENDBRANCH  12  19
ENDBRANCH   1  13
TORSDOF 4
ENDMDL
MODEL 6
REMARK VINA RESULT:      -7.2      2.155      7.865
REMARK  Name = 
REMARK  4 active torsions:
REMARK  status: ('A' for Active; 'I' for Inactive)
REMARK    1  A    between atoms: O_1  and  C_2
REMARK    2  A    between atoms: C_7  and  C_8
REMARK    3  A    between atoms: N_9  and  C_10
REMARK    4  A    between atoms: C_12  and  C_13
REMARK                            x       y       z     vdW  Elec       q    Type
REMARK                         _______ _______ _______ _____ _____    ______ ____
ROOT
ATOM      1  C   UNL     1       5.163   6.027  17.449  0.00  0.00    +0.000 A 
ATOM      2  N   UNL     1       5.242   5.908  16.138  0.00  0.00    +0.000 NA
ATOM      3  C   UNL     1       6.171   4.938  15.785  0.00  0.00    +0.000 A 
ATOM      4  C   UNL     1       6.819   4.342  16.848  0.00  0.00    +0.000 A 
ATOM      5  S   UNL     1       6.224   4.970  18.320  0.00  0.00    +0.000 S 
ENDROOT
BRANCH   3   6
ATOM      6  C   UNL     1       6.448   4.620  14.389  0.00  0.00    +0.000 A 
ATOM      7  C   UNL     1       5.646   3.687  13.718  0.00  0.00    +0.000 A 
ATOM      8  C   UNL     1       5.888   3.373  12.379  0.00  0.00    +0.000 A 
ATOM      9  C   UNL     1       6.942   3.981  11.698  0.00  0.00    +0.000 A 
ATOM     10  C   UNL     1       7.752   4.903  12.354  0.00  0.00    +0.000 A 
ATOM     11  C   UNL     1       7.508   5.222  13.693  0.00  0.00    +0.000 A 
ENDBRANCH   3   6
BRANCH   1  13
ATOM     12  C   UNL     1       3.183   7.059  17.782  0.00  0.00    +0.000 C 
ATOM     13  N   UNL     1       4.396   6.863  18.190  0.00  0.00    +0.000 NA
BRANCH  12  19
ATOM     14  C   UNL     1       1.948   7.752  19.850  0.00  0.00    +0.000 A 
ATOM     15  C   UNL     1       1.088   8.628  20.519  0.00  0.00    +0.000 A 
ATOM     16  C   UNL     1       0.566   9.739  19.852  0.00  0.00    +0.000 A 
ATOM     17  C   UNL     1       0.903   9.980  18.522  0.00  0.00    +0.000 A 
ATOM     18  C   UNL     1       1.764   9.107  17.854  0.00  0.00    +0.000 A 
ATOM     19  C   UNL     1       2.289   7.988  18.514  0.00  0.00    +0.000 A 
BRANCH  14  20
ATOM     20  O   UNL     1       2.449   6.664  20.506  0.00  0.00    +0.000 OA
ATOM     21  H   UNL     1       2.278   5.865  19.981  0.00  0.00    +0.000 HD
ENDBRANCH  14  20
ENDBRANCH  12  19
ENDBRANCH   1  13
TORSDOF 4
ENDMDL
MODEL 7
REMARK VINA RESULT:      -7.2      2.128      7.810
REMARK  Name = 
REMARK  4 active torsions:
REMARK  status: ('A' for Active; 'I' for Inactive)
REMARK    1  A    between atoms: O_1  and  C_2
REMARK    2  A    between atoms: C_7  and  C_8
REMARK    3  A    between atoms: N_9  and  C_10
REMARK    4  A    between atoms: C_12  and  C_13
REMARK                            x       y       z     vdW  Elec       q    Type
REMARK                         _______ _______ _______ _____ _____    ______ ____
ROOT
ATOM      1  C   UNL     1       5.171   5.882  17.523  0.00  0.00    +0.000 A 
ATOM      2  N   UNL     1       5.167   5.709  16.216  0.00  0.00    +0.000 NA
ATOM      3  C   UNL     1       6.241   4.925  15.818  0.00  0.00    +0.000 A 
ATOM      4  C   UNL     1       7.080   4.530  16.841  0.00  0.00    +0.000 A 
ATOM      5  S   UNL     1       6.492   5.108  18.335  0.00  0.00    +0.000 S 
ENDROOT
BRANCH   3   6
ATOM      6  C   UNL     1       6.463   4.591  14.416  0.00  0.00    +0.000 A 
ATOM      7  C   UNL     1       7.496   5.220  13.708  0.00  0.00    +0.000 A 
ATOM      8  C   UNL     1       7.731   4.909  12.366  0.00  0.00    +0.000 A 
ATOM      9  C   UNL     1       6.930   3.972  11.715  0.00  0.00    +0.000 A 
ATOM     10  C   UNL     1       5.895   3.345  12.404  0.00  0.00    +0.000 A 
ATOM     11  C   UNL     1       5.662   3.653  13.748  0.00  0.00    +0.000 A 
ENDBRANCH   3   6
BRANCH   1  13
ATOM     12  C   UNL     1       3.363   7.224  17.689  0.00  0.00    +0.000 C 
ATOM     13  N   UNL     1       4.313   6.590  18.298  0.00  0.00    +0.000 NA
BRANCH  12  19
ATOM     14  C   UNL     1       2.037   7.700  19.762  0.00  0.00    +0.000 A 
ATOM     15  C   UNL     1       1.116   8.480  20.466  0.00  0.00    +0.000 A 
ATOM     16  C   UNL     1       0.558   9.612  19.867  0.00  0.00    +0.000 A 
ATOM     17  C   UNL     1       0.920   9.968  18.570  0.00  0.00    +0.000 A 
ATOM     18  C   UNL     1       1.842   9.191  17.867  0.00  0.00    +0.000 A 
ATOM     19  C   UNL     1       2.404   8.051  18.459  0.00  0.00    +0.000 A 
BRANCH  14  20
ATOM     20  O   UNL     1       2.573   6.590  20.352  0.00  0.00    +0.000 OA
ATOM     21  H   UNL     1       3.418   6.375  19.924  0.00  0.00    +0.000 HD
ENDBRANCH  14  20
ENDBRANCH  12  19
ENDBRANCH   1  13
TORSDOF 4
ENDMDL
MODEL 8
REMARK VINA RESULT:      -7.2      1.945      7.971
REMARK  Name = 
REMARK  4 active torsions:
REMARK  status: ('A' for Active; 'I' for Inactive)
REMARK    1  A    between atoms: O_1  and  C_2
REMARK    2  A    between atoms: C_7  and  C_8
REMARK    3  A    between atoms: N_9  and  C_10
REMARK    4  A    between atoms: C_12  and  C_13
REMARK                            x       y       z     vdW  Elec       q    Type
REMARK                         _______ _______ _______ _____ _____    ______ ____
ROOT
ATOM      1  C   UNL     1       4.418   6.038  17.274  0.00  0.00    +0.000 A 
ATOM      2  N   UNL     1       4.946   6.068  16.066  0.00  0.00    +0.000 NA
ATOM      3  C   UNL     1       5.413   4.813  15.699  0.00  0.00    +0.000 A 
ATOM      4  C   UNL     1       5.259   3.835  16.661  0.00  0.00    +0.000 A 
ATOM      5  S   UNL     1       4.473   4.481  18.032  0.00  0.00    +0.000 S 
ENDROOT
BRANCH   3   6
ATOM      6  C   UNL     1       6.047   4.582  14.406  0.00  0.00    +0.000 A 
ATOM      7  C   UNL     1       5.475   3.673  13.506  0.00  0.00    +0.000 A 
ATOM      8  C   UNL     1       6.061   3.443  12.259  0.00  0.00    +0.000 A 
ATOM      9  C   UNL     1       7.231   4.112  11.902  0.00  0.00    +0.000 A 
ATOM     10  C   UNL     1       7.814   5.012  12.790  0.00  0.00    +0.000 A 
ATOM     11  C   UNL     1       7.226   5.246  14.037  0.00  0.00    +0.000 A 
ENDBRANCH   3   6
BRANCH   1  13
ATOM     12  C   UNL     1       2.651   6.883  18.398  0.00  0.00    +0.000 C 
ATOM     13  N   UNL     1       3.871   7.046  17.996  0.00  0.00    +0.000 NA
BRANCH  12  19
ATOM     14  C   UNL     1       1.636   9.168  18.555  0.00  0.00    +0.000 A 
ATOM     15  C   UNL     1       1.008  10.174  19.296  0.00  0.00    +0.000 A 
ATOM     16  C   UNL     1       0.712   9.965  20.645  0.00  0.00    +0.000 A 
ATOM     17  C   UNL     1       1.037   8.756  21.254  0.00  0.00    +0.000 A 
ATOM     18  C   UNL     1       1.662   7.751  20.515  0.00  0.00    +0.000 A 
ATOM     19  C   UNL     1       1.966   7.953  19.161  0.00  0.00    +0.000 A 
BRANCH  14  20
ATOM     20  O   UNL     1       1.928   9.382  17.238  0.00  0.00    +0.000 OA
ATOM     21  H   UNL     1       2.891   9.361  17.114  0.00  0.00    +0.000 HD
ENDBRANCH  14  20
ENDBRANCH  12  19
ENDBRANCH   1  13
TORSDOF 4
ENDMDL
MODEL 9
REMARK VINA RESULT:      -7.1      1.967      7.981
REMARK  Name = 
REMARK  4 active torsions:
REMARK  status: ('A' for Active; 'I' for Inactive)
REMARK    1  A    between atoms: O_1  and  C_2
REMARK    2  A    between atoms: C_7  and  C_8
REMARK    3  A    between atoms: N_9  and  C_10
REMARK    4  A    between atoms: C_12  and  C_13
REMARK                            x       y       z     vdW  Elec       q    Type
REMARK                         _______ _______ _______ _____ _____    ______ ____
ROOT
ATOM      1  C   UNL     1       4.324   6.094  17.234  0.00  0.00    +0.000 A 
ATOM      2  N   UNL     1       4.877   6.098  16.037  0.00  0.00    +0.000 NA
ATOM      3  C   UNL     1       5.320   4.828  15.692  0.00  0.00    +0.000 A 
ATOM      4  C   UNL     1       5.122   3.864  16.659  0.00  0.00    +0.000 A 
ATOM      5  S   UNL     1       4.325   4.543  18.007  0.00  0.00    +0.000 S 
ENDROOT
BRANCH   3   6
ATOM      6  C   UNL     1       5.973   4.569  14.414  0.00  0.00    +0.000 A 
ATOM      7  C   UNL     1       7.170   5.228  14.101  0.00  0.00    +0.000 A 
ATOM      8  C   UNL     1       7.817   4.989  12.886  0.00  0.00    +0.000 A 
ATOM      9  C   UNL     1       7.270   4.096  11.967  0.00  0.00    +0.000 A 
ATOM     10  C   UNL     1       6.077   3.441  12.261  0.00  0.00    +0.000 A 
ATOM     11  C   UNL     1       5.430   3.676  13.478  0.00  0.00    +0.000 A 
ENDBRANCH   3   6
BRANCH   1  13
ATOM     12  C   UNL     1       2.615   6.931  18.449  0.00  0.00    +0.000 C 
ATOM     13  N   UNL     1       3.788   7.122  17.935  0.00  0.00    +0.000 NA
BRANCH  12  19
ATOM     14  C   UNL     1       1.616   9.226  18.575  0.00  0.00    +0.000 A 
ATOM     15  C   UNL     1       0.999  10.247  19.303  0.00  0.00    +0.000 A 
ATOM     16  C   UNL     1       0.710  10.062  20.658  0.00  0.00    +0.000 A 
ATOM     17  C   UNL     1       1.032   8.861  21.285  0.00  0.00    +0.000 A 
ATOM     18  C   UNL     1       1.646   7.840  20.557  0.00  0.00    +0.000 A 
ATOM     19  C   UNL     1       1.942   8.018  19.199  0.00  0.00    +0.000 A 
BRANCH  14  20
ATOM     20  O   UNL     1       1.901   9.417  17.253  0.00  0.00    +0.000 OA
ATOM     21  H   UNL     1       1.646   8.624  16.752  0.00  0.00    +0.000 HD
ENDBRANCH  14  20
ENDBRANCH  12  19
ENDBRANCH   1  13
TORSDOF 4
ENDMDL
