MODEL 1
REMARK VINA RESULT:      -6.1      0.000      0.000
REMARK  Name = 
REMARK  4 active torsions:
REMARK  status: ('A' for Active; 'I' for Inactive)
REMARK    1  A    between atoms: C_1  and  C_2
REMARK    2  A    between atoms: N_4  and  C_5
REMARK    3  A    between atoms: C_8  and  C_9
REMARK    4  A    between atoms: C_9  and  O_11
REMARK                            x       y       z     vdW  Elec       q    Type
REMARK                         _______ _______ _______ _____ _____    ______ ____
ROOT
ATOM      1  C   UNL     1       4.007   4.933  17.656  0.00  0.00    +0.000 A 
ATOM      2  C   UNL     1       4.557   3.721  17.213  0.00  0.00    +0.000 A 
ATOM      3  C   UNL     1       5.464   3.697  16.147  0.00  0.00    +0.000 A 
ATOM      4  C   UNL     1       5.824   4.885  15.478  0.00  0.00    +0.000 A 
ATOM      5  C   UNL     1       5.258   6.096  15.916  0.00  0.00    +0.000 A 
ATOM      6  C   UNL     1       4.369   6.119  16.990  0.00  0.00    +0.000 A 
ENDROOT
BRANCH   1  10
ATOM      7  C   UNL     1       1.081   3.944  19.954  0.00  0.00    +0.000 C 
ATOM      8  C   UNL     1       1.783   4.299  18.675  0.00  0.00    +0.000 C 
ATOM      9  N   UNL     1       1.216   4.071  17.541  0.00  0.00    +0.000 NA
ATOM     10  N   UNL     1       3.063   4.932  18.728  0.00  0.00    +0.000 N 
ATOM     11  H   UNL     1       0.282   3.641  17.466  0.00  0.00    +0.000 HD
ATOM     12  H   UNL     1       3.317   5.420  19.601  0.00  0.00    +0.000 HD
ENDBRANCH   1  10
BRANCH   4  13
ATOM     13  C   UNL     1       6.778   4.832  14.326  0.00  0.00    +0.000 C 
ATOM     14  O   UNL     1       7.801   5.495  14.365  0.00  0.00    +0.000 OA
BRANCH  13  15
ATOM     15  O   UNL     1       6.560   4.062  13.234  0.00  0.00    +0.000 OA
ATOM     16  H   UNL     1       7.104   3.308  12.979  0.00  0.00    +0.000 HD
ENDBRANCH  13  15
ENDBRANCH   4  13
TORSDOF 3
ENDMDL
MODEL 2
REMARK VINA RESULT:      -6.1      0.081      1.343
REMARK  Name = 
REMARK  4 active torsions:
REMARK  status: ('A' for Active; 'I' for Inactive)
REMARK    1  A    between atoms: C_1  and  C_2
REMARK    2  A    between atoms: N_4  and  C_5
REMARK    3  A    between atoms: C_8  and  C_9
REMARK    4  A    between atoms: C_9  and  O_11
REMARK                            x       y       z     vdW  Elec       q    Type
REMARK                         _______ _______ _______ _____ _____    ______ ____
ROOT
ATOM      1  C   UNL     1       3.960   4.913  17.603  0.00  0.00    +0.000 A 
ATOM      2  C   UNL     1       4.378   6.108  16.999  0.00  0.00    +0.000 A 
ATOM      3  C   UNL     1       5.293   6.090  15.940  0.00  0.00    +0.000 A 
ATOM      4  C   UNL     1       5.834   4.874  15.474  0.00  0.00    +0.000 A 
ATOM      5  C   UNL     1       5.423   3.679  16.093  0.00  0.00    +0.000 A 
ATOM      6  C   UNL     1       4.497   3.699  17.136  0.00  0.00    +0.000 A 
ENDROOT
BRANCH   1  10
ATOM      7  C   UNL     1       1.113   4.010  20.032  0.00  0.00    +0.000 C 
ATOM      8  C   UNL     1       1.774   4.305  18.716  0.00  0.00    +0.000 C 
ATOM      9  N   UNL     1       1.179   4.010  17.613  0.00  0.00    +0.000 NA
ATOM     10  N   UNL     1       3.046   4.957  18.700  0.00  0.00    +0.000 N 
ATOM     11  H   UNL     1       0.250   3.565  17.587  0.00  0.00    +0.000 HD
ATOM     12  H   UNL     1       3.316   5.493  19.538  0.00  0.00    +0.000 HD
ENDBRANCH   1  10
BRANCH   4  13
ATOM     13  C   UNL     1       6.828   4.880  14.356  0.00  0.00    +0.000 C 
ATOM     14  O   UNL     1       7.835   5.563  14.454  0.00  0.00    +0.000 OA
BRANCH  13  15
ATOM     15  O   UNL     1       6.666   4.144  13.231  0.00  0.00    +0.000 OA
ATOM     16  H   UNL     1       6.207   3.297  13.193  0.00  0.00    +0.000 HD
ENDBRANCH  13  15
ENDBRANCH   4  13
TORSDOF 3
ENDMDL
MODEL 3
REMARK VINA RESULT:      -6.0      4.300      6.128
REMARK  Name = 
REMARK  4 active torsions:
REMARK  status: ('A' for Active; 'I' for Inactive)
REMARK    1  A    between atoms: C_1  and  C_2
REMARK    2  A    between atoms: N_4  and  C_5
REMARK    3  A    between atoms: C_8  and  C_9
REMARK    4  A    between atoms: C_9  and  O_11
REMARK                            x       y       z     vdW  Elec       q    Type
REMARK                         _______ _______ _______ _____ _____    ______ ____
ROOT
ATOM      1  C   UNL     1       4.179   4.217  17.574  0.00  0.00    +0.000 A 
ATOM      2  C   UNL     1       3.777   5.130  18.560  0.00  0.00    +0.000 A 
ATOM      3  C   UNL     1       3.101   4.692  19.704  0.00  0.00    +0.000 A 
ATOM      4  C   UNL     1       2.786   3.329  19.880  0.00  0.00    +0.000 A 
ATOM      5  C   UNL     1       3.178   2.419  18.881  0.00  0.00    +0.000 A 
ATOM      6  C   UNL     1       3.868   2.856  17.750  0.00  0.00    +0.000 A 
ENDROOT
BRANCH   1  10
ATOM      7  C   UNL     1       6.731   4.596  14.717  0.00  0.00    +0.000 C 
ATOM      8  C   UNL     1       6.235   4.498  16.131  0.00  0.00    +0.000 C 
ATOM      9  N   UNL     1       7.063   4.285  17.094  0.00  0.00    +0.000 NA
ATOM     10  N   UNL     1       4.844   4.689  16.401  0.00  0.00    +0.000 N 
ATOM     11  H   UNL     1       8.074   4.170  16.938  0.00  0.00    +0.000 HD
ATOM     12  H   UNL     1       4.289   5.203  15.700  0.00  0.00    +0.000 HD
ENDBRANCH   1  10
BRANCH   4  13
ATOM     13  C   UNL     1       2.042   2.887  21.101  0.00  0.00    +0.000 C 
ATOM     14  O   UNL     1       2.667   2.524  22.084  0.00  0.00    +0.000 OA
BRANCH  13  15
ATOM     15  O   UNL     1       0.690   2.882  21.170  0.00  0.00    +0.000 OA
ATOM     16  H   UNL     1       0.105   3.182  20.465  0.00  0.00    +0.000 HD
ENDBRANCH  13  15
ENDBRANCH   4  13
TORSDOF 3
ENDMDL
MODEL 4
REMARK VINA RESULT:      -6.0      4.278      5.970
REMARK  Name = 
REMARK  4 active torsions:
REMARK  status: ('A' for Active; 'I' for Inactive)
REMARK    1  A    between atoms: C_1  and  C_2
REMARK    2  A    between atoms: N_4  and  C_5
REMARK    3  A    between atoms: C_8  and  C_9
REMARK    4  A    between atoms: C_9  and  O_11
REMARK                            x       y       z     vdW  Elec       q    Type
REMARK                         _______ _______ _______ _____ _____    ______ ____
ROOT
ATOM      1  C   UNL     1       4.204   4.364  17.576  0.00  0.00    +0.000 A 
ATOM      2  C   UNL     1       3.829   3.017  17.685  0.00  0.00    +0.000 A 
ATOM      3  C   UNL     1       3.134   2.560  18.811  0.00  0.00    +0.000 A 
ATOM      4  C   UNL     1       2.818   3.436  19.870  0.00  0.00    +0.000 A 
ATOM      5  C   UNL     1       3.209   4.783  19.761  0.00  0.00    +0.000 A 
ATOM      6  C   UNL     1       3.886   5.239  18.631  0.00  0.00    +0.000 A 
ENDROOT
BRANCH   1  10
ATOM      7  C   UNL     1       6.874   4.611  14.813  0.00  0.00    +0.000 C 
ATOM      8  C   UNL     1       6.322   4.534  16.208  0.00  0.00    +0.000 C 
ATOM      9  N   UNL     1       7.102   4.267  17.198  0.00  0.00    +0.000 NA
ATOM     10  N   UNL     1       4.936   4.804  16.431  0.00  0.00    +0.000 N 
ATOM     11  H   UNL     1       8.110   4.095  17.077  0.00  0.00    +0.000 HD
ATOM     12  H   UNL     1       4.437   5.353  15.715  0.00  0.00    +0.000 HD
ENDBRANCH   1  10
BRANCH   4  13
ATOM     13  C   UNL     1       2.094   2.920  21.074  0.00  0.00    +0.000 C 
ATOM     14  O   UNL     1       2.735   2.535  22.038  0.00  0.00    +0.000 OA
BRANCH  13  15
ATOM     15  O   UNL     1       0.743   2.872  21.148  0.00  0.00    +0.000 OA
ATOM     16  H   UNL     1       0.249   2.435  21.852  0.00  0.00    +0.000 HD
ENDBRANCH  13  15
ENDBRANCH   4  13
TORSDOF 3
ENDMDL
MODEL 5
REMARK VINA RESULT:      -5.9      2.500      3.059
REMARK  Name = 
REMARK  4 active torsions:
REMARK  status: ('A' for Active; 'I' for Inactive)
REMARK    1  A    between atoms: C_1  and  C_2
REMARK    2  A    between atoms: N_4  and  C_5
REMARK    3  A    between atoms: C_8  and  C_9
REMARK    4  A    between atoms: C_9  and  O_11
REMARK                            x       y       z     vdW  Elec       q    Type
REMARK                         _______ _______ _______ _____ _____    ______ ____
ROOT
ATOM      1  C   UNL     1       3.663   5.067  18.569  0.00  0.00    +0.000 A 
ATOM      2  C   UNL     1       3.786   6.119  17.649  0.00  0.00    +0.000 A 
ATOM      3  C   UNL     1       5.035   6.695  17.389  0.00  0.00    +0.000 A 
ATOM      4  C   UNL     1       6.191   6.249  18.063  0.00  0.00    +0.000 A 
ATOM      5  C   UNL     1       6.058   5.204  18.995  0.00  0.00    +0.000 A 
ATOM      6  C   UNL     1       4.816   4.620  19.239  0.00  0.00    +0.000 A 
ENDROOT
BRANCH   1  10
ATOM      7  C   UNL     1       0.757   2.567  18.925  0.00  0.00    +0.000 C 
ATOM      8  C   UNL     1       1.875   3.309  18.251  0.00  0.00    +0.000 C 
ATOM      9  N   UNL     1       2.350   2.885  17.131  0.00  0.00    +0.000 NA
ATOM     10  N   UNL     1       2.374   4.512  18.839  0.00  0.00    +0.000 N 
ATOM     11  H   UNL     1       1.995   2.038  16.665  0.00  0.00    +0.000 HD
ATOM     12  H   UNL     1       1.759   5.008  19.502  0.00  0.00    +0.000 HD
ENDBRANCH   1  10
BRANCH   4  13
ATOM     13  C   UNL     1       7.512   6.896  17.785  0.00  0.00    +0.000 C 
ATOM     14  O   UNL     1       7.821   7.154  16.634  0.00  0.00    +0.000 OA
BRANCH  13  15
ATOM     15  O   UNL     1       8.385   7.222  18.767  0.00  0.00    +0.000 OA
ATOM     16  H   UNL     1       8.951   6.592  19.227  0.00  0.00    +0.000 HD
ENDBRANCH  13  15
ENDBRANCH   4  13
TORSDOF 3
ENDMDL
MODEL 6
REMARK VINA RESULT:      -5.9      1.577      1.789
REMARK  Name = 
REMARK  4 active torsions:
REMARK  status: ('A' for Active; 'I' for Inactive)
REMARK    1  A    between atoms: C_1  and  C_2
REMARK    2  A    between atoms: N_4  and  C_5
REMARK    3  A    between atoms: C_8  and  C_9
REMARK    4  A    between atoms: C_9  and  O_11
REMARK                            x       y       z     vdW  Elec       q    Type
REMARK                         _______ _______ _______ _____ _____    ______ ____
ROOT
ATOM      1  C   UNL     1       4.752   4.153  18.306  0.00  0.00    +0.000 A 
ATOM      2  C   UNL     1       6.098   4.548  18.324  0.00  0.00    +0.000 A 
ATOM      3  C   UNL     1       6.793   4.762  17.128  0.00  0.00    +0.000 A 
ATOM      4  C   UNL     1       6.166   4.560  15.881  0.00  0.00    +0.000 A 
ATOM      5  C   UNL     1       4.821   4.149  15.870  0.00  0.00    +0.000 A 
ATOM      6  C   UNL     1       4.125   3.954  17.062  0.00  0.00    +0.000 A 
ENDROOT
BRANCH   1  10
ATOM      7  C   UNL     1       2.136   4.295  21.127  0.00  0.00    +0.000 C 
ATOM      8  C   UNL     1       3.127   4.815  20.126  0.00  0.00    +0.000 C 
ATOM      9  N   UNL     1       3.154   6.068  19.832  0.00  0.00    +0.000 NA
ATOM     10  N   UNL     1       4.068   3.914  19.538  0.00  0.00    +0.000 N 
ATOM     11  H   UNL     1       2.509   6.750  20.257  0.00  0.00    +0.000 HD
ATOM     12  H   UNL     1       4.264   3.035  20.041  0.00  0.00    +0.000 HD
ENDBRANCH   1  10
BRANCH   4  13
ATOM     13  C   UNL     1       6.937   4.773  14.616  0.00  0.00    +0.000 C 
ATOM     14  O   UNL     1       7.895   5.528  14.619  0.00  0.00    +0.000 OA
BRANCH  13  15
ATOM     15  O   UNL     1       6.622   4.148  13.457  0.00  0.00    +0.000 OA
ATOM     16  H   UNL     1       7.261   3.721  12.875  0.00  0.00    +0.000 HD
ENDBRANCH  13  15
ENDBRANCH   4  13
TORSDOF 3
ENDMDL
MODEL 7
REMARK VINA RESULT:      -5.8      2.404      2.745
REMARK  Name = 
REMARK  4 active torsions:
REMARK  status: ('A' for Active; 'I' for Inactive)
REMARK    1  A    between atoms: C_1  and  C_2
REMARK    2  A    between atoms: N_4  and  C_5
REMARK    3  A    between atoms: C_8  and  C_9
REMARK    4  A    between atoms: C_9  and  O_11
REMARK                            x       y       z     vdW  Elec       q    Type
REMARK                         _______ _______ _______ _____ _____    ______ ____
ROOT
ATOM      1  C   UNL     1       3.529   5.163  18.606  0.00  0.00    +0.000 A 
ATOM      2  C   UNL     1       4.698   4.699  19.227  0.00  0.00    +0.000 A 
ATOM      3  C   UNL     1       5.942   5.257  18.909  0.00  0.00    +0.000 A 
ATOM      4  C   UNL     1       6.051   6.276  17.941  0.00  0.00    +0.000 A 
ATOM      5  C   UNL     1       4.877   6.726  17.311  0.00  0.00    +0.000 A 
ATOM      6  C   UNL     1       3.637   6.182  17.643  0.00  0.00    +0.000 A 
ENDROOT
BRANCH   1  10
ATOM      7  C   UNL     1       0.716   2.569  19.030  0.00  0.00    +0.000 C 
ATOM      8  C   UNL     1       1.775   3.365  18.323  0.00  0.00    +0.000 C 
ATOM      9  N   UNL     1       2.200   2.993  17.166  0.00  0.00    +0.000 NA
ATOM     10  N   UNL     1       2.272   4.562  18.926  0.00  0.00    +0.000 N 
ATOM     11  H   UNL     1       1.843   2.151  16.690  0.00  0.00    +0.000 HD
ATOM     12  H   UNL     1       1.681   5.018  19.637  0.00  0.00    +0.000 HD
ENDBRANCH   1  10
BRANCH   4  13
ATOM     13  C   UNL     1       7.395   6.841  17.601  0.00  0.00    +0.000 C 
ATOM     14  O   UNL     1       7.751   6.876  16.434  0.00  0.00    +0.000 OA
BRANCH  13  15
ATOM     15  O   UNL     1       8.238   7.333  18.538  0.00  0.00    +0.000 OA
ATOM     16  H   UNL     1       8.532   6.848  19.318  0.00  0.00    +0.000 HD
ENDBRANCH  13  15
ENDBRANCH   4  13
TORSDOF 3
ENDMDL
MODEL 8
REMARK VINA RESULT:      -5.8      1.763      2.184
REMARK  Name = 
REMARK  4 active torsions:
REMARK  status: ('A' for Active; 'I' for Inactive)
REMARK    1  A    between atoms: C_1  and  C_2
REMARK    2  A    between atoms: N_4  and  C_5
REMARK    3  A    between atoms: C_8  and  C_9
REMARK    4  A    between atoms: C_9  and  O_11
REMARK                            x       y       z     vdW  Elec       q    Type
REMARK                         _______ _______ _______ _____ _____    ______ ____
ROOT
ATOM      1  C   UNL     1       4.229   3.725  18.808  0.00  0.00    +0.000 A 
ATOM      2  C   UNL     1       5.458   4.247  19.237  0.00  0.00    +0.000 A 
ATOM      3  C   UNL     1       6.349   4.818  18.320  0.00  0.00    +0.000 A 
ATOM      4  C   UNL     1       6.043   4.857  16.944  0.00  0.00    +0.000 A 
ATOM      5  C   UNL     1       4.815   4.318  16.518  0.00  0.00    +0.000 A 
ATOM      6  C   UNL     1       3.922   3.766  17.436  0.00  0.00    +0.000 A 
ENDROOT
BRANCH   1  10
ATOM      7  C   UNL     1       1.217   3.107  21.125  0.00  0.00    +0.000 C 
ATOM      8  C   UNL     1       2.385   3.842  20.533  0.00  0.00    +0.000 C 
ATOM      9  N   UNL     1       2.539   5.100  20.759  0.00  0.00    +0.000 NA
ATOM     10  N   UNL     1       3.346   3.123  19.757  0.00  0.00    +0.000 N 
ATOM     11  H   UNL     1       1.882   5.643  21.337  0.00  0.00    +0.000 HD
ATOM     12  H   UNL     1       3.403   2.102  19.895  0.00  0.00    +0.000 HD
ENDBRANCH   1  10
BRANCH   4  13
ATOM     13  C   UNL     1       7.020   5.451  15.980  0.00  0.00    +0.000 C 
ATOM     14  O   UNL     1       7.516   6.538  16.224  0.00  0.00    +0.000 OA
BRANCH  13  15
ATOM     15  O   UNL     1       7.394   4.823  14.840  0.00  0.00    +0.000 OA
ATOM     16  H   UNL     1       7.762   3.933  14.801  0.00  0.00    +0.000 HD
ENDBRANCH  13  15
ENDBRANCH   4  13
TORSDOF 3
ENDMDL
MODEL 9
REMARK VINA RESULT:      -5.8      1.581      2.445
REMARK  Name = 
REMARK  4 active torsions:
REMARK  status: ('A' for Active; 'I' for Inactive)
REMARK    1  A    between atoms: C_1  and  C_2
REMARK    2  A    between atoms: N_4  and  C_5
REMARK    3  A    between atoms: C_8  and  C_9
REMARK    4  A    between atoms: C_9  and  O_11
REMARK                            x       y       z     vdW  Elec       q    Type
REMARK                         _______ _______ _______ _____ _____    ______ ____
ROOT
ATOM      1  C   UNL     1       3.485   4.317  18.194  0.00  0.00    +0.000 A 
ATOM      2  C   UNL     1       4.114   5.494  18.625  0.00  0.00    +0.000 A 
ATOM      3  C   UNL     1       5.236   5.990  17.952  0.00  0.00    +0.000 A 
ATOM      4  C   UNL     1       5.775   5.306  16.843  0.00  0.00    +0.000 A 
ATOM      5  C   UNL     1       5.149   4.117  16.424  0.00  0.00    +0.000 A 
ATOM      6  C   UNL     1       4.020   3.635  17.086  0.00  0.00    +0.000 A 
ENDROOT
BRANCH   1  10
ATOM      7  C   UNL     1       1.233   3.046  21.047  0.00  0.00    +0.000 C 
ATOM      8  C   UNL     1       2.440   3.112  20.156  0.00  0.00    +0.000 C 
ATOM      9  N   UNL     1       3.527   2.508  20.492  0.00  0.00    +0.000 NA
ATOM     10  N   UNL     1       2.357   3.813  18.913  0.00  0.00    +0.000 N 
ATOM     11  H   UNL     1       3.613   1.971  21.367  0.00  0.00    +0.000 HD
ATOM     12  H   UNL     1       1.419   3.962  18.512  0.00  0.00    +0.000 HD
ENDBRANCH   1  10
BRANCH   4  13
ATOM     13  C   UNL     1       6.989   5.843  16.152  0.00  0.00    +0.000 C 
ATOM     14  O   UNL     1       7.369   5.320  15.117  0.00  0.00    +0.000 OA
BRANCH  13  15
ATOM     15  O   UNL     1       7.687   6.903  16.623  0.00  0.00    +0.000 OA
ATOM     16  H   UNL     1       8.487   6.839  17.156  0.00  0.00    +0.000 HD
ENDBRANCH  13  15
ENDBRANCH   4  13
TORSDOF 3
ENDMDL
