MODEL 1
REMARK VINA RESULT:      -8.7      0.000      0.000
REMARK  Name = 
REMARK  3 active torsions:
REMARK  status: ('A' for Active; 'I' for Inactive)
REMARK    1  A    between atoms: N_3  and  C_4
REMARK    2  A    between atoms: C_15  and  C_16
REMARK    3  A    between atoms: C_16  and  C_17
REMARK                            x       y       z     vdW  Elec       q    Type
REMARK                         _______ _______ _______ _____ _____    ______ ____
ROOT
ATOM      1  O   UNL     1       7.727   9.163  17.309  0.00  0.00    +0.000 OA
ATOM      2  C   UNL     1       8.449   8.887  18.262  0.00  0.00    +0.000 C 
ATOM      3  N   UNL     1       9.419   9.744  18.765  0.00  0.00    +0.000 N 
ATOM      4  N   UNL     1       8.438   7.678  18.926  0.00  0.00    +0.000 N 
ATOM      5  C   UNL     1       7.707   6.570  18.544  0.00  0.00    +0.000 A 
ATOM      6  N   UNL     1       7.984   5.356  18.967  0.00  0.00    +0.000 NA
ATOM      7  N   UNL     1       7.176   4.399  18.375  0.00  0.00    +0.000 NA
ATOM      8  C   UNL     1       6.287   4.935  17.564  0.00  0.00    +0.000 A 
ATOM      9  S   UNL     1       6.346   6.651  17.516  0.00  0.00    +0.000 S 
ATOM     10  H   UNL     1      10.108   9.346  19.386  0.00  0.00    +0.000 HD
ATOM     11  H   UNL     1       9.149   7.477  19.608  0.00  0.00    +0.000 HD
ENDROOT
BRANCH   3  12
ATOM     12  C   UNL     1       9.720  11.034  18.259  0.00  0.00    +0.000 A 
ATOM     13  C   UNL     1      10.981  11.403  17.777  0.00  0.00    +0.000 A 
ATOM     14  C   UNL     1      11.230  12.710  17.349  0.00  0.00    +0.000 A 
ATOM     15  C   UNL     1      10.220  13.669  17.400  0.00  0.00    +0.000 A 
ATOM     16  C   UNL     1       8.956  13.300  17.858  0.00  0.00    +0.000 A 
ATOM     17 CL   UNL     1       7.709  14.482  17.951  0.00  0.00    +0.000 Cl
ATOM     18  C   UNL     1       8.696  11.989  18.264  0.00  0.00    +0.000 A 
ENDBRANCH   3  12
BRANCH   8  19
ATOM     19  C   UNL     1       5.331   4.172  16.694  0.00  0.00    +0.000 C 
BRANCH  19  20
ATOM     20  C   UNL     1       3.996   3.797  17.308  0.00  0.00    +0.000 C 
ATOM     21  C   UNL     1       3.703   2.524  17.642  0.00  0.00    +0.000 C 
ATOM     22  C   UNL     1       2.418   2.100  18.295  0.00  0.00    +0.000 C 
ATOM     23  C   UNL     1       1.352   3.194  18.314  0.00  0.00    +0.000 C 
ATOM     24  C   UNL     1       1.968   4.554  18.627  0.00  0.00    +0.000 C 
ATOM     25  C   UNL     1       3.025   4.924  17.581  0.00  0.00    +0.000 C 
ENDBRANCH  19  20
ENDBRANCH   8  19
TORSDOF 3
ENDMDL
MODEL 2
REMARK VINA RESULT:      -8.7      0.222      1.066
REMARK  Name = 
REMARK  3 active torsions:
REMARK  status: ('A' for Active; 'I' for Inactive)
REMARK    1  A    between atoms: N_3  and  C_4
REMARK    2  A    between atoms: C_15  and  C_16
REMARK    3  A    between atoms: C_16  and  C_17
REMARK                            x       y       z     vdW  Elec       q    Type
REMARK                         _______ _______ _______ _____ _____    ______ ____
ROOT
ATOM      1  O   UNL     1       7.774   9.171  17.325  0.00  0.00    +0.000 OA
ATOM      2  C   UNL     1       8.485   8.922  18.295  0.00  0.00    +0.000 C 
ATOM      3  N   UNL     1       9.436   9.801  18.797  0.00  0.00    +0.000 N 
ATOM      4  N   UNL     1       8.479   7.725  18.981  0.00  0.00    +0.000 N 
ATOM      5  C   UNL     1       7.768   6.601  18.610  0.00  0.00    +0.000 A 
ATOM      6  N   UNL     1       8.054   5.399  19.060  0.00  0.00    +0.000 NA
ATOM      7  N   UNL     1       7.267   4.420  18.474  0.00  0.00    +0.000 NA
ATOM      8  C   UNL     1       6.384   4.930  17.638  0.00  0.00    +0.000 A 
ATOM      9  S   UNL     1       6.423   6.645  17.559  0.00  0.00    +0.000 S 
ATOM     10  H   UNL     1      10.120   9.424  19.436  0.00  0.00    +0.000 HD
ATOM     11  H   UNL     1       9.182   7.547  19.679  0.00  0.00    +0.000 HD
ENDROOT
BRANCH   3  12
ATOM     12  C   UNL     1       9.728  11.085  18.271  0.00  0.00    +0.000 A 
ATOM     13  C   UNL     1      10.984  11.451  17.771  0.00  0.00    +0.000 A 
ATOM     14  C   UNL     1      11.225  12.752  17.323  0.00  0.00    +0.000 A 
ATOM     15  C   UNL     1      10.213  13.709  17.373  0.00  0.00    +0.000 A 
ATOM     16  C   UNL     1       8.955  13.344  17.849  0.00  0.00    +0.000 A 
ATOM     17 CL   UNL     1       7.706  14.524  17.941  0.00  0.00    +0.000 Cl
ATOM     18  C   UNL     1       8.703  12.037  18.275  0.00  0.00    +0.000 A 
ENDBRANCH   3  12
BRANCH   8  19
ATOM     19  C   UNL     1       5.453   4.138  16.769  0.00  0.00    +0.000 C 
BRANCH  19  20
ATOM     20  C   UNL     1       4.076   3.840  17.332  0.00  0.00    +0.000 C 
ATOM     21  C   UNL     1       3.124   4.791  17.414  0.00  0.00    +0.000 C 
ATOM     22  C   UNL     1       1.730   4.545  17.917  0.00  0.00    +0.000 C 
ATOM     23  C   UNL     1       1.552   3.180  18.580  0.00  0.00    +0.000 C 
ATOM     24  C   UNL     1       2.301   2.096  17.812  0.00  0.00    +0.000 C 
ATOM     25  C   UNL     1       3.799   2.413  17.748  0.00  0.00    +0.000 C 
ENDBRANCH  19  20
ENDBRANCH   8  19
TORSDOF 3
ENDMDL
MODEL 3
REMARK VINA RESULT:      -8.6      2.055      2.535
REMARK  Name = 
REMARK  3 active torsions:
REMARK  status: ('A' for Active; 'I' for Inactive)
REMARK    1  A    between atoms: N_3  and  C_4
REMARK    2  A    between atoms: C_15  and  C_16
REMARK    3  A    between atoms: C_16  and  C_17
REMARK                            x       y       z     vdW  Elec       q    Type
REMARK                         _______ _______ _______ _____ _____    ______ ____
ROOT
ATOM      1  O   UNL     1       8.484   7.993  18.956  0.00  0.00    +0.000 OA
ATOM      2  C   UNL     1       8.106   8.614  17.967  0.00  0.00    +0.000 C 
ATOM      3  N   UNL     1       8.538   9.897  17.654  0.00  0.00    +0.000 N 
ATOM      4  N   UNL     1       7.168   8.154  17.067  0.00  0.00    +0.000 N 
ATOM      5  C   UNL     1       6.434   6.993  17.210  0.00  0.00    +0.000 A 
ATOM      6  N   UNL     1       5.322   6.769  16.545  0.00  0.00    +0.000 NA
ATOM      7  N   UNL     1       4.716   5.582  16.925  0.00  0.00    +0.000 NA
ATOM      8  C   UNL     1       5.422   4.933  17.829  0.00  0.00    +0.000 A 
ATOM      9  S   UNL     1       6.901   5.706  18.232  0.00  0.00    +0.000 S 
ATOM     10  H   UNL     1       8.005  10.406  16.965  0.00  0.00    +0.000 HD
ATOM     11  H   UNL     1       6.811   8.773  16.359  0.00  0.00    +0.000 HD
ENDROOT
BRANCH   3  12
ATOM     12  C   UNL     1       9.452  10.667  18.416  0.00  0.00    +0.000 A 
ATOM     13  C   UNL     1       9.462  10.697  19.816  0.00  0.00    +0.000 A 
ATOM     14  C   UNL     1      10.350  11.525  20.509  0.00  0.00    +0.000 A 
ATOM     15  C   UNL     1      11.239  12.339  19.810  0.00  0.00    +0.000 A 
ATOM     16  C   UNL     1      11.249  12.296  18.416  0.00  0.00    +0.000 A 
ATOM     17 CL   UNL     1      12.324  13.316  17.543  0.00  0.00    +0.000 Cl
ATOM     18  C   UNL     1      10.380  11.451  17.721  0.00  0.00    +0.000 A 
ENDBRANCH   3  12
BRANCH   8  19
ATOM     19  C   UNL     1       4.998   3.670  18.521  0.00  0.00    +0.000 C 
BRANCH  19  20
ATOM     20  C   UNL     1       3.611   3.658  19.134  0.00  0.00    +0.000 C 
ATOM     21  C   UNL     1       3.222   4.592  20.024  0.00  0.00    +0.000 C 
ATOM     22  C   UNL     1       1.849   4.658  20.629  0.00  0.00    +0.000 C 
ATOM     23  C   UNL     1       0.999   3.419  20.352  0.00  0.00    +0.000 C 
ATOM     24  C   UNL     1       1.193   2.930  18.921  0.00  0.00    +0.000 C 
ATOM     25  C   UNL     1       2.662   2.579  18.661  0.00  0.00    +0.000 C 
ENDBRANCH  19  20
ENDBRANCH   8  19
TORSDOF 3
ENDMDL
MODEL 4
REMARK VINA RESULT:      -8.6      2.414      3.568
REMARK  Name = 
REMARK  3 active torsions:
REMARK  status: ('A' for Active; 'I' for Inactive)
REMARK    1  A    between atoms: N_3  and  C_4
REMARK    2  A    between atoms: C_15  and  C_16
REMARK    3  A    between atoms: C_16  and  C_17
REMARK                            x       y       z     vdW  Elec       q    Type
REMARK                         _______ _______ _______ _____ _____    ______ ____
ROOT
ATOM      1  O   UNL     1       7.700   9.227  17.671  0.00  0.00    +0.000 OA
ATOM      2  C   UNL     1       8.386   8.705  18.545  0.00  0.00    +0.000 C 
ATOM      3  N   UNL     1       9.354   9.387  19.272  0.00  0.00    +0.000 N 
ATOM      4  N   UNL     1       8.335   7.370  18.885  0.00  0.00    +0.000 N 
ATOM      5  C   UNL     1       7.599   6.409  18.220  0.00  0.00    +0.000 A 
ATOM      6  N   UNL     1       7.843   5.122  18.334  0.00  0.00    +0.000 NA
ATOM      7  N   UNL     1       7.038   4.362  17.500  0.00  0.00    +0.000 NA
ATOM      8  C   UNL     1       6.185   5.104  16.824  0.00  0.00    +0.000 A 
ATOM      9  S   UNL     1       6.273   6.775  17.207  0.00  0.00    +0.000 S 
ATOM     10  H   UNL     1      10.016   8.831  19.793  0.00  0.00    +0.000 HD
ATOM     11  H   UNL     1       9.020   6.989  19.516  0.00  0.00    +0.000 HD
ENDROOT
BRANCH   3  12
ATOM     12  C   UNL     1       9.692  10.755  19.112  0.00  0.00    +0.000 A 
ATOM     13  C   UNL     1      10.178  11.299  17.918  0.00  0.00    +0.000 A 
ATOM     14  C   UNL     1      10.552  12.644  17.843  0.00  0.00    +0.000 A 
ATOM     15  C   UNL     1      10.447  13.463  18.964  0.00  0.00    +0.000 A 
ATOM     16  C   UNL     1       9.942  12.932  20.150  0.00  0.00    +0.000 A 
ATOM     17 CL   UNL     1       9.834  13.929  21.549  0.00  0.00    +0.000 Cl
ATOM     18  C   UNL     1       9.545  11.595  20.222  0.00  0.00    +0.000 A 
ENDBRANCH   3  12
BRANCH   8  19
ATOM     19  C   UNL     1       5.246   4.604  15.766  0.00  0.00    +0.000 C 
BRANCH  19  20
ATOM     20  C   UNL     1       5.842   4.320  14.400  0.00  0.00    +0.000 C 
ATOM     21  C   UNL     1       5.172   3.615  13.467  0.00  0.00    +0.000 C 
ATOM     22  C   UNL     1       5.690   3.344  12.084  0.00  0.00    +0.000 C 
ATOM     23  C   UNL     1       7.162   3.709  11.900  0.00  0.00    +0.000 C 
ATOM     24  C   UNL     1       7.494   5.018  12.609  0.00  0.00    +0.000 C 
ATOM     25  C   UNL     1       7.204   4.911  14.110  0.00  0.00    +0.000 C 
ENDBRANCH  19  20
ENDBRANCH   8  19
TORSDOF 3
ENDMDL
MODEL 5
REMARK VINA RESULT:      -8.6      2.103      2.453
REMARK  Name = 
REMARK  3 active torsions:
REMARK  status: ('A' for Active; 'I' for Inactive)
REMARK    1  A    between atoms: N_3  and  C_4
REMARK    2  A    between atoms: C_15  and  C_16
REMARK    3  A    between atoms: C_16  and  C_17
REMARK                            x       y       z     vdW  Elec       q    Type
REMARK                         _______ _______ _______ _____ _____    ______ ____
ROOT
ATOM      1  O   UNL     1       8.383   7.808  18.835  0.00  0.00    +0.000 OA
ATOM      2  C   UNL     1       7.941   8.506  17.927  0.00  0.00    +0.000 C 
ATOM      3  N   UNL     1       8.346   9.815  17.697  0.00  0.00    +0.000 N 
ATOM      4  N   UNL     1       6.951   8.113  17.051  0.00  0.00    +0.000 N 
ATOM      5  C   UNL     1       6.233   6.937  17.140  0.00  0.00    +0.000 A 
ATOM      6  N   UNL     1       5.084   6.758  16.528  0.00  0.00    +0.000 NA
ATOM      7  N   UNL     1       4.508   5.537  16.843  0.00  0.00    +0.000 NA
ATOM      8  C   UNL     1       5.272   4.822  17.644  0.00  0.00    +0.000 A 
ATOM      9  S   UNL     1       6.769   5.574  18.019  0.00  0.00    +0.000 S 
ATOM     10  H   UNL     1       7.769  10.375  17.087  0.00  0.00    +0.000 HD
ATOM     11  H   UNL     1       6.547   8.786  16.420  0.00  0.00    +0.000 HD
ENDROOT
BRANCH   3  12
ATOM     12  C   UNL     1       9.302  10.528  18.464  0.00  0.00    +0.000 A 
ATOM     13  C   UNL     1       9.308  10.555  19.864  0.00  0.00    +0.000 A 
ATOM     14  C   UNL     1      10.241  11.327  20.561  0.00  0.00    +0.000 A 
ATOM     15  C   UNL     1      11.180  12.088  19.867  0.00  0.00    +0.000 A 
ATOM     16  C   UNL     1      11.192  12.046  18.474  0.00  0.00    +0.000 A 
ATOM     17 CL   UNL     1      12.330  13.002  17.606  0.00  0.00    +0.000 Cl
ATOM     18  C   UNL     1      10.277  11.256  17.773  0.00  0.00    +0.000 A 
ENDBRANCH   3  12
BRANCH   8  19
ATOM     19  C   UNL     1       4.898   3.502  18.251  0.00  0.00    +0.000 C 
BRANCH  19  20
ATOM     20  C   UNL     1       3.489   3.373  18.797  0.00  0.00    +0.000 C 
ATOM     21  C   UNL     1       2.522   2.728  18.115  0.00  0.00    +0.000 C 
ATOM     22  C   UNL     1       1.123   2.528  18.625  0.00  0.00    +0.000 C 
ATOM     23  C   UNL     1       0.805   3.346  19.876  0.00  0.00    +0.000 C 
ATOM     24  C   UNL     1       1.987   3.356  20.839  0.00  0.00    +0.000 C 
ATOM     25  C   UNL     1       3.229   3.954  20.170  0.00  0.00    +0.000 C 
ENDBRANCH  19  20
ENDBRANCH   8  19
TORSDOF 3
ENDMDL
MODEL 6
REMARK VINA RESULT:      -8.6      1.108      1.478
REMARK  Name = 
REMARK  3 active torsions:
REMARK  status: ('A' for Active; 'I' for Inactive)
REMARK    1  A    between atoms: N_3  and  C_4
REMARK    2  A    between atoms: C_15  and  C_16
REMARK    3  A    between atoms: C_16  and  C_17
REMARK                            x       y       z     vdW  Elec       q    Type
REMARK                         _______ _______ _______ _____ _____    ______ ____
ROOT
ATOM      1  O   UNL     1       7.637   9.309  17.678  0.00  0.00    +0.000 OA
ATOM      2  C   UNL     1       8.462   8.934  18.506  0.00  0.00    +0.000 C 
ATOM      3  N   UNL     1       9.456   9.754  19.027  0.00  0.00    +0.000 N 
ATOM      4  N   UNL     1       8.555   7.645  18.989  0.00  0.00    +0.000 N 
ATOM      5  C   UNL     1       7.820   6.571  18.528  0.00  0.00    +0.000 A 
ATOM      6  N   UNL     1       8.173   5.323  18.744  0.00  0.00    +0.000 NA
ATOM      7  N   UNL     1       7.335   4.424  18.105  0.00  0.00    +0.000 NA
ATOM      8  C   UNL     1       6.351   5.029  17.470  0.00  0.00    +0.000 A 
ATOM      9  S   UNL     1       6.357   6.736  17.661  0.00  0.00    +0.000 S 
ATOM     10  H   UNL     1      10.216   9.303  19.514  0.00  0.00    +0.000 HD
ATOM     11  H   UNL     1       9.339   7.382  19.562  0.00  0.00    +0.000 HD
ENDROOT
BRANCH   3  12
ATOM     12  C   UNL     1       9.666  11.113  18.683  0.00  0.00    +0.000 A 
ATOM     13  C   UNL     1       8.808  12.151  19.064  0.00  0.00    +0.000 A 
ATOM     14  C   UNL     1       9.038  13.463  18.640  0.00  0.00    +0.000 A 
ATOM     15  C   UNL     1      10.128  13.754  17.823  0.00  0.00    +0.000 A 
ATOM     16  C   UNL     1      10.998  12.728  17.459  0.00  0.00    +0.000 A 
ATOM     17 CL   UNL     1      12.333  13.071  16.428  0.00  0.00    +0.000 Cl
ATOM     18  C   UNL     1      10.786  11.420  17.901  0.00  0.00    +0.000 A 
ENDBRANCH   3  12
BRANCH   8  19
ATOM     19  C   UNL     1       5.332   4.354  16.600  0.00  0.00    +0.000 C 
BRANCH  19  20
ATOM     20  C   UNL     1       4.034   3.935  17.263  0.00  0.00    +0.000 C 
ATOM     21  C   UNL     1       3.806   2.659  17.629  0.00  0.00    +0.000 C 
ATOM     22  C   UNL     1       2.561   2.194  18.331  0.00  0.00    +0.000 C 
ATOM     23  C   UNL     1       1.451   3.243  18.365  0.00  0.00    +0.000 C 
ATOM     24  C   UNL     1       2.019   4.633  18.633  0.00  0.00    +0.000 C 
ATOM     25  C   UNL     1       3.026   5.027  17.547  0.00  0.00    +0.000 C 
ENDBRANCH  19  20
ENDBRANCH   8  19
TORSDOF 3
ENDMDL
MODEL 7
REMARK VINA RESULT:      -8.5      2.429      3.705
REMARK  Name = 
REMARK  3 active torsions:
REMARK  status: ('A' for Active; 'I' for Inactive)
REMARK    1  A    between atoms: N_3  and  C_4
REMARK    2  A    between atoms: C_15  and  C_16
REMARK    3  A    between atoms: C_16  and  C_17
REMARK                            x       y       z     vdW  Elec       q    Type
REMARK                         _______ _______ _______ _____ _____    ______ ____
ROOT
ATOM      1  O   UNL     1       7.840   9.218  17.663  0.00  0.00    +0.000 OA
ATOM      2  C   UNL     1       8.461   8.759  18.617  0.00  0.00    +0.000 C 
ATOM      3  N   UNL     1       9.362   9.497  19.374  0.00  0.00    +0.000 N 
ATOM      4  N   UNL     1       8.396   7.445  19.033  0.00  0.00    +0.000 N 
ATOM      5  C   UNL     1       7.723   6.437  18.372  0.00  0.00    +0.000 A 
ATOM      6  N   UNL     1       7.970   5.162  18.582  0.00  0.00    +0.000 NA
ATOM      7  N   UNL     1       7.240   4.342  17.737  0.00  0.00    +0.000 NA
ATOM      8  C   UNL     1       6.434   5.031  16.953  0.00  0.00    +0.000 A 
ATOM      9  S   UNL     1       6.477   6.723  17.240  0.00  0.00    +0.000 S 
ATOM     10  H   UNL     1       9.987   8.982  19.976  0.00  0.00    +0.000 HD
ATOM     11  H   UNL     1       9.034   7.113  19.735  0.00  0.00    +0.000 HD
ENDROOT
BRANCH   3  12
ATOM     12  C   UNL     1       9.699  10.857  19.158  0.00  0.00    +0.000 A 
ATOM     13  C   UNL     1      10.157  11.358  17.933  0.00  0.00    +0.000 A 
ATOM     14  C   UNL     1      10.530  12.698  17.802  0.00  0.00    +0.000 A 
ATOM     15  C   UNL     1      10.454  13.557  18.896  0.00  0.00    +0.000 A 
ATOM     16  C   UNL     1       9.977  13.069  20.112  0.00  0.00    +0.000 A 
ATOM     17 CL   UNL     1       9.904  14.114  21.477  0.00  0.00    +0.000 Cl
ATOM     18  C   UNL     1       9.580  11.736  20.241  0.00  0.00    +0.000 A 
ENDBRANCH   3  12
BRANCH   8  19
ATOM     19  C   UNL     1       5.585   4.455  15.858  0.00  0.00    +0.000 C 
BRANCH  19  20
ATOM     20  C   UNL     1       6.174   4.459  14.461  0.00  0.00    +0.000 C 
ATOM     21  C   UNL     1       7.309   5.127  14.173  0.00  0.00    +0.000 C 
ATOM     22  C   UNL     1       7.964   5.128  12.821  0.00  0.00    +0.000 C 
ATOM     23  C   UNL     1       7.096   4.521  11.720  0.00  0.00    +0.000 C 
ATOM     24  C   UNL     1       6.360   3.283  12.223  0.00  0.00    +0.000 C 
ATOM     25  C   UNL     1       5.461   3.633  13.413  0.00  0.00    +0.000 C 
ENDBRANCH  19  20
ENDBRANCH   8  19
TORSDOF 3
ENDMDL
MODEL 8
REMARK VINA RESULT:      -8.5      2.404      3.779
REMARK  Name = 
REMARK  3 active torsions:
REMARK  status: ('A' for Active; 'I' for Inactive)
REMARK    1  A    between atoms: N_3  and  C_4
REMARK    2  A    between atoms: C_15  and  C_16
REMARK    3  A    between atoms: C_16  and  C_17
REMARK                            x       y       z     vdW  Elec       q    Type
REMARK                         _______ _______ _______ _____ _____    ______ ____
ROOT
ATOM      1  O   UNL     1       7.809   9.335  17.729  0.00  0.00    +0.000 OA
ATOM      2  C   UNL     1       8.476   8.870  18.649  0.00  0.00    +0.000 C 
ATOM      3  N   UNL     1       9.384   9.614  19.393  0.00  0.00    +0.000 N 
ATOM      4  N   UNL     1       8.460   7.546  19.034  0.00  0.00    +0.000 N 
ATOM      5  C   UNL     1       7.791   6.535  18.372  0.00  0.00    +0.000 A 
ATOM      6  N   UNL     1       8.078   5.264  18.542  0.00  0.00    +0.000 NA
ATOM      7  N   UNL     1       7.341   4.444  17.702  0.00  0.00    +0.000 NA
ATOM      8  C   UNL     1       6.490   5.129  16.964  0.00  0.00    +0.000 A 
ATOM      9  S   UNL     1       6.498   6.815  17.291  0.00  0.00    +0.000 S 
ATOM     10  H   UNL     1      10.043   9.102  19.960  0.00  0.00    +0.000 HD
ATOM     11  H   UNL     1       9.131   7.214  19.706  0.00  0.00    +0.000 HD
ENDROOT
BRANCH   3  12
ATOM     12  C   UNL     1       9.676  10.988  19.199  0.00  0.00    +0.000 A 
ATOM     13  C   UNL     1       9.230  12.004  20.053  0.00  0.00    +0.000 A 
ATOM     14  C   UNL     1       9.501  13.346  19.773  0.00  0.00    +0.000 A 
ATOM     15  C   UNL     1      10.218  13.692  18.630  0.00  0.00    +0.000 A 
ATOM     16  C   UNL     1      10.684  12.683  17.788  0.00  0.00    +0.000 A 
ATOM     17 CL   UNL     1      11.549  13.100  16.360  0.00  0.00    +0.000 Cl
ATOM     18  C   UNL     1      10.437  11.339  18.078  0.00  0.00    +0.000 A 
ENDBRANCH   3  12
BRANCH   8  19
ATOM     19  C   UNL     1       5.619   4.557  15.885  0.00  0.00    +0.000 C 
BRANCH  19  20
ATOM     20  C   UNL     1       6.198   4.520  14.484  0.00  0.00    +0.000 C 
ATOM     21  C   UNL     1       7.349   5.150  14.177  0.00  0.00    +0.000 C 
ATOM     22  C   UNL     1       7.996   5.109  12.822  0.00  0.00    +0.000 C 
ATOM     23  C   UNL     1       7.103   4.507  11.737  0.00  0.00    +0.000 C 
ATOM     24  C   UNL     1       6.336   3.300  12.266  0.00  0.00    +0.000 C 
ATOM     25  C   UNL     1       5.455   3.696  13.456  0.00  0.00    +0.000 C 
ENDBRANCH  19  20
ENDBRANCH   8  19
TORSDOF 3
ENDMDL
MODEL 9
REMARK VINA RESULT:      -8.4      2.120      2.502
REMARK  Name = 
REMARK  3 active torsions:
REMARK  status: ('A' for Active; 'I' for Inactive)
REMARK    1  A    between atoms: N_3  and  C_4
REMARK    2  A    between atoms: C_15  and  C_16
REMARK    3  A    between atoms: C_16  and  C_17
REMARK                            x       y       z     vdW  Elec       q    Type
REMARK                         _______ _______ _______ _____ _____    ______ ____
ROOT
ATOM      1  O   UNL     1       8.589   8.087  19.085  0.00  0.00    +0.000 OA
ATOM      2  C   UNL     1       8.286   8.703  18.067  0.00  0.00    +0.000 C 
ATOM      3  N   UNL     1       8.766   9.970  17.764  0.00  0.00    +0.000 N 
ATOM      4  N   UNL     1       7.391   8.252  17.118  0.00  0.00    +0.000 N 
ATOM      5  C   UNL     1       6.623   7.110  17.232  0.00  0.00    +0.000 A 
ATOM      6  N   UNL     1       5.547   6.903  16.504  0.00  0.00    +0.000 NA
ATOM      7  N   UNL     1       4.891   5.736  16.862  0.00  0.00    +0.000 NA
ATOM      8  C   UNL     1       5.526   5.083  17.814  0.00  0.00    +0.000 A 
ATOM      9  S   UNL     1       6.997   5.827  18.295  0.00  0.00    +0.000 S 
ATOM     10  H   UNL     1       8.287  10.483  17.038  0.00  0.00    +0.000 HD
ATOM     11  H   UNL     1       7.092   8.869  16.382  0.00  0.00    +0.000 HD
ENDROOT
BRANCH   3  12
ATOM     12  C   UNL     1       9.651  10.729  18.571  0.00  0.00    +0.000 A 
ATOM     13  C   UNL     1      10.979  11.003  18.220  0.00  0.00    +0.000 A 
ATOM     14  C   UNL     1      11.819  11.705  19.088  0.00  0.00    +0.000 A 
ATOM     15  C   UNL     1      11.344  12.141  20.323  0.00  0.00    +0.000 A 
ATOM     16  C   UNL     1      10.017  11.891  20.668  0.00  0.00    +0.000 A 
ATOM     17 CL   UNL     1       9.427  12.401  22.202  0.00  0.00    +0.000 Cl
ATOM     18  C   UNL     1       9.166  11.211  19.792  0.00  0.00    +0.000 A 
ENDBRANCH   3  12
BRANCH   8  19
ATOM     19  C   UNL     1       5.032   3.841  18.495  0.00  0.00    +0.000 C 
BRANCH  19  20
ATOM     20  C   UNL     1       3.666   3.916  19.151  0.00  0.00    +0.000 C 
ATOM     21  C   UNL     1       3.310   4.959  19.927  0.00  0.00    +0.000 C 
ATOM     22  C   UNL     1       1.958   5.111  20.564  0.00  0.00    +0.000 C 
ATOM     23  C   UNL     1       1.096   3.853  20.476  0.00  0.00    +0.000 C 
ATOM     24  C   UNL     1       1.240   3.184  19.113  0.00  0.00    +0.000 C 
ATOM     25  C   UNL     1       2.698   2.793  18.851  0.00  0.00    +0.000 C 
ENDBRANCH  19  20
ENDBRANCH   8  19
TORSDOF 3
ENDMDL
