MODEL 1
REMARK VINA RESULT:      -7.9      0.000      0.000
REMARK  Name = 
REMARK  5 active torsions:
REMARK  status: ('A' for Active; 'I' for Inactive)
REMARK    1  A    between atoms: C_1  and  N_2
REMARK    2  A    between atoms: N_2  and  C_3
REMARK    3  A    between atoms: C_4  and  C_6
REMARK    4  A    between atoms: N_12  and  C_13
REMARK    5  A    between atoms: N_22  and  C_23
REMARK                            x       y       z     vdW  Elec       q    Type
REMARK                         _______ _______ _______ _____ _____    ______ ____
ROOT
ATOM      1  C   UNL     1       3.293   4.615  19.596  0.00  0.00    +0.000 A 
ATOM      2  C   UNL     1       2.482   4.938  20.674  0.00  0.00    +0.000 A 
ATOM      3  C   UNL     1       1.966   6.230  20.481  0.00  0.00    +0.000 A 
ATOM      4  C   UNL     1       1.064   7.031  21.158  0.00  0.00    +0.000 A 
ATOM      5  N   UNL     1       0.797   8.263  20.697  0.00  0.00    +0.000 NA
ATOM      6  C   UNL     1       1.437   8.708  19.595  0.00  0.00    +0.000 A 
ATOM      7  N   UNL     1       1.168  10.021  19.187  0.00  0.00    +0.000 N 
ATOM      8  N   UNL     1       2.336   8.004  18.874  0.00  0.00    +0.000 NA
ATOM      9  C   UNL     1       2.552   6.757  19.341  0.00  0.00    +0.000 A 
ATOM     10  N   UNL     1       3.369   5.777  18.803  0.00  0.00    +0.000 N 
ATOM     11  H   UNL     1       1.688  10.223  18.344  0.00  0.00    +0.000 HD
ENDROOT
BRANCH   7  12
ATOM     12  C   UNL     1      -0.056  10.706  19.303  0.00  0.00    +0.000 A 
ATOM     13  C   UNL     1      -1.088  10.432  18.395  0.00  0.00    +0.000 A 
ATOM     14  C   UNL     1      -2.318  11.096  18.485  0.00  0.00    +0.000 A 
ATOM     15  C   UNL     1      -2.533  12.027  19.500  0.00  0.00    +0.000 A 
ATOM     16 CL   UNL     1      -4.047  12.834  19.621  0.00  0.00    +0.000 Cl
ATOM     17  C   UNL     1      -1.527  12.303  20.419  0.00  0.00    +0.000 A 
ATOM     18  C   UNL     1      -0.297  11.646  20.316  0.00  0.00    +0.000 A 
ENDBRANCH   7  12
BRANCH   1  22
ATOM     19  C   UNL     1       4.046   1.017  18.695  0.00  0.00    +0.000 C 
ATOM     20  N   UNL     1       3.308   2.260  18.849  0.00  0.00    +0.000 N 
ATOM     21  C   UNL     1       1.938   2.254  18.361  0.00  0.00    +0.000 C 
ATOM     22  C   UNL     1       4.008   3.365  19.356  0.00  0.00    +0.000 C 
ATOM     23  O   UNL     1       5.214   3.267  19.597  0.00  0.00    +0.000 OA
ENDBRANCH   1  22
BRANCH  10  24
ATOM     24  C   UNL     1       4.156   5.867  17.585  0.00  0.00    +0.000 C 
ATOM     25  C   UNL     1       5.669   6.091  17.678  0.00  0.00    +0.000 C 
ATOM     26  C   UNL     1       6.129   5.887  16.234  0.00  0.00    +0.000 C 
ATOM     27  C   UNL     1       5.149   4.878  15.628  0.00  0.00    +0.000 C 
ATOM     28  C   UNL     1       4.090   4.621  16.700  0.00  0.00    +0.000 C 
ENDBRANCH  10  24
TORSDOF 3
ENDMDL
MODEL 2
REMARK VINA RESULT:      -7.7      0.514      1.197
REMARK  Name = 
REMARK  5 active torsions:
REMARK  status: ('A' for Active; 'I' for Inactive)
REMARK    1  A    between atoms: C_1  and  N_2
REMARK    2  A    between atoms: N_2  and  C_3
REMARK    3  A    between atoms: C_4  and  C_6
REMARK    4  A    between atoms: N_12  and  C_13
REMARK    5  A    between atoms: N_22  and  C_23
REMARK                            x       y       z     vdW  Elec       q    Type
REMARK                         _______ _______ _______ _____ _____    ______ ____
ROOT
ATOM      1  C   UNL     1       3.281   4.420  19.708  0.00  0.00    +0.000 A 
ATOM      2  C   UNL     1       2.464   4.770  20.773  0.00  0.00    +0.000 A 
ATOM      3  C   UNL     1       1.976   6.070  20.560  0.00  0.00    +0.000 A 
ATOM      4  C   UNL     1       1.082   6.896  21.218  0.00  0.00    +0.000 A 
ATOM      5  N   UNL     1       0.844   8.127  20.741  0.00  0.00    +0.000 NA
ATOM      6  C   UNL     1       1.504   8.547  19.641  0.00  0.00    +0.000 A 
ATOM      7  N   UNL     1       1.265   9.860  19.216  0.00  0.00    +0.000 N 
ATOM      8  N   UNL     1       2.397   7.819  18.937  0.00  0.00    +0.000 NA
ATOM      9  C   UNL     1       2.584   6.573  19.421  0.00  0.00    +0.000 A 
ATOM     10  N   UNL     1       3.388   5.571  18.903  0.00  0.00    +0.000 N 
ATOM     11  H   UNL     1       1.798  10.043  18.377  0.00  0.00    +0.000 HD
ENDROOT
BRANCH   7  12
ATOM     12  C   UNL     1       0.053  10.570  19.311  0.00  0.00    +0.000 A 
ATOM     13  C   UNL     1      -0.112  11.518  20.330  0.00  0.00    +0.000 A 
ATOM     14  C   UNL     1      -1.306  12.241  20.452  0.00  0.00    +0.000 A 
ATOM     15  C   UNL     1      -2.337  12.036  19.538  0.00  0.00    +0.000 A 
ATOM     16 CL   UNL     1      -3.799  12.933  19.676  0.00  0.00    +0.000 Cl
ATOM     17  C   UNL     1      -2.189  11.112  18.511  0.00  0.00    +0.000 A 
ATOM     18  C   UNL     1      -1.000  10.383  18.404  0.00  0.00    +0.000 A 
ENDBRANCH   7  12
BRANCH   1  22
ATOM     19  C   UNL     1       4.083   0.914  18.529  0.00  0.00    +0.000 C 
ATOM     20  N   UNL     1       3.392   2.186  18.658  0.00  0.00    +0.000 N 
ATOM     21  C   UNL     1       2.212   2.359  17.825  0.00  0.00    +0.000 C 
ATOM     22  C   UNL     1       3.974   3.153  19.489  0.00  0.00    +0.000 C 
ATOM     23  O   UNL     1       5.060   2.924  20.028  0.00  0.00    +0.000 OA
ENDBRANCH   1  22
BRANCH  10  24
ATOM     24  C   UNL     1       4.190   5.632  17.693  0.00  0.00    +0.000 C 
ATOM     25  C   UNL     1       4.058   6.840  16.759  0.00  0.00    +0.000 C 
ATOM     26  C   UNL     1       5.208   6.631  15.773  0.00  0.00    +0.000 C 
ATOM     27  C   UNL     1       6.298   5.897  16.561  0.00  0.00    +0.000 C 
ATOM     28  C   UNL     1       5.700   5.603  17.937  0.00  0.00    +0.000 C 
ENDBRANCH  10  24
TORSDOF 3
ENDMDL
MODEL 3
REMARK VINA RESULT:      -7.5      2.246      3.811
REMARK  Name = 
REMARK  5 active torsions:
REMARK  status: ('A' for Active; 'I' for Inactive)
REMARK    1  A    between atoms: C_1  and  N_2
REMARK    2  A    between atoms: N_2  and  C_3
REMARK    3  A    between atoms: C_4  and  C_6
REMARK    4  A    between atoms: N_12  and  C_13
REMARK    5  A    between atoms: N_22  and  C_23
REMARK                            x       y       z     vdW  Elec       q    Type
REMARK                         _______ _______ _______ _____ _____    ______ ____
ROOT
ATOM      1  C   UNL     1       3.799   6.332  17.689  0.00  0.00    +0.000 A 
ATOM      2  C   UNL     1       3.637   7.604  17.158  0.00  0.00    +0.000 A 
ATOM      3  C   UNL     1       2.730   8.316  17.960  0.00  0.00    +0.000 A 
ATOM      4  C   UNL     1       2.254   9.615  17.976  0.00  0.00    +0.000 A 
ATOM      5  N   UNL     1       1.350   9.977  18.899  0.00  0.00    +0.000 NA
ATOM      6  C   UNL     1       0.900   9.057  19.779  0.00  0.00    +0.000 A 
ATOM      7  N   UNL     1      -0.086   9.469  20.685  0.00  0.00    +0.000 N 
ATOM      8  N   UNL     1       1.299   7.768  19.836  0.00  0.00    +0.000 NA
ATOM      9  C   UNL     1       2.236   7.448  18.920  0.00  0.00    +0.000 A 
ATOM     10  N   UNL     1       2.881   6.233  18.752  0.00  0.00    +0.000 N 
ATOM     11  H   UNL     1      -0.318   8.701  21.298  0.00  0.00    +0.000 HD
ENDROOT
BRANCH   7  12
ATOM     12  C   UNL     1      -0.220  10.746  21.262  0.00  0.00    +0.000 A 
ATOM     13  C   UNL     1      -1.020  10.906  22.402  0.00  0.00    +0.000 A 
ATOM     14  C   UNL     1      -1.175  12.164  22.999  0.00  0.00    +0.000 A 
ATOM     15  C   UNL     1      -0.510  13.269  22.473  0.00  0.00    +0.000 A 
ATOM     16 CL   UNL     1      -0.686  14.812  23.213  0.00  0.00    +0.000 Cl
ATOM     17  C   UNL     1       0.300  13.129  21.351  0.00  0.00    +0.000 A 
ATOM     18  C   UNL     1       0.439  11.874  20.751  0.00  0.00    +0.000 A 
ENDBRANCH   7  12
BRANCH   1  22
ATOM     19  C   UNL     1       6.887   4.329  16.808  0.00  0.00    +0.000 C 
ATOM     20  N   UNL     1       6.058   5.382  17.369  0.00  0.00    +0.000 N 
ATOM     21  C   UNL     1       6.753   6.404  18.137  0.00  0.00    +0.000 C 
ATOM     22  C   UNL     1       4.670   5.264  17.205  0.00  0.00    +0.000 C 
ATOM     23  O   UNL     1       4.202   4.265  16.653  0.00  0.00    +0.000 OA
ENDBRANCH   1  22
BRANCH  10  24
ATOM     24  C   UNL     1       2.710   5.035  19.555  0.00  0.00    +0.000 C 
ATOM     25  C   UNL     1       2.325   5.164  21.033  0.00  0.00    +0.000 C 
ATOM     26  C   UNL     1       2.020   3.719  21.430  0.00  0.00    +0.000 C 
ATOM     27  C   UNL     1       1.498   3.044  20.158  0.00  0.00    +0.000 C 
ATOM     28  C   UNL     1       1.626   4.084  19.044  0.00  0.00    +0.000 C 
ENDBRANCH  10  24
TORSDOF 3
ENDMDL
MODEL 4
REMARK VINA RESULT:      -7.3      4.104      8.924
REMARK  Name = 
REMARK  5 active torsions:
REMARK  status: ('A' for Active; 'I' for Inactive)
REMARK    1  A    between atoms: C_1  and  N_2
REMARK    2  A    between atoms: N_2  and  C_3
REMARK    3  A    between atoms: C_4  and  C_6
REMARK    4  A    between atoms: N_12  and  C_13
REMARK    5  A    between atoms: N_22  and  C_23
REMARK                            x       y       z     vdW  Elec       q    Type
REMARK                         _______ _______ _______ _____ _____    ______ ____
ROOT
ATOM      1  C   UNL     1       0.369  11.402  18.741  0.00  0.00    +0.000 A 
ATOM      2  C   UNL     1       1.294  10.900  17.837  0.00  0.00    +0.000 A 
ATOM      3  C   UNL     1       1.736   9.646  18.292  0.00  0.00    +0.000 A 
ATOM      4  C   UNL     1       2.570   8.664  17.788  0.00  0.00    +0.000 A 
ATOM      5  N   UNL     1       2.800   7.557  18.510  0.00  0.00    +0.000 NA
ATOM      6  C   UNL     1       2.235   7.435  19.730  0.00  0.00    +0.000 A 
ATOM      7  N   UNL     1       2.553   6.288  20.469  0.00  0.00    +0.000 N 
ATOM      8  N   UNL     1       1.417   8.341  20.308  0.00  0.00    +0.000 NA
ATOM      9  C   UNL     1       1.175   9.423  19.539  0.00  0.00    +0.000 A 
ATOM     10  N   UNL     1       0.346  10.497  19.820  0.00  0.00    +0.000 N 
ATOM     11  H   UNL     1       2.052   6.306  21.347  0.00  0.00    +0.000 HD
ENDROOT
BRANCH   7  12
ATOM     12  C   UNL     1       2.805   5.000  19.961  0.00  0.00    +0.000 A 
ATOM     13  C   UNL     1       4.124   4.615  19.684  0.00  0.00    +0.000 A 
ATOM     14  C   UNL     1       4.408   3.340  19.178  0.00  0.00    +0.000 A 
ATOM     15  C   UNL     1       3.373   2.431  18.965  0.00  0.00    +0.000 A 
ATOM     16 CL   UNL     1       3.720   0.859  18.356  0.00  0.00    +0.000 Cl
ATOM     17  C   UNL     1       2.059   2.788  19.246  0.00  0.00    +0.000 A 
ATOM     18  C   UNL     1       1.781   4.067  19.738  0.00  0.00    +0.000 A 
ENDBRANCH   7  12
BRANCH   1  22
ATOM     19  C   UNL     1      -0.512  15.079  18.891  0.00  0.00    +0.000 C 
ATOM     20  N   UNL     1       0.286  13.865  18.916  0.00  0.00    +0.000 N 
ATOM     21  C   UNL     1       1.717  14.044  19.107  0.00  0.00    +0.000 C 
ATOM     22  C   UNL     1      -0.375  12.656  18.657  0.00  0.00    +0.000 C 
ATOM     23  O   UNL     1      -1.574  12.663  18.367  0.00  0.00    +0.000 OA
ENDBRANCH   1  22
BRANCH  10  24
ATOM     24  C   UNL     1      -0.478  10.679  21.002  0.00  0.00    +0.000 C 
ATOM     25  C   UNL     1      -0.315   9.727  22.191  0.00  0.00    +0.000 C 
ATOM     26  C   UNL     1      -1.164  10.393  23.275  0.00  0.00    +0.000 C 
ATOM     27  C   UNL     1      -1.098  11.896  22.985  0.00  0.00    +0.000 C 
ATOM     28  C   UNL     1      -0.313  12.040  21.680  0.00  0.00    +0.000 C 
ENDBRANCH  10  24
TORSDOF 3
ENDMDL
MODEL 5
REMARK VINA RESULT:      -7.2      4.398      9.128
REMARK  Name = 
REMARK  5 active torsions:
REMARK  status: ('A' for Active; 'I' for Inactive)
REMARK    1  A    between atoms: C_1  and  N_2
REMARK    2  A    between atoms: N_2  and  C_3
REMARK    3  A    between atoms: C_4  and  C_6
REMARK    4  A    between atoms: N_12  and  C_13
REMARK    5  A    between atoms: N_22  and  C_23
REMARK                            x       y       z     vdW  Elec       q    Type
REMARK                         _______ _______ _______ _____ _____    ______ ____
ROOT
ATOM      1  C   UNL     1      -1.011  12.358  22.697  0.00  0.00    +0.000 A 
ATOM      2  C   UNL     1      -1.126  11.023  23.060  0.00  0.00    +0.000 A 
ATOM      3  C   UNL     1      -0.455  10.237  22.108  0.00  0.00    +0.000 A 
ATOM      4  C   UNL     1      -0.168   8.889  21.984  0.00  0.00    +0.000 A 
ATOM      5  N   UNL     1       0.499   8.451  20.906  0.00  0.00    +0.000 NA
ATOM      6  C   UNL     1       0.854   9.333  19.947  0.00  0.00    +0.000 A 
ATOM      7  N   UNL     1       1.497   8.818  18.813  0.00  0.00    +0.000 N 
ATOM      8  N   UNL     1       0.612  10.661  19.975  0.00  0.00    +0.000 NA
ATOM      9  C   UNL     1      -0.026  11.073  21.090  0.00  0.00    +0.000 A 
ATOM     10  N   UNL     1      -0.371  12.368  21.443  0.00  0.00    +0.000 N 
ATOM     11  H   UNL     1       1.728   9.576  18.187  0.00  0.00    +0.000 HD
ENDROOT
BRANCH   7  12
ATOM     12  C   UNL     1       2.384   7.726  18.770  0.00  0.00    +0.000 A 
ATOM     13  C   UNL     1       3.347   7.660  17.754  0.00  0.00    +0.000 A 
ATOM     14  C   UNL     1       4.244   6.586  17.684  0.00  0.00    +0.000 A 
ATOM     15  C   UNL     1       4.199   5.579  18.646  0.00  0.00    +0.000 A 
ATOM     16 CL   UNL     1       5.309   4.267  18.571  0.00  0.00    +0.000 Cl
ATOM     17  C   UNL     1       3.262   5.633  19.671  0.00  0.00    +0.000 A 
ATOM     18  C   UNL     1       2.360   6.701  19.727  0.00  0.00    +0.000 A 
ENDBRANCH   7  12
BRANCH   1  22
ATOM     19  C   UNL     1      -3.281  15.154  23.859  0.00  0.00    +0.000 C 
ATOM     20  N   UNL     1      -2.841  13.945  23.184  0.00  0.00    +0.000 N 
ATOM     21  C   UNL     1      -3.855  13.234  22.420  0.00  0.00    +0.000 C 
ATOM     22  C   UNL     1      -1.522  13.526  23.409  0.00  0.00    +0.000 C 
ATOM     23  O   UNL     1      -0.808  14.149  24.199  0.00  0.00    +0.000 OA
ENDBRANCH   1  22
BRANCH  10  24
ATOM     24  C   UNL     1      -0.089  13.581  20.696  0.00  0.00    +0.000 C 
ATOM     25  C   UNL     1       1.363  13.950  20.373  0.00  0.00    +0.000 C 
ATOM     26  C   UNL     1       1.205  15.122  19.403  0.00  0.00    +0.000 C 
ATOM     27  C   UNL     1      -0.112  14.870  18.663  0.00  0.00    +0.000 C 
ATOM     28  C   UNL     1      -0.728  13.627  19.307  0.00  0.00    +0.000 C 
ENDBRANCH  10  24
TORSDOF 3
ENDMDL
MODEL 6
REMARK VINA RESULT:      -7.1      4.710      9.896
REMARK  Name = 
REMARK  5 active torsions:
REMARK  status: ('A' for Active; 'I' for Inactive)
REMARK    1  A    between atoms: C_1  and  N_2
REMARK    2  A    between atoms: N_2  and  C_3
REMARK    3  A    between atoms: C_4  and  C_6
REMARK    4  A    between atoms: N_12  and  C_13
REMARK    5  A    between atoms: N_22  and  C_23
REMARK                            x       y       z     vdW  Elec       q    Type
REMARK                         _______ _______ _______ _____ _____    ______ ____
ROOT
ATOM      1  C   UNL     1      -4.325  12.391  19.301  0.00  0.00    +0.000 A 
ATOM      2  C   UNL     1      -4.085  11.636  18.162  0.00  0.00    +0.000 A 
ATOM      3  C   UNL     1      -2.791  11.097  18.241  0.00  0.00    +0.000 A 
ATOM      4  C   UNL     1      -2.048  10.225  17.465  0.00  0.00    +0.000 A 
ATOM      5  N   UNL     1      -0.793   9.920  17.828  0.00  0.00    +0.000 NA
ATOM      6  C   UNL     1      -0.268  10.494  18.932  0.00  0.00    +0.000 A 
ATOM      7  N   UNL     1       1.065  10.189  19.236  0.00  0.00    +0.000 N 
ATOM      8  N   UNL     1      -0.910  11.360  19.745  0.00  0.00    +0.000 NA
ATOM      9  C   UNL     1      -2.182  11.614  19.373  0.00  0.00    +0.000 A 
ATOM     10  N   UNL     1      -3.113  12.411  20.018  0.00  0.00    +0.000 N 
ATOM     11  H   UNL     1       1.329  10.660  20.091  0.00  0.00    +0.000 HD
ENDROOT
BRANCH   7  12
ATOM     12  C   UNL     1       1.724   8.966  19.009  0.00  0.00    +0.000 A 
ATOM     13  C   UNL     1       1.680   7.967  19.992  0.00  0.00    +0.000 A 
ATOM     14  C   UNL     1       2.326   6.739  19.796  0.00  0.00    +0.000 A 
ATOM     15  C   UNL     1       3.001   6.493  18.602  0.00  0.00    +0.000 A 
ATOM     16 CL   UNL     1       3.782   4.980  18.353  0.00  0.00    +0.000 Cl
ATOM     17  C   UNL     1       3.044   7.464  17.609  0.00  0.00    +0.000 A 
ATOM     18  C   UNL     1       2.409   8.693  17.816  0.00  0.00    +0.000 A 
ENDBRANCH   7  12
BRANCH   1  22
ATOM     19  C   UNL     1      -7.902  13.127  20.295  0.00  0.00    +0.000 C 
ATOM     20  N   UNL     1      -6.691  12.374  20.014  0.00  0.00    +0.000 N 
ATOM     21  C   UNL     1      -6.767  10.938  20.230  0.00  0.00    +0.000 C 
ATOM     22  C   UNL     1      -5.547  13.105  19.662  0.00  0.00    +0.000 C 
ATOM     23  O   UNL     1      -5.586  14.338  19.657  0.00  0.00    +0.000 OA
ENDBRANCH   1  22
BRANCH  10  24
ATOM     24  C   UNL     1      -2.932  13.129  21.268  0.00  0.00    +0.000 C 
ATOM     25  C   UNL     1      -2.424  12.380  22.504  0.00  0.00    +0.000 C 
ATOM     26  C   UNL     1      -2.153  13.511  23.497  0.00  0.00    +0.000 C 
ATOM     27  C   UNL     1      -1.767  14.724  22.645  0.00  0.00    +0.000 C 
ATOM     28  C   UNL     1      -1.938  14.289  21.188  0.00  0.00    +0.000 C 
ENDBRANCH  10  24
TORSDOF 3
ENDMDL
MODEL 7
REMARK VINA RESULT:      -6.8      5.167     10.724
REMARK  Name = 
REMARK  5 active torsions:
REMARK  status: ('A' for Active; 'I' for Inactive)
REMARK    1  A    between atoms: C_1  and  N_2
REMARK    2  A    between atoms: N_2  and  C_3
REMARK    3  A    between atoms: C_4  and  C_6
REMARK    4  A    between atoms: N_12  and  C_13
REMARK    5  A    between atoms: N_22  and  C_23
REMARK                            x       y       z     vdW  Elec       q    Type
REMARK                         _______ _______ _______ _____ _____    ______ ____
ROOT
ATOM      1  C   UNL     1      -5.253  12.965  20.107  0.00  0.00    +0.000 A 
ATOM      2  C   UNL     1      -5.004  12.316  18.906  0.00  0.00    +0.000 A 
ATOM      3  C   UNL     1      -3.679  11.847  18.913  0.00  0.00    +0.000 A 
ATOM      4  C   UNL     1      -2.912  11.082  18.052  0.00  0.00    +0.000 A 
ATOM      5  N   UNL     1      -1.633  10.822  18.361  0.00  0.00    +0.000 NA
ATOM      6  C   UNL     1      -1.110  11.337  19.494  0.00  0.00    +0.000 A 
ATOM      7  N   UNL     1       0.246  11.086  19.743  0.00  0.00    +0.000 N 
ATOM      8  N   UNL     1      -1.775  12.098  20.389  0.00  0.00    +0.000 NA
ATOM      9  C   UNL     1      -3.069  12.308  20.067  0.00  0.00    +0.000 A 
ATOM     10  N   UNL     1      -4.025  12.998  20.795  0.00  0.00    +0.000 N 
ATOM     11  H   UNL     1       0.507  11.503  20.626  0.00  0.00    +0.000 HD
ENDROOT
BRANCH   7  12
ATOM     12  C   UNL     1       0.964   9.924  19.405  0.00  0.00    +0.000 A 
ATOM     13  C   UNL     1       1.126   8.911  20.360  0.00  0.00    +0.000 A 
ATOM     14  C   UNL     1       1.836   7.742  20.054  0.00  0.00    +0.000 A 
ATOM     15  C   UNL     1       2.370   7.568  18.779  0.00  0.00    +0.000 A 
ATOM     16 CL   UNL     1       3.229   6.127  18.396  0.00  0.00    +0.000 Cl
ATOM     17  C   UNL     1       2.208   8.553  17.812  0.00  0.00    +0.000 A 
ATOM     18  C   UNL     1       1.511   9.724  18.128  0.00  0.00    +0.000 A 
ENDBRANCH   7  12
BRANCH   1  22
ATOM     19  C   UNL     1      -7.916  15.533  20.904  0.00  0.00    +0.000 C 
ATOM     20  N   UNL     1      -6.689  14.957  20.381  0.00  0.00    +0.000 N 
ATOM     21  C   UNL     1      -5.823  15.862  19.640  0.00  0.00    +0.000 C 
ATOM     22  C   UNL     1      -6.502  13.578  20.551  0.00  0.00    +0.000 C 
ATOM     23  O   UNL     1      -7.389  12.900  21.076  0.00  0.00    +0.000 OA
ENDBRANCH   1  22
BRANCH  10  24
ATOM     24  C   UNL     1      -3.849  13.626  22.093  0.00  0.00    +0.000 C 
ATOM     25  C   UNL     1      -3.861  12.762  23.359  0.00  0.00    +0.000 C 
ATOM     26  C   UNL     1      -3.416  13.745  24.442  0.00  0.00    +0.000 C 
ATOM     27  C   UNL     1      -2.495  14.746  23.739  0.00  0.00    +0.000 C 
ATOM     28  C   UNL     1      -2.528  14.379  22.254  0.00  0.00    +0.000 C 
ENDBRANCH  10  24
TORSDOF 3
ENDMDL
MODEL 8
REMARK VINA RESULT:      -6.8      5.066     10.551
REMARK  Name = 
REMARK  5 active torsions:
REMARK  status: ('A' for Active; 'I' for Inactive)
REMARK    1  A    between atoms: C_1  and  N_2
REMARK    2  A    between atoms: N_2  and  C_3
REMARK    3  A    between atoms: C_4  and  C_6
REMARK    4  A    between atoms: N_12  and  C_13
REMARK    5  A    between atoms: N_22  and  C_23
REMARK                            x       y       z     vdW  Elec       q    Type
REMARK                         _______ _______ _______ _____ _____    ______ ____
ROOT
ATOM      1  C   UNL     1      -5.228  12.662  19.630  0.00  0.00    +0.000 A 
ATOM      2  C   UNL     1      -4.935  11.967  18.465  0.00  0.00    +0.000 A 
ATOM      3  C   UNL     1      -3.601  11.531  18.523  0.00  0.00    +0.000 A 
ATOM      4  C   UNL     1      -2.795  10.747  17.716  0.00  0.00    +0.000 A 
ATOM      5  N   UNL     1      -1.518  10.531  18.066  0.00  0.00    +0.000 NA
ATOM      6  C   UNL     1      -1.034  11.108  19.186  0.00  0.00    +0.000 A 
ATOM      7  N   UNL     1       0.320  10.901  19.477  0.00  0.00    +0.000 N 
ATOM      8  N   UNL     1      -1.739  11.892  20.030  0.00  0.00    +0.000 NA
ATOM      9  C   UNL     1      -3.029  12.057  19.670  0.00  0.00    +0.000 A 
ATOM     10  N   UNL     1      -4.017  12.755  20.344  0.00  0.00    +0.000 N 
ATOM     11  H   UNL     1       0.551  11.362  20.346  0.00  0.00    +0.000 HD
ENDROOT
BRANCH   7  12
ATOM     12  C   UNL     1       1.073   9.742  19.207  0.00  0.00    +0.000 A 
ATOM     13  C   UNL     1       1.730   9.619  17.975  0.00  0.00    +0.000 A 
ATOM     14  C   UNL     1       2.487   8.478  17.676  0.00  0.00    +0.000 A 
ATOM     15  C   UNL     1       2.611   7.461  18.620  0.00  0.00    +0.000 A 
ATOM     16 CL   UNL     1       3.552   6.066  18.261  0.00  0.00    +0.000 Cl
ATOM     17  C   UNL     1       1.980   7.570  19.853  0.00  0.00    +0.000 A 
ATOM     18  C   UNL     1       1.214   8.704  20.140  0.00  0.00    +0.000 A 
ENDBRANCH   7  12
BRANCH   1  22
ATOM     19  C   UNL     1      -7.916  15.214  20.394  0.00  0.00    +0.000 C 
ATOM     20  N   UNL     1      -6.658  14.655  19.929  0.00  0.00    +0.000 N 
ATOM     21  C   UNL     1      -5.727  15.593  19.321  0.00  0.00    +0.000 C 
ATOM     22  C   UNL     1      -6.501  13.264  20.017  0.00  0.00    +0.000 C 
ATOM     23  O   UNL     1      -7.434  12.567  20.424  0.00  0.00    +0.000 OA
ENDBRANCH   1  22
BRANCH  10  24
ATOM     24  C   UNL     1      -3.888  13.444  21.617  0.00  0.00    +0.000 C 
ATOM     25  C   UNL     1      -3.773  12.628  22.909  0.00  0.00    +0.000 C 
ATOM     26  C   UNL     1      -3.421  13.693  23.949  0.00  0.00    +0.000 C 
ATOM     27  C   UNL     1      -2.636  14.767  23.191  0.00  0.00    +0.000 C 
ATOM     28  C   UNL     1      -2.658  14.348  21.720  0.00  0.00    +0.000 C 
ENDBRANCH  10  24
TORSDOF 3
ENDMDL
MODEL 9
REMARK VINA RESULT:      -6.7      4.145      8.876
REMARK  Name = 
REMARK  5 active torsions:
REMARK  status: ('A' for Active; 'I' for Inactive)
REMARK    1  A    between atoms: C_1  and  N_2
REMARK    2  A    between atoms: N_2  and  C_3
REMARK    3  A    between atoms: C_4  and  C_6
REMARK    4  A    between atoms: N_12  and  C_13
REMARK    5  A    between atoms: N_22  and  C_23
REMARK                            x       y       z     vdW  Elec       q    Type
REMARK                         _______ _______ _______ _____ _____    ______ ____
ROOT
ATOM      1  C   UNL     1       0.747  11.885  18.799  0.00  0.00    +0.000 A 
ATOM      2  C   UNL     1       1.541  11.177  17.909  0.00  0.00    +0.000 A 
ATOM      3  C   UNL     1       1.784   9.898  18.438  0.00  0.00    +0.000 A 
ATOM      4  C   UNL     1       2.422   8.758  17.981  0.00  0.00    +0.000 A 
ATOM      5  N   UNL     1       2.491   7.677  18.771  0.00  0.00    +0.000 NA
ATOM      6  C   UNL     1       1.959   7.730  20.011  0.00  0.00    +0.000 A 
ATOM      7  N   UNL     1       2.108   6.595  20.819  0.00  0.00    +0.000 N 
ATOM      8  N   UNL     1       1.326   8.796  20.546  0.00  0.00    +0.000 NA
ATOM      9  C   UNL     1       1.240   9.853  19.711  0.00  0.00    +0.000 A 
ATOM     10  N   UNL     1       0.614  11.067  19.938  0.00  0.00    +0.000 N 
ATOM     11  H   UNL     1       1.650   6.753  21.706  0.00  0.00    +0.000 HD
ENDROOT
BRANCH   7  12
ATOM     12  C   UNL     1       2.122   5.254  20.394  0.00  0.00    +0.000 A 
ATOM     13  C   UNL     1       0.928   4.518  20.394  0.00  0.00    +0.000 A 
ATOM     14  C   UNL     1       0.909   3.181  19.977  0.00  0.00    +0.000 A 
ATOM     15  C   UNL     1       2.083   2.575  19.533  0.00  0.00    +0.000 A 
ATOM     16 CL   UNL     1       2.059   0.938  19.006  0.00  0.00    +0.000 Cl
ATOM     17  C   UNL     1       3.274   3.291  19.510  0.00  0.00    +0.000 A 
ATOM     18  C   UNL     1       3.289   4.621  19.941  0.00  0.00    +0.000 A 
ENDBRANCH   7  12
BRANCH   1  22
ATOM     19  C   UNL     1       0.297  15.628  19.132  0.00  0.00    +0.000 C 
ATOM     20  N   UNL     1       0.899  14.310  19.249  0.00  0.00    +0.000 N 
ATOM     21  C   UNL     1       2.202  14.256  19.892  0.00  0.00    +0.000 C 
ATOM     22  C   UNL     1       0.221  13.239  18.649  0.00  0.00    +0.000 C 
ATOM     23  O   UNL     1      -0.811  13.450  18.007  0.00  0.00    +0.000 OA
ENDBRANCH   1  22
BRANCH  10  24
ATOM     24  C   UNL     1      -0.125  11.461  21.126  0.00  0.00    +0.000 C 
ATOM     25  C   UNL     1      -1.572  11.944  20.991  0.00  0.00    +0.000 C 
ATOM     26  C   UNL     1      -2.039  12.021  22.445  0.00  0.00    +0.000 C 
ATOM     27  C   UNL     1      -1.251  10.940  23.189  0.00  0.00    +0.000 C 
ATOM     28  C   UNL     1      -0.273  10.353  22.170  0.00  0.00    +0.000 C 
ENDBRANCH  10  24
TORSDOF 3
ENDMDL
