MODEL 1
REMARK VINA RESULT:      -8.9      0.000      0.000
REMARK  Name = 
REMARK  8 active torsions:
REMARK  status: ('A' for Active; 'I' for Inactive)
REMARK    1  A    between atoms: C_2  and  C_3
REMARK    2  A    between atoms: N_5  and  C_6
REMARK    3  A    between atoms: C_11  and  O_12
REMARK    4  A    between atoms: O_12  and  C_13
REMARK    5  A    between atoms: N_16  and  C_17
REMARK    6  A    between atoms: C_20  and  N_21
REMARK    7  A    between atoms: N_24  and  C_25
REMARK    8  A    between atoms: C_32  and  C_33
REMARK                            x       y       z     vdW  Elec       q    Type
REMARK                         _______ _______ _______ _____ _____    ______ ____
ROOT
ATOM      1  C   UNL     1       3.151   5.829  18.646  0.00  0.00    +0.000 A 
ATOM      2  N   UNL     1       2.948   7.106  18.267  0.00  0.00    +0.000 NA
ATOM      3  C   UNL     1       2.148   7.855  19.032  0.00  0.00    +0.000 A 
ATOM      4  N   UNL     1       1.792   9.088  18.491  0.00  0.00    +0.000 N 
ATOM      5  N   UNL     1       1.597   7.399  20.164  0.00  0.00    +0.000 NA
ATOM      6  C   UNL     1       1.836   6.130  20.522  0.00  0.00    +0.000 A 
ATOM      7  C   UNL     1       2.599   5.261  19.779  0.00  0.00    +0.000 A 
ATOM      8  C   UNL     1       2.782   3.847  20.197  0.00  0.00    +0.000 C 
ATOM      9  H   UNL     1       2.240   9.203  17.591  0.00  0.00    +0.000 HD
ENDROOT
BRANCH   4  10
ATOM     10  C   UNL     1       0.665   9.884  18.730  0.00  0.00    +0.000 A 
ATOM     11  C   UNL     1       0.600  10.808  19.775  0.00  0.00    +0.000 A 
ATOM     12  C   UNL     1      -0.563  11.540  20.024  0.00  0.00    +0.000 A 
ATOM     13  C   UNL     1      -1.712  11.409  19.237  0.00  0.00    +0.000 A 
ATOM     14  C   UNL     1      -1.630  10.500  18.175  0.00  0.00    +0.000 A 
ATOM     15  C   UNL     1      -0.462   9.758  17.921  0.00  0.00    +0.000 A 
BRANCH  13  16
ATOM     16  N   UNL     1      -2.860  12.101  19.556  0.00  0.00    +0.000 N 
ATOM     17  C   UNL     1      -2.823  13.264  20.462  0.00  0.00    +0.000 C 
ATOM     18  C   UNL     1      -4.078  13.257  21.362  0.00  0.00    +0.000 C 
ATOM     19  N   UNL     1      -5.330  13.257  20.570  0.00  0.00    +0.000 NA
ATOM     20  C   UNL     1      -6.493  13.215  21.451  0.00  0.00    +0.000 C 
ATOM     21  C   UNL     1      -5.324  12.091  19.656  0.00  0.00    +0.000 C 
ATOM     22  C   UNL     1      -4.078  12.040  18.736  0.00  0.00    +0.000 C 
ENDBRANCH  13  16
ENDBRANCH   4  10
BRANCH   1  23
ATOM     23  O   UNL     1       3.926   5.008  17.841  0.00  0.00    +0.000 OA
BRANCH  23  29
ATOM     24  C   UNL     1       6.193   4.513  16.935  0.00  0.00    +0.000 A 
ATOM     25  C   UNL     1       7.570   4.495  17.211  0.00  0.00    +0.000 A 
ATOM     26  C   UNL     1       8.069   5.037  18.394  0.00  0.00    +0.000 A 
ATOM     27  C   UNL     1       7.194   5.588  19.322  0.00  0.00    +0.000 A 
ATOM     28  C   UNL     1       5.821   5.604  19.063  0.00  0.00    +0.000 A 
ATOM     29  C   UNL     1       5.306   5.094  17.862  0.00  0.00    +0.000 A 
BRANCH  24  32
ATOM     30  C   UNL     1       6.138   4.473  14.481  0.00  0.00    +0.000 C 
ATOM     31  O   UNL     1       7.029   5.293  14.287  0.00  0.00    +0.000 OA
ATOM     32  N   UNL     1       5.747   3.995  15.705  0.00  0.00    +0.000 N 
ATOM     33  H   UNL     1       5.225   3.130  15.751  0.00  0.00    +0.000 HD
BRANCH  30  35
ATOM     34  C   UNL     1       6.064   3.345  12.318  0.00  0.00    +0.000 C 
ATOM     35  C   UNL     1       5.389   3.849  13.361  0.00  0.00    +0.000 C 
ENDBRANCH  30  35
ENDBRANCH  24  32
ENDBRANCH  23  29
ENDBRANCH   1  23
TORSDOF 6
ENDMDL
MODEL 2
REMARK VINA RESULT:      -8.8      1.686      2.322
REMARK  Name = 
REMARK  8 active torsions:
REMARK  status: ('A' for Active; 'I' for Inactive)
REMARK    1  A    between atoms: C_2  and  C_3
REMARK    2  A    between atoms: N_5  and  C_6
REMARK    3  A    between atoms: C_11  and  O_12
REMARK    4  A    between atoms: O_12  and  C_13
REMARK    5  A    between atoms: N_16  and  C_17
REMARK    6  A    between atoms: C_20  and  N_21
REMARK    7  A    between atoms: N_24  and  C_25
REMARK    8  A    between atoms: C_32  and  C_33
REMARK                            x       y       z     vdW  Elec       q    Type
REMARK                         _______ _______ _______ _____ _____    ______ ____
ROOT
ATOM      1  C   UNL     1       2.987   4.571  18.943  0.00  0.00    +0.000 A 
ATOM      2  N   UNL     1       3.154   5.835  19.379  0.00  0.00    +0.000 NA
ATOM      3  C   UNL     1       2.201   6.347  20.164  0.00  0.00    +0.000 A 
ATOM      4  N   UNL     1       2.303   7.715  20.409  0.00  0.00    +0.000 N 
ATOM      5  N   UNL     1       1.136   5.640  20.561  0.00  0.00    +0.000 NA
ATOM      6  C   UNL     1       1.010   4.379  20.124  0.00  0.00    +0.000 A 
ATOM      7  C   UNL     1       1.905   3.777  19.272  0.00  0.00    +0.000 A 
ATOM      8  C   UNL     1       1.683   2.394  18.776  0.00  0.00    +0.000 C 
ATOM      9  H   UNL     1       3.126   8.079  19.946  0.00  0.00    +0.000 HD
ENDROOT
BRANCH   4  10
ATOM     10  C   UNL     1       1.311   8.646  20.738  0.00  0.00    +0.000 A 
ATOM     11  C   UNL     1       0.613   9.379  19.776  0.00  0.00    +0.000 A 
ATOM     12  C   UNL     1      -0.325  10.347  20.142  0.00  0.00    +0.000 A 
ATOM     13  C   UNL     1      -0.634  10.622  21.478  0.00  0.00    +0.000 A 
ATOM     14  C   UNL     1       0.051   9.863  22.436  0.00  0.00    +0.000 A 
ATOM     15  C   UNL     1       0.999   8.890  22.073  0.00  0.00    +0.000 A 
BRANCH  13  16
ATOM     16  N   UNL     1      -1.517  11.629  21.798  0.00  0.00    +0.000 N 
ATOM     17  C   UNL     1      -2.283  12.333  20.753  0.00  0.00    +0.000 C 
ATOM     18  C   UNL     1      -2.395  13.830  21.115  0.00  0.00    +0.000 C 
ATOM     19  N   UNL     1      -3.019  14.036  22.442  0.00  0.00    +0.000 NA
ATOM     20  C   UNL     1      -3.076  15.459  22.766  0.00  0.00    +0.000 C 
ATOM     21  C   UNL     1      -2.240  13.299  23.463  0.00  0.00    +0.000 C 
ATOM     22  C   UNL     1      -2.084  11.790  23.144  0.00  0.00    +0.000 C 
ENDBRANCH  13  16
ENDBRANCH   4  10
BRANCH   1  23
ATOM     23  O   UNL     1       3.927   4.033  18.078  0.00  0.00    +0.000 OA
BRANCH  23  29
ATOM     24  C   UNL     1       6.160   4.322  17.013  0.00  0.00    +0.000 A 
ATOM     25  C   UNL     1       7.500   4.691  17.218  0.00  0.00    +0.000 A 
ATOM     26  C   UNL     1       7.911   5.248  18.426  0.00  0.00    +0.000 A 
ATOM     27  C   UNL     1       6.990   5.426  19.452  0.00  0.00    +0.000 A 
ATOM     28  C   UNL     1       5.657   5.054  19.263  0.00  0.00    +0.000 A 
ATOM     29  C   UNL     1       5.219   4.525  18.040  0.00  0.00    +0.000 A 
BRANCH  24  32
ATOM     30  C   UNL     1       6.207   4.327  14.558  0.00  0.00    +0.000 C 
ATOM     31  O   UNL     1       7.066   5.190  14.415  0.00  0.00    +0.000 OA
ATOM     32  N   UNL     1       5.789   3.808  15.757  0.00  0.00    +0.000 N 
ATOM     33  H   UNL     1       5.306   2.919  15.766  0.00  0.00    +0.000 HD
BRANCH  30  35
ATOM     34  C   UNL     1       6.235   3.447  12.282  0.00  0.00    +0.000 C 
ATOM     35  C   UNL     1       5.533   3.691  13.398  0.00  0.00    +0.000 C 
ENDBRANCH  30  35
ENDBRANCH  24  32
ENDBRANCH  23  29
ENDBRANCH   1  23
TORSDOF 6
ENDMDL
MODEL 3
REMARK VINA RESULT:      -8.7      1.860      3.353
REMARK  Name = 
REMARK  8 active torsions:
REMARK  status: ('A' for Active; 'I' for Inactive)
REMARK    1  A    between atoms: C_2  and  C_3
REMARK    2  A    between atoms: N_5  and  C_6
REMARK    3  A    between atoms: C_11  and  O_12
REMARK    4  A    between atoms: O_12  and  C_13
REMARK    5  A    between atoms: N_16  and  C_17
REMARK    6  A    between atoms: C_20  and  N_21
REMARK    7  A    between atoms: N_24  and  C_25
REMARK    8  A    between atoms: C_32  and  C_33
REMARK                            x       y       z     vdW  Elec       q    Type
REMARK                         _______ _______ _______ _____ _____    ______ ____
ROOT
ATOM      1  C   UNL     1       4.422   4.303  18.302  0.00  0.00    +0.000 A 
ATOM      2  N   UNL     1       4.366   5.602  18.658  0.00  0.00    +0.000 NA
ATOM      3  C   UNL     1       3.177   6.090  19.024  0.00  0.00    +0.000 A 
ATOM      4  N   UNL     1       3.121   7.474  19.170  0.00  0.00    +0.000 N 
ATOM      5  N   UNL     1       2.076   5.331  19.093  0.00  0.00    +0.000 NA
ATOM      6  C   UNL     1       2.170   4.039  18.751  0.00  0.00    +0.000 A 
ATOM      7  C   UNL     1       3.332   3.452  18.310  0.00  0.00    +0.000 A 
ATOM      8  C   UNL     1       3.363   2.027  17.890  0.00  0.00    +0.000 C 
ATOM      9  H   UNL     1       4.035   7.869  18.986  0.00  0.00    +0.000 HD
ENDROOT
BRANCH   4  10
ATOM     10  C   UNL     1       2.033   8.347  19.059  0.00  0.00    +0.000 A 
ATOM     11  C   UNL     1       1.286   8.768  20.161  0.00  0.00    +0.000 A 
ATOM     12  C   UNL     1       0.166   9.590  20.008  0.00  0.00    +0.000 A 
ATOM     13  C   UNL     1      -0.256  10.052  18.756  0.00  0.00    +0.000 A 
ATOM     14  C   UNL     1       0.514   9.647  17.659  0.00  0.00    +0.000 A 
ATOM     15  C   UNL     1       1.641   8.817  17.808  0.00  0.00    +0.000 A 
BRANCH  13  16
ATOM     16  N   UNL     1      -1.403  10.807  18.642  0.00  0.00    +0.000 N 
ATOM     17  C   UNL     1      -1.541  12.097  19.343  0.00  0.00    +0.000 C 
ATOM     18  C   UNL     1      -2.990  12.255  19.852  0.00  0.00    +0.000 C 
ATOM     19  N   UNL     1      -3.979  12.153  18.755  0.00  0.00    +0.000 NA
ATOM     20  C   UNL     1      -5.337  12.271  19.278  0.00  0.00    +0.000 C 
ATOM     21  C   UNL     1      -3.799  10.858  18.059  0.00  0.00    +0.000 C 
ATOM     22  C   UNL     1      -2.356  10.639  17.536  0.00  0.00    +0.000 C 
ENDBRANCH  13  16
ENDBRANCH   4  10
BRANCH   1  23
ATOM     23  O   UNL     1       5.628   3.783  17.860  0.00  0.00    +0.000 OA
BRANCH  23  29
ATOM     24  C   UNL     1       6.932   5.182  16.264  0.00  0.00    +0.000 A 
ATOM     25  C   UNL     1       7.157   5.490  14.912  0.00  0.00    +0.000 A 
ATOM     26  C   UNL     1       6.573   4.731  13.900  0.00  0.00    +0.000 A 
ATOM     27  C   UNL     1       5.742   3.667  14.229  0.00  0.00    +0.000 A 
ATOM     28  C   UNL     1       5.504   3.357  15.570  0.00  0.00    +0.000 A 
ATOM     29  C   UNL     1       6.112   4.088  16.600  0.00  0.00    +0.000 A 
BRANCH  24  32
ATOM     30  C   UNL     1       7.327   7.276  17.482  0.00  0.00    +0.000 C 
ATOM     31  O   UNL     1       6.407   7.923  16.994  0.00  0.00    +0.000 OA
ATOM     32  N   UNL     1       7.584   5.951  17.246  0.00  0.00    +0.000 N 
ATOM     33  H   UNL     1       8.164   5.439  17.898  0.00  0.00    +0.000 HD
BRANCH  30  35
ATOM     34  C   UNL     1       8.548   9.184  18.392  0.00  0.00    +0.000 C 
ATOM     35  C   UNL     1       8.272   7.874  18.460  0.00  0.00    +0.000 C 
ENDBRANCH  30  35
ENDBRANCH  24  32
ENDBRANCH  23  29
ENDBRANCH   1  23
TORSDOF 6
ENDMDL
MODEL 4
REMARK VINA RESULT:      -8.7      1.592      2.037
REMARK  Name = 
REMARK  8 active torsions:
REMARK  status: ('A' for Active; 'I' for Inactive)
REMARK    1  A    between atoms: C_2  and  C_3
REMARK    2  A    between atoms: N_5  and  C_6
REMARK    3  A    between atoms: C_11  and  O_12
REMARK    4  A    between atoms: O_12  and  C_13
REMARK    5  A    between atoms: N_16  and  C_17
REMARK    6  A    between atoms: C_20  and  N_21
REMARK    7  A    between atoms: N_24  and  C_25
REMARK    8  A    between atoms: C_32  and  C_33
REMARK                            x       y       z     vdW  Elec       q    Type
REMARK                         _______ _______ _______ _____ _____    ______ ____
ROOT
ATOM      1  C   UNL     1       2.952   4.517  19.085  0.00  0.00    +0.000 A 
ATOM      2  N   UNL     1       3.101   5.808  19.443  0.00  0.00    +0.000 NA
ATOM      3  C   UNL     1       2.171   6.334  20.247  0.00  0.00    +0.000 A 
ATOM      4  N   UNL     1       2.241   7.716  20.412  0.00  0.00    +0.000 N 
ATOM      5  N   UNL     1       1.148   5.619  20.733  0.00  0.00    +0.000 NA
ATOM      6  C   UNL     1       1.042   4.333  20.372  0.00  0.00    +0.000 A 
ATOM      7  C   UNL     1       1.913   3.711  19.510  0.00  0.00    +0.000 A 
ATOM      8  C   UNL     1       1.711   2.297  19.100  0.00  0.00    +0.000 C 
ATOM      9  H   UNL     1       3.029   8.077  19.890  0.00  0.00    +0.000 HD
ENDROOT
BRANCH   4  10
ATOM     10  C   UNL     1       1.237   8.635  20.740  0.00  0.00    +0.000 A 
ATOM     11  C   UNL     1       0.532   9.360  19.777  0.00  0.00    +0.000 A 
ATOM     12  C   UNL     1      -0.419  10.316  20.141  0.00  0.00    +0.000 A 
ATOM     13  C   UNL     1      -0.733  10.586  21.477  0.00  0.00    +0.000 A 
ATOM     14  C   UNL     1      -0.041   9.836  22.436  0.00  0.00    +0.000 A 
ATOM     15  C   UNL     1       0.920   8.874  22.075  0.00  0.00    +0.000 A 
BRANCH  13  16
ATOM     16  N   UNL     1      -1.630  11.582  21.796  0.00  0.00    +0.000 N 
ATOM     17  C   UNL     1      -1.737  12.101  23.172  0.00  0.00    +0.000 C 
ATOM     18  C   UNL     1      -3.218  12.393  23.499  0.00  0.00    +0.000 C 
ATOM     19  N   UNL     1      -3.824  13.343  22.539  0.00  0.00    +0.000 NA
ATOM     20  C   UNL     1      -5.231  13.568  22.857  0.00  0.00    +0.000 C 
ATOM     21  C   UNL     1      -3.679  12.803  21.167  0.00  0.00    +0.000 C 
ATOM     22  C   UNL     1      -2.211  12.480  20.788  0.00  0.00    +0.000 C 
ENDBRANCH  13  16
ENDBRANCH   4  10
BRANCH   1  23
ATOM     23  O   UNL     1       3.866   3.960  18.204  0.00  0.00    +0.000 OA
BRANCH  23  29
ATOM     24  C   UNL     1       5.942   4.424  16.908  0.00  0.00    +0.000 A 
ATOM     25  C   UNL     1       7.285   4.829  16.981  0.00  0.00    +0.000 A 
ATOM     26  C   UNL     1       7.825   5.300  18.176  0.00  0.00    +0.000 A 
ATOM     27  C   UNL     1       7.032   5.356  19.316  0.00  0.00    +0.000 A 
ATOM     28  C   UNL     1       5.698   4.948  19.257  0.00  0.00    +0.000 A 
ATOM     29  C   UNL     1       5.129   4.504  18.055  0.00  0.00    +0.000 A 
BRANCH  24  32
ATOM     30  C   UNL     1       6.102   4.132  14.476  0.00  0.00    +0.000 C 
ATOM     31  O   UNL     1       7.270   4.482  14.348  0.00  0.00    +0.000 OA
ATOM     32  N   UNL     1       5.434   4.001  15.666  0.00  0.00    +0.000 N 
ATOM     33  H   UNL     1       4.593   3.440  15.698  0.00  0.00    +0.000 HD
BRANCH  30  35
ATOM     34  C   UNL     1       5.855   3.259  12.210  0.00  0.00    +0.000 C 
ATOM     35  C   UNL     1       5.266   3.751  13.309  0.00  0.00    +0.000 C 
ENDBRANCH  30  35
ENDBRANCH  24  32
ENDBRANCH  23  29
ENDBRANCH   1  23
TORSDOF 6
ENDMDL
MODEL 5
REMARK VINA RESULT:      -8.6      3.976     11.404
REMARK  Name = 
REMARK  8 active torsions:
REMARK  status: ('A' for Active; 'I' for Inactive)
REMARK    1  A    between atoms: C_2  and  C_3
REMARK    2  A    between atoms: N_5  and  C_6
REMARK    3  A    between atoms: C_11  and  O_12
REMARK    4  A    between atoms: O_12  and  C_13
REMARK    5  A    between atoms: N_16  and  C_17
REMARK    6  A    between atoms: C_20  and  N_21
REMARK    7  A    between atoms: N_24  and  C_25
REMARK    8  A    between atoms: C_32  and  C_33
REMARK                            x       y       z     vdW  Elec       q    Type
REMARK                         _______ _______ _______ _____ _____    ______ ____
ROOT
ATOM      1  C   UNL     1      -2.528  12.245  19.352  0.00  0.00    +0.000 A 
ATOM      2  N   UNL     1      -1.248  11.960  19.666  0.00  0.00    +0.000 NA
ATOM      3  C   UNL     1      -0.667  10.944  19.020  0.00  0.00    +0.000 A 
ATOM      4  N   UNL     1       0.568  10.546  19.526  0.00  0.00    +0.000 N 
ATOM      5  N   UNL     1      -1.289  10.251  18.058  0.00  0.00    +0.000 NA
ATOM      6  C   UNL     1      -2.555  10.573  17.757  0.00  0.00    +0.000 A 
ATOM      7  C   UNL     1      -3.259  11.564  18.398  0.00  0.00    +0.000 A 
ATOM      8  C   UNL     1      -4.680  11.838  18.060  0.00  0.00    +0.000 C 
ATOM      9  H   UNL     1       0.818  11.139  20.308  0.00  0.00    +0.000 HD
ENDROOT
BRANCH   4  10
ATOM     10  C   UNL     1       1.212   9.305  19.456  0.00  0.00    +0.000 A 
ATOM     11  C   UNL     1       1.836   8.842  18.296  0.00  0.00    +0.000 A 
ATOM     12  C   UNL     1       2.413   7.571  18.242  0.00  0.00    +0.000 A 
ATOM     13  C   UNL     1       2.420   6.705  19.341  0.00  0.00    +0.000 A 
ATOM     14  C   UNL     1       1.815   7.188  20.508  0.00  0.00    +0.000 A 
ATOM     15  C   UNL     1       1.230   8.466  20.567  0.00  0.00    +0.000 A 
BRANCH  13  16
ATOM     16  N   UNL     1       2.942   5.436  19.226  0.00  0.00    +0.000 N 
ATOM     17  C   UNL     1       2.088   4.242  19.373  0.00  0.00    +0.000 C 
ATOM     18  C   UNL     1       2.868   3.139  20.122  0.00  0.00    +0.000 C 
ATOM     19  N   UNL     1       4.133   2.789  19.436  0.00  0.00    +0.000 NA
ATOM     20  C   UNL     1       4.859   1.770  20.189  0.00  0.00    +0.000 C 
ATOM     21  C   UNL     1       4.956   4.012  19.284  0.00  0.00    +0.000 C 
ATOM     22  C   UNL     1       4.217   5.160  18.549  0.00  0.00    +0.000 C 
ENDBRANCH  13  16
ENDBRANCH   4  10
BRANCH   1  23
ATOM     23  O   UNL     1      -3.177  13.253  20.047  0.00  0.00    +0.000 OA
BRANCH  23  29
ATOM     24  C   UNL     1      -4.384  12.793  22.177  0.00  0.00    +0.000 A 
ATOM     25  C   UNL     1      -4.414  13.023  23.562  0.00  0.00    +0.000 A 
ATOM     26  C   UNL     1      -3.361  13.673  24.201  0.00  0.00    +0.000 A 
ATOM     27  C   UNL     1      -2.272  14.115  23.460  0.00  0.00    +0.000 A 
ATOM     28  C   UNL     1      -2.235  13.899  22.080  0.00  0.00    +0.000 A 
ATOM     29  C   UNL     1      -3.270  13.216  21.427  0.00  0.00    +0.000 A 
BRANCH  24  32
ATOM     30  C   UNL     1      -6.585  12.684  21.096  0.00  0.00    +0.000 C 
ATOM     31  O   UNL     1      -6.756  13.890  20.957  0.00  0.00    +0.000 OA
ATOM     32  N   UNL     1      -5.452  12.090  21.589  0.00  0.00    +0.000 N 
ATOM     33  H   UNL     1      -5.287  11.111  21.398  0.00  0.00    +0.000 HD
BRANCH  30  35
ATOM     34  C   UNL     1      -7.226  10.480  20.265  0.00  0.00    +0.000 C 
ATOM     35  C   UNL     1      -7.612  11.694  20.683  0.00  0.00    +0.000 C 
ENDBRANCH  30  35
ENDBRANCH  24  32
ENDBRANCH  23  29
ENDBRANCH   1  23
TORSDOF 6
ENDMDL
MODEL 6
REMARK VINA RESULT:      -8.5      1.856      3.528
REMARK  Name = 
REMARK  8 active torsions:
REMARK  status: ('A' for Active; 'I' for Inactive)
REMARK    1  A    between atoms: C_2  and  C_3
REMARK    2  A    between atoms: N_5  and  C_6
REMARK    3  A    between atoms: C_11  and  O_12
REMARK    4  A    between atoms: O_12  and  C_13
REMARK    5  A    between atoms: N_16  and  C_17
REMARK    6  A    between atoms: C_20  and  N_21
REMARK    7  A    between atoms: N_24  and  C_25
REMARK    8  A    between atoms: C_32  and  C_33
REMARK                            x       y       z     vdW  Elec       q    Type
REMARK                         _______ _______ _______ _____ _____    ______ ____
ROOT
ATOM      1  C   UNL     1       4.363   4.380  17.541  0.00  0.00    +0.000 A 
ATOM      2  N   UNL     1       4.022   5.642  17.212  0.00  0.00    +0.000 NA
ATOM      3  C   UNL     1       3.625   6.450  18.201  0.00  0.00    +0.000 A 
ATOM      4  N   UNL     1       3.077   7.664  17.793  0.00  0.00    +0.000 N 
ATOM      5  N   UNL     1       3.605   6.065  19.483  0.00  0.00    +0.000 NA
ATOM      6  C   UNL     1       3.969   4.809  19.777  0.00  0.00    +0.000 A 
ATOM      7  C   UNL     1       4.341   3.885  18.831  0.00  0.00    +0.000 A 
ATOM      8  C   UNL     1       4.680   2.489  19.212  0.00  0.00    +0.000 C 
ATOM      9  H   UNL     1       3.102   7.721  16.783  0.00  0.00    +0.000 HD
ENDROOT
BRANCH   4  10
ATOM     10  C   UNL     1       2.161   8.500  18.441  0.00  0.00    +0.000 A 
ATOM     11  C   UNL     1       1.615   9.635  17.838  0.00  0.00    +0.000 A 
ATOM     12  C   UNL     1       0.753  10.484  18.536  0.00  0.00    +0.000 A 
ATOM     13  C   UNL     1       0.372  10.238  19.859  0.00  0.00    +0.000 A 
ATOM     14  C   UNL     1       0.902   9.084  20.448  0.00  0.00    +0.000 A 
ATOM     15  C   UNL     1       1.773   8.227  19.751  0.00  0.00    +0.000 A 
BRANCH  13  16
ATOM     16  N   UNL     1      -0.429  11.135  20.533  0.00  0.00    +0.000 N 
ATOM     17  C   UNL     1      -0.273  11.359  21.982  0.00  0.00    +0.000 C 
ATOM     18  C   UNL     1      -1.662  11.554  22.627  0.00  0.00    +0.000 C 
ATOM     19  N   UNL     1      -2.410  12.672  22.008  0.00  0.00    +0.000 NA
ATOM     20  C   UNL     1      -3.730  12.805  22.617  0.00  0.00    +0.000 C 
ATOM     21  C   UNL     1      -2.530  12.427  20.552  0.00  0.00    +0.000 C 
ATOM     22  C   UNL     1      -1.163  12.211  19.853  0.00  0.00    +0.000 C 
ENDBRANCH  13  16
ENDBRANCH   4  10
BRANCH   1  23
ATOM     23  O   UNL     1       4.720   3.500  16.531  0.00  0.00    +0.000 OA
BRANCH  23  29
ATOM     24  C   UNL     1       6.759   4.709  15.764  0.00  0.00    +0.000 A 
ATOM     25  C   UNL     1       7.484   5.162  14.650  0.00  0.00    +0.000 A 
ATOM     26  C   UNL     1       7.117   4.790  13.359  0.00  0.00    +0.000 A 
ATOM     27  C   UNL     1       6.009   3.974  13.166  0.00  0.00    +0.000 A 
ATOM     28  C   UNL     1       5.275   3.524  14.266  0.00  0.00    +0.000 A 
ATOM     29  C   UNL     1       5.651   3.861  15.574  0.00  0.00    +0.000 A 
BRANCH  24  32
ATOM     30  C   UNL     1       7.346   6.372  17.472  0.00  0.00    +0.000 C 
ATOM     31  O   UNL     1       6.972   7.368  16.862  0.00  0.00    +0.000 OA
ATOM     32  N   UNL     1       7.201   5.076  17.049  0.00  0.00    +0.000 N 
ATOM     33  H   UNL     1       7.268   4.328  17.726  0.00  0.00    +0.000 HD
BRANCH  30  35
ATOM     34  C   UNL     1       7.679   5.556  19.748  0.00  0.00    +0.000 C 
ATOM     35  C   UNL     1       7.981   6.466  18.811  0.00  0.00    +0.000 C 
ENDBRANCH  30  35
ENDBRANCH  24  32
ENDBRANCH  23  29
ENDBRANCH   1  23
TORSDOF 6
ENDMDL
MODEL 7
REMARK VINA RESULT:      -8.5      3.010      4.599
REMARK  Name = 
REMARK  8 active torsions:
REMARK  status: ('A' for Active; 'I' for Inactive)
REMARK    1  A    between atoms: C_2  and  C_3
REMARK    2  A    between atoms: N_5  and  C_6
REMARK    3  A    between atoms: C_11  and  O_12
REMARK    4  A    between atoms: O_12  and  C_13
REMARK    5  A    between atoms: N_16  and  C_17
REMARK    6  A    between atoms: C_20  and  N_21
REMARK    7  A    between atoms: N_24  and  C_25
REMARK    8  A    between atoms: C_32  and  C_33
REMARK                            x       y       z     vdW  Elec       q    Type
REMARK                         _______ _______ _______ _____ _____    ______ ____
ROOT
ATOM      1  C   UNL     1       2.207   7.440  19.781  0.00  0.00    +0.000 A 
ATOM      2  N   UNL     1       1.407   7.828  20.794  0.00  0.00    +0.000 NA
ATOM      3  C   UNL     1       0.678   8.934  20.614  0.00  0.00    +0.000 A 
ATOM      4  N   UNL     1       0.040   9.417  21.754  0.00  0.00    +0.000 N 
ATOM      5  N   UNL     1       0.682   9.623  19.466  0.00  0.00    +0.000 NA
ATOM      6  C   UNL     1       1.475   9.198  18.472  0.00  0.00    +0.000 A 
ATOM      7  C   UNL     1       2.302   8.106  18.573  0.00  0.00    +0.000 A 
ATOM      8  C   UNL     1       3.202   7.716  17.456  0.00  0.00    +0.000 C 
ATOM      9  H   UNL     1       0.237   8.804  22.535  0.00  0.00    +0.000 HD
ENDROOT
BRANCH   4  10
ATOM     10  C   UNL     1      -0.371  10.717  22.072  0.00  0.00    +0.000 A 
ATOM     11  C   UNL     1       0.224  11.854  21.523  0.00  0.00    +0.000 A 
ATOM     12  C   UNL     1      -0.169  13.138  21.911  0.00  0.00    +0.000 A 
ATOM     13  C   UNL     1      -1.185  13.357  22.847  0.00  0.00    +0.000 A 
ATOM     14  C   UNL     1      -1.795  12.212  23.374  0.00  0.00    +0.000 A 
ATOM     15  C   UNL     1      -1.401  10.917  22.988  0.00  0.00    +0.000 A 
BRANCH  13  16
ATOM     16  N   UNL     1      -1.498  14.637  23.251  0.00  0.00    +0.000 N 
ATOM     17  C   UNL     1      -1.151  15.117  24.601  0.00  0.00    +0.000 C 
ATOM     18  C   UNL     1      -2.286  16.017  25.136  0.00  0.00    +0.000 C 
ATOM     19  N   UNL     1      -2.562  17.159  24.235  0.00  0.00    +0.000 NA
ATOM     20  C   UNL     1      -3.662  17.967  24.753  0.00  0.00    +0.000 C 
ATOM     21  C   UNL     1      -2.884  16.643  22.884  0.00  0.00    +0.000 C 
ATOM     22  C   UNL     1      -1.782  15.721  22.302  0.00  0.00    +0.000 C 
ENDBRANCH  13  16
ENDBRANCH   4  10
BRANCH   1  23
ATOM     23  O   UNL     1       3.021   6.332  19.958  0.00  0.00    +0.000 OA
BRANCH  23  29
ATOM     24  C   UNL     1       2.936   4.200  18.674  0.00  0.00    +0.000 A 
ATOM     25  C   UNL     1       2.204   3.027  18.426  0.00  0.00    +0.000 A 
ATOM     26  C   UNL     1       1.089   2.705  19.197  0.00  0.00    +0.000 A 
ATOM     27  C   UNL     1       0.683   3.561  20.213  0.00  0.00    +0.000 A 
ATOM     28  C   UNL     1       1.398   4.735  20.463  0.00  0.00    +0.000 A 
ATOM     29  C   UNL     1       2.543   5.056  19.720  0.00  0.00    +0.000 A 
BRANCH  24  32
ATOM     30  C   UNL     1       5.367   4.281  18.341  0.00  0.00    +0.000 C 
ATOM     31  O   UNL     1       5.692   3.746  19.396  0.00  0.00    +0.000 OA
ATOM     32  N   UNL     1       4.081   4.454  17.897  0.00  0.00    +0.000 N 
ATOM     33  H   UNL     1       3.921   4.631  16.915  0.00  0.00    +0.000 HD
BRANCH  30  35
ATOM     34  C   UNL     1       7.494   5.362  17.827  0.00  0.00    +0.000 C 
ATOM     35  C   UNL     1       6.376   4.779  17.372  0.00  0.00    +0.000 C 
ENDBRANCH  30  35
ENDBRANCH  24  32
ENDBRANCH  23  29
ENDBRANCH   1  23
TORSDOF 6
ENDMDL
MODEL 8
REMARK VINA RESULT:      -8.4      2.880      4.192
REMARK  Name = 
REMARK  8 active torsions:
REMARK  status: ('A' for Active; 'I' for Inactive)
REMARK    1  A    between atoms: C_2  and  C_3
REMARK    2  A    between atoms: N_5  and  C_6
REMARK    3  A    between atoms: C_11  and  O_12
REMARK    4  A    between atoms: O_12  and  C_13
REMARK    5  A    between atoms: N_16  and  C_17
REMARK    6  A    between atoms: C_20  and  N_21
REMARK    7  A    between atoms: N_24  and  C_25
REMARK    8  A    between atoms: C_32  and  C_33
REMARK                            x       y       z     vdW  Elec       q    Type
REMARK                         _______ _______ _______ _____ _____    ______ ____
ROOT
ATOM      1  C   UNL     1       2.539   7.091  19.444  0.00  0.00    +0.000 A 
ATOM      2  N   UNL     1       1.726   7.506  20.435  0.00  0.00    +0.000 NA
ATOM      3  C   UNL     1       1.083   8.665  20.260  0.00  0.00    +0.000 A 
ATOM      4  N   UNL     1       0.432   9.161  21.387  0.00  0.00    +0.000 N 
ATOM      5  N   UNL     1       1.184   9.383  19.134  0.00  0.00    +0.000 NA
ATOM      6  C   UNL     1       1.986   8.932  18.161  0.00  0.00    +0.000 A 
ATOM      7  C   UNL     1       2.731   7.782  18.262  0.00  0.00    +0.000 A 
ATOM      8  C   UNL     1       3.648   7.361  17.171  0.00  0.00    +0.000 C 
ATOM      9  H   UNL     1       0.552   8.514  22.157  0.00  0.00    +0.000 HD
ENDROOT
BRANCH   4  10
ATOM     10  C   UNL     1       0.098  10.477  21.728  0.00  0.00    +0.000 A 
ATOM     11  C   UNL     1      -0.871  10.788  22.684  0.00  0.00    +0.000 A 
ATOM     12  C   UNL     1      -1.225  12.113  22.953  0.00  0.00    +0.000 A 
ATOM     13  C   UNL     1      -0.621  13.195  22.304  0.00  0.00    +0.000 A 
ATOM     14  C   UNL     1       0.368  12.875  21.366  0.00  0.00    +0.000 A 
ATOM     15  C   UNL     1       0.727  11.543  21.089  0.00  0.00    +0.000 A 
BRANCH  13  16
ATOM     16  N   UNL     1      -1.044  14.482  22.552  0.00  0.00    +0.000 N 
ATOM     17  C   UNL     1      -1.252  14.966  23.929  0.00  0.00    +0.000 C 
ATOM     18  C   UNL     1      -2.490  15.888  23.972  0.00  0.00    +0.000 C 
ATOM     19  N   UNL     1      -2.365  17.029  23.036  0.00  0.00    +0.000 NA
ATOM     20  C   UNL     1      -3.566  17.859  23.076  0.00  0.00    +0.000 C 
ATOM     21  C   UNL     1      -2.136  16.509  21.667  0.00  0.00    +0.000 C 
ATOM     22  C   UNL     1      -0.910  15.565  21.568  0.00  0.00    +0.000 C 
ENDBRANCH  13  16
ENDBRANCH   4  10
BRANCH   1  23
ATOM     23  O   UNL     1       3.266   5.925  19.621  0.00  0.00    +0.000 OA
BRANCH  23  29
ATOM     24  C   UNL     1       2.932   3.835  18.307  0.00  0.00    +0.000 A 
ATOM     25  C   UNL     1       2.105   2.718  18.101  0.00  0.00    +0.000 A 
ATOM     26  C   UNL     1       1.042   2.449  18.959  0.00  0.00    +0.000 A 
ATOM     27  C   UNL     1       0.781   3.303  20.024  0.00  0.00    +0.000 A 
ATOM     28  C   UNL     1       1.591   4.422  20.234  0.00  0.00    +0.000 A 
ATOM     29  C   UNL     1       2.687   4.688  19.400  0.00  0.00    +0.000 A 
BRANCH  24  32
ATOM     30  C   UNL     1       5.328   4.102  17.846  0.00  0.00    +0.000 C 
ATOM     31  O   UNL     1       5.739   3.847  18.973  0.00  0.00    +0.000 OA
ATOM     32  N   UNL     1       4.021   4.035  17.439  0.00  0.00    +0.000 N 
ATOM     33  H   UNL     1       3.817   3.976  16.450  0.00  0.00    +0.000 HD
BRANCH  30  35
ATOM     34  C   UNL     1       5.809   4.448  15.479  0.00  0.00    +0.000 C 
ATOM     35  C   UNL     1       6.249   4.481  16.745  0.00  0.00    +0.000 C 
ENDBRANCH  30  35
ENDBRANCH  24  32
ENDBRANCH  23  29
ENDBRANCH   1  23
TORSDOF 6
ENDMDL
MODEL 9
REMARK VINA RESULT:      -8.4      2.938      4.510
REMARK  Name = 
REMARK  8 active torsions:
REMARK  status: ('A' for Active; 'I' for Inactive)
REMARK    1  A    between atoms: C_2  and  C_3
REMARK    2  A    between atoms: N_5  and  C_6
REMARK    3  A    between atoms: C_11  and  O_12
REMARK    4  A    between atoms: O_12  and  C_13
REMARK    5  A    between atoms: N_16  and  C_17
REMARK    6  A    between atoms: C_20  and  N_21
REMARK    7  A    between atoms: N_24  and  C_25
REMARK    8  A    between atoms: C_32  and  C_33
REMARK                            x       y       z     vdW  Elec       q    Type
REMARK                         _______ _______ _______ _____ _____    ______ ____
ROOT
ATOM      1  C   UNL     1       2.553   7.139  19.460  0.00  0.00    +0.000 A 
ATOM      2  N   UNL     1       1.737   7.580  20.438  0.00  0.00    +0.000 NA
ATOM      3  C   UNL     1       1.082   8.725  20.225  0.00  0.00    +0.000 A 
ATOM      4  N   UNL     1       0.429   9.253  21.336  0.00  0.00    +0.000 N 
ATOM      5  N   UNL     1       1.173   9.405  19.075  0.00  0.00    +0.000 NA
ATOM      6  C   UNL     1       1.978   8.929  18.115  0.00  0.00    +0.000 A 
ATOM      7  C   UNL     1       2.735   7.791  18.254  0.00  0.00    +0.000 A 
ATOM      8  C   UNL     1       3.654   7.342  17.176  0.00  0.00    +0.000 C 
ATOM      9  H   UNL     1       0.558   8.634  22.127  0.00  0.00    +0.000 HD
ENDROOT
BRANCH   4  10
ATOM     10  C   UNL     1       0.082  10.576  21.632  0.00  0.00    +0.000 A 
ATOM     11  C   UNL     1       0.698  11.673  21.026  0.00  0.00    +0.000 A 
ATOM     12  C   UNL     1       0.372  12.981  21.391  0.00  0.00    +0.000 A 
ATOM     13  C   UNL     1      -0.594  13.268  22.361  0.00  0.00    +0.000 A 
ATOM     14  C   UNL     1      -1.226  12.163  22.946  0.00  0.00    +0.000 A 
ATOM     15  C   UNL     1      -0.900  10.843  22.583  0.00  0.00    +0.000 A 
BRANCH  13  16
ATOM     16  N   UNL     1      -0.840  14.570  22.739  0.00  0.00    +0.000 N 
ATOM     17  C   UNL     1       0.055  15.666  22.325  0.00  0.00    +0.000 C 
ATOM     18  C   UNL     1       0.198  16.681  23.481  0.00  0.00    +0.000 C 
ATOM     19  N   UNL     1      -1.112  17.217  23.915  0.00  0.00    +0.000 NA
ATOM     20  C   UNL     1      -0.943  18.144  25.030  0.00  0.00    +0.000 C 
ATOM     21  C   UNL     1      -1.993  16.090  24.302  0.00  0.00    +0.000 C 
ATOM     22  C   UNL     1      -2.162  15.032  23.181  0.00  0.00    +0.000 C 
ENDBRANCH  13  16
ENDBRANCH   4  10
BRANCH   1  23
ATOM     23  O   UNL     1       3.292   5.987  19.675  0.00  0.00    +0.000 OA
BRANCH  23  29
ATOM     24  C   UNL     1       2.889   3.840  18.477  0.00  0.00    +0.000 A 
ATOM     25  C   UNL     1       2.061   2.710  18.376  0.00  0.00    +0.000 A 
ATOM     26  C   UNL     1       1.062   2.470  19.317  0.00  0.00    +0.000 A 
ATOM     27  C   UNL     1       0.868   3.368  20.360  0.00  0.00    +0.000 A 
ATOM     28  C   UNL     1       1.679   4.500  20.465  0.00  0.00    +0.000 A 
ATOM     29  C   UNL     1       2.711   4.738  19.547  0.00  0.00    +0.000 A 
BRANCH  24  32
ATOM     30  C   UNL     1       5.246   4.082  17.837  0.00  0.00    +0.000 C 
ATOM     31  O   UNL     1       5.736   3.855  18.938  0.00  0.00    +0.000 OA
ATOM     32  N   UNL     1       3.913   4.011  17.527  0.00  0.00    +0.000 N 
ATOM     33  H   UNL     1       3.638   3.926  16.557  0.00  0.00    +0.000 HD
BRANCH  30  35
ATOM     34  C   UNL     1       5.529   4.462  15.442  0.00  0.00    +0.000 C 
ATOM     35  C   UNL     1       6.086   4.426  16.662  0.00  0.00    +0.000 C 
ENDBRANCH  30  35
ENDBRANCH  24  32
ENDBRANCH  23  29
ENDBRANCH   1  23
TORSDOF 6
ENDMDL
