MODEL 1
REMARK VINA RESULT:      -7.9      0.000      0.000
REMARK  Name = 
REMARK  4 active torsions:
REMARK  status: ('A' for Active; 'I' for Inactive)
REMARK    1  A    between atoms: S_2  and  N_4
REMARK    2  A    between atoms: S_2  and  C_16
REMARK    3  A    between atoms: N_4  and  C_5
REMARK    4  A    between atoms: C_8  and  O_9
REMARK                            x       y       z     vdW  Elec       q    Type
REMARK                         _______ _______ _______ _____ _____    ______ ____
ROOT
ATOM      1  C   UNL     1       3.797   5.465  17.633  0.00  0.00    +0.000 A 
ATOM      2  C   UNL     1       3.499   6.831  17.622  0.00  0.00    +0.000 A 
ATOM      3  C   UNL     1       2.803   7.407  18.678  0.00  0.00    +0.000 A 
ATOM      4  C   UNL     1       2.415   6.613  19.756  0.00  0.00    +0.000 A 
ATOM      5  C   UNL     1       2.726   5.239  19.813  0.00  0.00    +0.000 A 
ATOM      6  C   UNL     1       2.343   4.444  20.914  0.00  0.00    +0.000 A 
ATOM      7  C   UNL     1       2.658   3.089  20.979  0.00  0.00    +0.000 A 
ATOM      8  C   UNL     1       3.368   2.502  19.943  0.00  0.00    +0.000 A 
ATOM      9  C   UNL     1       3.752   3.267  18.839  0.00  0.00    +0.000 A 
ATOM     10  C   UNL     1       3.441   4.646  18.740  0.00  0.00    +0.000 A 
ENDROOT
BRANCH   1  11
ATOM     11  N   UNL     1       4.480   4.945  16.475  0.00  0.00    +0.000 N 
ATOM     12  H   UNL     1       4.360   3.938  16.376  0.00  0.00    +0.000 HD
BRANCH  11  14
ATOM     13  O   UNL     1       6.280   6.786  16.431  0.00  0.00    +0.000 OA
ATOM     14  S   UNL     1       6.130   5.348  16.361  0.00  0.00    +0.000 S 
ATOM     15  O   UNL     1       6.871   4.456  17.225  0.00  0.00    +0.000 OA
BRANCH  14  16
ATOM     16  C   UNL     1       6.458   4.843  14.683  0.00  0.00    +0.000 A 
ATOM     17  C   UNL     1       5.626   3.906  14.064  0.00  0.00    +0.000 A 
ATOM     18  C   UNL     1       5.900   3.504  12.755  0.00  0.00    +0.000 A 
ATOM     19  C   UNL     1       6.992   4.043  12.072  0.00  0.00    +0.000 A 
ATOM     20  C   UNL     1       7.804   4.997  12.685  0.00  0.00    +0.000 A 
ATOM     21  C   UNL     1       7.536   5.407  13.992  0.00  0.00    +0.000 A 
ENDBRANCH  14  16
ENDBRANCH  11  14
ENDBRANCH   1  11
BRANCH   4  22
ATOM     22  O   UNL     1       1.717   7.184  20.790  0.00  0.00    +0.000 OA
ATOM     23  H   UNL     1       1.711   6.574  21.544  0.00  0.00    +0.000 HD
ENDBRANCH   4  22
TORSDOF 4
ENDMDL
MODEL 2
REMARK VINA RESULT:      -7.8      0.192      1.073
REMARK  Name = 
REMARK  4 active torsions:
REMARK  status: ('A' for Active; 'I' for Inactive)
REMARK    1  A    between atoms: S_2  and  N_4
REMARK    2  A    between atoms: S_2  and  C_16
REMARK    3  A    between atoms: N_4  and  C_5
REMARK    4  A    between atoms: C_8  and  O_9
REMARK                            x       y       z     vdW  Elec       q    Type
REMARK                         _______ _______ _______ _____ _____    ______ ____
ROOT
ATOM      1  C   UNL     1       3.985   5.294  17.643  0.00  0.00    +0.000 A 
ATOM      2  C   UNL     1       3.705   6.662  17.558  0.00  0.00    +0.000 A 
ATOM      3  C   UNL     1       2.981   7.294  18.563  0.00  0.00    +0.000 A 
ATOM      4  C   UNL     1       2.548   6.556  19.662  0.00  0.00    +0.000 A 
ATOM      5  C   UNL     1       2.839   5.182  19.794  0.00  0.00    +0.000 A 
ATOM      6  C   UNL     1       2.409   4.444  20.917  0.00  0.00    +0.000 A 
ATOM      7  C   UNL     1       2.705   3.090  21.055  0.00  0.00    +0.000 A 
ATOM      8  C   UNL     1       3.441   2.447  20.071  0.00  0.00    +0.000 A 
ATOM      9  C   UNL     1       3.872   3.155  18.946  0.00  0.00    +0.000 A 
ATOM     10  C   UNL     1       3.582   4.531  18.774  0.00  0.00    +0.000 A 
ENDROOT
BRANCH   1  11
ATOM     11  N   UNL     1       4.699   4.714  16.534  0.00  0.00    +0.000 N 
ATOM     12  H   UNL     1       4.680   3.695  16.553  0.00  0.00    +0.000 HD
BRANCH  11  14
ATOM     13  O   UNL     1       6.325   6.706  16.401  0.00  0.00    +0.000 OA
ATOM     14  S   UNL     1       6.298   5.260  16.331  0.00  0.00    +0.000 S 
ATOM     15  O   UNL     1       7.162   4.435  17.148  0.00  0.00    +0.000 OA
BRANCH  14  16
ATOM     16  C   UNL     1       6.576   4.788  14.635  0.00  0.00    +0.000 A 
ATOM     17  C   UNL     1       7.565   5.433  13.886  0.00  0.00    +0.000 A 
ATOM     18  C   UNL     1       7.765   5.067  12.554  0.00  0.00    +0.000 A 
ATOM     19  C   UNL     1       6.987   4.060  11.980  0.00  0.00    +0.000 A 
ATOM     20  C   UNL     1       6.018   3.401  12.739  0.00  0.00    +0.000 A 
ATOM     21  C   UNL     1       5.814   3.758  14.073  0.00  0.00    +0.000 A 
ENDBRANCH  14  16
ENDBRANCH  11  14
ENDBRANCH   1  11
BRANCH   4  22
ATOM     22  O   UNL     1       1.823   7.182  20.644  0.00  0.00    +0.000 OA
ATOM     23  H   UNL     1       2.190   8.068  20.794  0.00  0.00    +0.000 HD
ENDBRANCH   4  22
TORSDOF 4
ENDMDL
MODEL 3
REMARK VINA RESULT:      -7.8      1.145      2.702
REMARK  Name = 
REMARK  4 active torsions:
REMARK  status: ('A' for Active; 'I' for Inactive)
REMARK    1  A    between atoms: S_2  and  N_4
REMARK    2  A    between atoms: S_2  and  C_16
REMARK    3  A    between atoms: N_4  and  C_5
REMARK    4  A    between atoms: C_8  and  O_9
REMARK                            x       y       z     vdW  Elec       q    Type
REMARK                         _______ _______ _______ _____ _____    ______ ____
ROOT
ATOM      1  C   UNL     1       3.849   4.229  17.476  0.00  0.00    +0.000 A 
ATOM      2  C   UNL     1       3.999   2.885  17.832  0.00  0.00    +0.000 A 
ATOM      3  C   UNL     1       3.578   2.438  19.079  0.00  0.00    +0.000 A 
ATOM      4  C   UNL     1       2.991   3.337  19.966  0.00  0.00    +0.000 A 
ATOM      5  C   UNL     1       2.796   4.692  19.627  0.00  0.00    +0.000 A 
ATOM      6  C   UNL     1       2.188   5.594  20.526  0.00  0.00    +0.000 A 
ATOM      7  C   UNL     1       1.984   6.930  20.189  0.00  0.00    +0.000 A 
ATOM      8  C   UNL     1       2.382   7.390  18.943  0.00  0.00    +0.000 A 
ATOM      9  C   UNL     1       2.993   6.517  18.040  0.00  0.00    +0.000 A 
ATOM     10  C   UNL     1       3.220   5.155  18.354  0.00  0.00    +0.000 A 
ENDROOT
BRANCH   1  11
ATOM     11  N   UNL     1       4.357   4.613  16.183  0.00  0.00    +0.000 N 
ATOM     12  H   UNL     1       4.237   3.878  15.487  0.00  0.00    +0.000 HD
BRANCH  11  14
ATOM     13  O   UNL     1       5.975   6.614  16.280  0.00  0.00    +0.000 OA
ATOM     14  S   UNL     1       5.965   5.171  16.169  0.00  0.00    +0.000 S 
ATOM     15  O   UNL     1       6.741   4.327  17.052  0.00  0.00    +0.000 OA
BRANCH  14  16
ATOM     16  C   UNL     1       6.427   4.746  14.501  0.00  0.00    +0.000 A 
ATOM     17  C   UNL     1       7.510   5.389  13.893  0.00  0.00    +0.000 A 
ATOM     18  C   UNL     1       7.854   5.061  12.581  0.00  0.00    +0.000 A 
ATOM     19  C   UNL     1       7.126   4.093  11.887  0.00  0.00    +0.000 A 
ATOM     20  C   UNL     1       6.063   3.435  12.506  0.00  0.00    +0.000 A 
ATOM     21  C   UNL     1       5.713   3.754  13.819  0.00  0.00    +0.000 A 
ENDBRANCH  14  16
ENDBRANCH  11  14
ENDBRANCH   1  11
BRANCH   4  22
ATOM     22  O   UNL     1       2.589   2.892  21.200  0.00  0.00    +0.000 OA
ATOM     23  H   UNL     1       1.777   3.359  21.457  0.00  0.00    +0.000 HD
ENDBRANCH   4  22
TORSDOF 4
ENDMDL
MODEL 4
REMARK VINA RESULT:      -7.7      1.219      2.514
REMARK  Name = 
REMARK  4 active torsions:
REMARK  status: ('A' for Active; 'I' for Inactive)
REMARK    1  A    between atoms: S_2  and  N_4
REMARK    2  A    between atoms: S_2  and  C_16
REMARK    3  A    between atoms: N_4  and  C_5
REMARK    4  A    between atoms: C_8  and  O_9
REMARK                            x       y       z     vdW  Elec       q    Type
REMARK                         _______ _______ _______ _____ _____    ______ ____
ROOT
ATOM      1  C   UNL     1       3.869   4.029  17.491  0.00  0.00    +0.000 A 
ATOM      2  C   UNL     1       4.048   2.684  17.832  0.00  0.00    +0.000 A 
ATOM      3  C   UNL     1       3.664   2.221  19.085  0.00  0.00    +0.000 A 
ATOM      4  C   UNL     1       3.086   3.104  19.994  0.00  0.00    +0.000 A 
ATOM      5  C   UNL     1       2.863   4.458  19.671  0.00  0.00    +0.000 A 
ATOM      6  C   UNL     1       2.264   5.344  20.592  0.00  0.00    +0.000 A 
ATOM      7  C   UNL     1       2.032   6.680  20.272  0.00  0.00    +0.000 A 
ATOM      8  C   UNL     1       2.393   7.156  19.020  0.00  0.00    +0.000 A 
ATOM      9  C   UNL     1       2.994   6.299  18.095  0.00  0.00    +0.000 A 
ATOM     10  C   UNL     1       3.248   4.938  18.392  0.00  0.00    +0.000 A 
ENDROOT
BRANCH   1  11
ATOM     11  N   UNL     1       4.340   4.431  16.190  0.00  0.00    +0.000 N 
ATOM     12  H   UNL     1       4.271   3.679  15.505  0.00  0.00    +0.000 HD
BRANCH  11  14
ATOM     13  O   UNL     1       5.804   6.548  16.256  0.00  0.00    +0.000 OA
ATOM     14  S   UNL     1       5.902   5.107  16.156  0.00  0.00    +0.000 S 
ATOM     15  O   UNL     1       6.745   4.331  17.039  0.00  0.00    +0.000 OA
BRANCH  14  16
ATOM     16  C   UNL     1       6.380   4.704  14.488  0.00  0.00    +0.000 A 
ATOM     17  C   UNL     1       5.650   3.757  13.764  0.00  0.00    +0.000 A 
ATOM     18  C   UNL     1       6.042   3.436  12.463  0.00  0.00    +0.000 A 
ATOM     19  C   UNL     1       7.149   4.063  11.891  0.00  0.00    +0.000 A 
ATOM     20  C   UNL     1       7.860   5.027  12.607  0.00  0.00    +0.000 A 
ATOM     21  C   UNL     1       7.473   5.357  13.907  0.00  0.00    +0.000 A 
ENDBRANCH  14  16
ENDBRANCH  11  14
ENDBRANCH   1  11
BRANCH   4  22
ATOM     22  O   UNL     1       2.720   2.643  21.234  0.00  0.00    +0.000 OA
ATOM     23  H   UNL     1       3.508   2.592  21.798  0.00  0.00    +0.000 HD
ENDBRANCH   4  22
TORSDOF 4
ENDMDL
MODEL 5
REMARK VINA RESULT:      -7.7      2.987      4.141
REMARK  Name = 
REMARK  4 active torsions:
REMARK  status: ('A' for Active; 'I' for Inactive)
REMARK    1  A    between atoms: S_2  and  N_4
REMARK    2  A    between atoms: S_2  and  C_16
REMARK    3  A    between atoms: N_4  and  C_5
REMARK    4  A    between atoms: C_8  and  O_9
REMARK                            x       y       z     vdW  Elec       q    Type
REMARK                         _______ _______ _______ _____ _____    ______ ____
ROOT
ATOM      1  C   UNL     1       3.914   3.203  18.394  0.00  0.00    +0.000 A 
ATOM      2  C   UNL     1       3.357   2.005  17.932  0.00  0.00    +0.000 A 
ATOM      3  C   UNL     1       2.042   1.678  18.239  0.00  0.00    +0.000 A 
ATOM      4  C   UNL     1       1.276   2.560  18.998  0.00  0.00    +0.000 A 
ATOM      5  C   UNL     1       1.796   3.790  19.453  0.00  0.00    +0.000 A 
ATOM      6  C   UNL     1       1.010   4.684  20.210  0.00  0.00    +0.000 A 
ATOM      7  C   UNL     1       1.517   5.905  20.651  0.00  0.00    +0.000 A 
ATOM      8  C   UNL     1       2.823   6.256  20.340  0.00  0.00    +0.000 A 
ATOM      9  C   UNL     1       3.622   5.383  19.598  0.00  0.00    +0.000 A 
ATOM     10  C   UNL     1       3.137   4.132  19.140  0.00  0.00    +0.000 A 
ENDROOT
BRANCH   1  11
ATOM     11  N   UNL     1       5.298   3.437  18.068  0.00  0.00    +0.000 N 
ATOM     12  H   UNL     1       5.825   3.798  18.862  0.00  0.00    +0.000 HD
BRANCH  11  14
ATOM     13  O   UNL     1       6.359   3.676  15.734  0.00  0.00    +0.000 OA
ATOM     14  S   UNL     1       5.569   4.411  16.699  0.00  0.00    +0.000 S 
ATOM     15  O   UNL     1       4.318   5.045  16.344  0.00  0.00    +0.000 OA
BRANCH  14  16
ATOM     16  C   UNL     1       6.609   5.670  17.413  0.00  0.00    +0.000 A 
ATOM     17  C   UNL     1       6.641   6.949  16.849  0.00  0.00    +0.000 A 
ATOM     18  C   UNL     1       7.471   7.924  17.406  0.00  0.00    +0.000 A 
ATOM     19  C   UNL     1       8.254   7.623  18.522  0.00  0.00    +0.000 A 
ATOM     20  C   UNL     1       8.199   6.353  19.098  0.00  0.00    +0.000 A 
ATOM     21  C   UNL     1       7.370   5.373  18.549  0.00  0.00    +0.000 A 
ENDBRANCH  14  16
ENDBRANCH  11  14
ENDBRANCH   1  11
BRANCH   4  22
ATOM     22  O   UNL     1      -0.018   2.226  19.308  0.00  0.00    +0.000 OA
ATOM     23  H   UNL     1      -0.473   1.934  18.502  0.00  0.00    +0.000 HD
ENDBRANCH   4  22
TORSDOF 4
ENDMDL
MODEL 6
REMARK VINA RESULT:      -7.7      2.985      4.117
REMARK  Name = 
REMARK  4 active torsions:
REMARK  status: ('A' for Active; 'I' for Inactive)
REMARK    1  A    between atoms: S_2  and  N_4
REMARK    2  A    between atoms: S_2  and  C_16
REMARK    3  A    between atoms: N_4  and  C_5
REMARK    4  A    between atoms: C_8  and  O_9
REMARK                            x       y       z     vdW  Elec       q    Type
REMARK                         _______ _______ _______ _____ _____    ______ ____
ROOT
ATOM      1  C   UNL     1       3.951   3.219  18.388  0.00  0.00    +0.000 A 
ATOM      2  C   UNL     1       3.404   2.026  17.904  0.00  0.00    +0.000 A 
ATOM      3  C   UNL     1       2.087   1.690  18.192  0.00  0.00    +0.000 A 
ATOM      4  C   UNL     1       1.310   2.557  18.957  0.00  0.00    +0.000 A 
ATOM      5  C   UNL     1       1.821   3.782  19.435  0.00  0.00    +0.000 A 
ATOM      6  C   UNL     1       1.025   4.662  20.198  0.00  0.00    +0.000 A 
ATOM      7  C   UNL     1       1.522   5.878  20.661  0.00  0.00    +0.000 A 
ATOM      8  C   UNL     1       2.829   6.239  20.368  0.00  0.00    +0.000 A 
ATOM      9  C   UNL     1       3.639   5.380  19.621  0.00  0.00    +0.000 A 
ATOM     10  C   UNL     1       3.164   4.134  19.140  0.00  0.00    +0.000 A 
ENDROOT
BRANCH   1  11
ATOM     11  N   UNL     1       5.337   3.464  18.079  0.00  0.00    +0.000 N 
ATOM     12  H   UNL     1       5.851   3.837  18.877  0.00  0.00    +0.000 HD
BRANCH  11  14
ATOM     13  O   UNL     1       6.413   3.683  15.750  0.00  0.00    +0.000 OA
ATOM     14  S   UNL     1       5.619   4.427  16.705  0.00  0.00    +0.000 S 
ATOM     15  O   UNL     1       4.370   5.061  16.338  0.00  0.00    +0.000 OA
BRANCH  14  16
ATOM     16  C   UNL     1       6.657   5.689  17.417  0.00  0.00    +0.000 A 
ATOM     17  C   UNL     1       7.418   5.404  18.554  0.00  0.00    +0.000 A 
ATOM     18  C   UNL     1       8.215   6.404  19.114  0.00  0.00    +0.000 A 
ATOM     19  C   UNL     1       8.256   7.673  18.536  0.00  0.00    +0.000 A 
ATOM     20  C   UNL     1       7.515   7.946  17.385  0.00  0.00    +0.000 A 
ATOM     21  C   UNL     1       6.717   6.952  16.817  0.00  0.00    +0.000 A 
ENDBRANCH  14  16
ENDBRANCH  11  14
ENDBRANCH   1  11
BRANCH   4  22
ATOM     22  O   UNL     1       0.015   2.214  19.250  0.00  0.00    +0.000 OA
ATOM     23  H   UNL     1      -0.026   1.263  19.442  0.00  0.00    +0.000 HD
ENDBRANCH   4  22
TORSDOF 4
ENDMDL
MODEL 7
REMARK VINA RESULT:      -7.6      2.815      5.965
REMARK  Name = 
REMARK  4 active torsions:
REMARK  status: ('A' for Active; 'I' for Inactive)
REMARK    1  A    between atoms: S_2  and  N_4
REMARK    2  A    between atoms: S_2  and  C_16
REMARK    3  A    between atoms: N_4  and  C_5
REMARK    4  A    between atoms: C_8  and  O_9
REMARK                            x       y       z     vdW  Elec       q    Type
REMARK                         _______ _______ _______ _____ _____    ______ ____
ROOT
ATOM      1  C   UNL     1       5.323   4.475  18.342  0.00  0.00    +0.000 A 
ATOM      2  C   UNL     1       6.188   4.342  17.252  0.00  0.00    +0.000 A 
ATOM      3  C   UNL     1       6.105   5.220  16.178  0.00  0.00    +0.000 A 
ATOM      4  C   UNL     1       5.160   6.244  16.202  0.00  0.00    +0.000 A 
ATOM      5  C   UNL     1       4.293   6.425  17.299  0.00  0.00    +0.000 A 
ATOM      6  C   UNL     1       3.348   7.472  17.323  0.00  0.00    +0.000 A 
ATOM      7  C   UNL     1       2.498   7.661  18.410  0.00  0.00    +0.000 A 
ATOM      8  C   UNL     1       2.578   6.805  19.499  0.00  0.00    +0.000 A 
ATOM      9  C   UNL     1       3.502   5.757  19.494  0.00  0.00    +0.000 A 
ATOM     10  C   UNL     1       4.376   5.535  18.402  0.00  0.00    +0.000 A 
ENDROOT
BRANCH   1  11
ATOM     11  N   UNL     1       5.449   3.492  19.388  0.00  0.00    +0.000 N 
ATOM     12  H   UNL     1       6.423   3.292  19.615  0.00  0.00    +0.000 HD
BRANCH  11  14
ATOM     13  O   UNL     1       4.492   1.793  17.707  0.00  0.00    +0.000 OA
ATOM     14  S   UNL     1       4.602   2.039  19.129  0.00  0.00    +0.000 S 
ATOM     15  O   UNL     1       5.126   1.045  20.042  0.00  0.00    +0.000 OA
BRANCH  14  16
ATOM     16  C   UNL     1       2.991   2.505  19.732  0.00  0.00    +0.000 A 
ATOM     17  C   UNL     1       1.928   2.648  18.835  0.00  0.00    +0.000 A 
ATOM     18  C   UNL     1       0.674   3.029  19.315  0.00  0.00    +0.000 A 
ATOM     19  C   UNL     1       0.485   3.256  20.679  0.00  0.00    +0.000 A 
ATOM     20  C   UNL     1       1.542   3.087  21.573  0.00  0.00    +0.000 A 
ATOM     21  C   UNL     1       2.799   2.703  21.103  0.00  0.00    +0.000 A 
ENDBRANCH  14  16
ENDBRANCH  11  14
ENDBRANCH   1  11
BRANCH   4  22
ATOM     22  O   UNL     1       5.074   7.100  15.133  0.00  0.00    +0.000 OA
ATOM     23  H   UNL     1       5.776   7.766  15.202  0.00  0.00    +0.000 HD
ENDBRANCH   4  22
TORSDOF 4
ENDMDL
MODEL 8
REMARK VINA RESULT:      -7.6      2.775      6.109
REMARK  Name = 
REMARK  4 active torsions:
REMARK  status: ('A' for Active; 'I' for Inactive)
REMARK    1  A    between atoms: S_2  and  N_4
REMARK    2  A    between atoms: S_2  and  C_16
REMARK    3  A    between atoms: N_4  and  C_5
REMARK    4  A    between atoms: C_8  and  O_9
REMARK                            x       y       z     vdW  Elec       q    Type
REMARK                         _______ _______ _______ _____ _____    ______ ____
ROOT
ATOM      1  C   UNL     1       5.031   3.571  17.258  0.00  0.00    +0.000 A 
ATOM      2  C   UNL     1       4.965   3.277  15.892  0.00  0.00    +0.000 A 
ATOM      3  C   UNL     1       5.768   3.962  14.987  0.00  0.00    +0.000 A 
ATOM      4  C   UNL     1       6.650   4.934  15.454  0.00  0.00    +0.000 A 
ATOM      5  C   UNL     1       6.763   5.234  16.827  0.00  0.00    +0.000 A 
ATOM      6  C   UNL     1       7.668   6.211  17.294  0.00  0.00    +0.000 A 
ATOM      7  C   UNL     1       7.791   6.500  18.650  0.00  0.00    +0.000 A 
ATOM      8  C   UNL     1       7.011   5.815  19.570  0.00  0.00    +0.000 A 
ATOM      9  C   UNL     1       6.102   4.849  19.131  0.00  0.00    +0.000 A 
ATOM     10  C   UNL     1       5.950   4.536  17.757  0.00  0.00    +0.000 A 
ENDROOT
BRANCH   1  11
ATOM     11  N   UNL     1       4.129   2.846  18.117  0.00  0.00    +0.000 N 
ATOM     12  H   UNL     1       4.290   1.840  18.084  0.00  0.00    +0.000 HD
BRANCH  11  14
ATOM     13  O   UNL     1       2.220   3.378  16.473  0.00  0.00    +0.000 OA
ATOM     14  S   UNL     1       2.476   3.178  17.883  0.00  0.00    +0.000 S 
ATOM     15  O   UNL     1       1.714   2.238  18.677  0.00  0.00    +0.000 OA
BRANCH  14  16
ATOM     16  C   UNL     1       2.359   4.761  18.692  0.00  0.00    +0.000 A 
ATOM     17  C   UNL     1       2.010   4.828  20.045  0.00  0.00    +0.000 A 
ATOM     18  C   UNL     1       1.905   6.073  20.666  0.00  0.00    +0.000 A 
ATOM     19  C   UNL     1       2.155   7.240  19.941  0.00  0.00    +0.000 A 
ATOM     20  C   UNL     1       2.527   7.168  18.598  0.00  0.00    +0.000 A 
ATOM     21  C   UNL     1       2.638   5.927  17.970  0.00  0.00    +0.000 A 
ENDBRANCH  14  16
ENDBRANCH  11  14
ENDBRANCH   1  11
BRANCH   4  22
ATOM     22  O   UNL     1       7.430   5.616  14.554  0.00  0.00    +0.000 OA
ATOM     23  H   UNL     1       8.061   6.173  15.039  0.00  0.00    +0.000 HD
ENDBRANCH   4  22
TORSDOF 4
ENDMDL
MODEL 9
REMARK VINA RESULT:      -7.6      2.814      5.980
REMARK  Name = 
REMARK  4 active torsions:
REMARK  status: ('A' for Active; 'I' for Inactive)
REMARK    1  A    between atoms: S_2  and  N_4
REMARK    2  A    between atoms: S_2  and  C_16
REMARK    3  A    between atoms: N_4  and  C_5
REMARK    4  A    between atoms: C_8  and  O_9
REMARK                            x       y       z     vdW  Elec       q    Type
REMARK                         _______ _______ _______ _____ _____    ______ ____
ROOT
ATOM      1  C   UNL     1       5.306   4.487  18.339  0.00  0.00    +0.000 A 
ATOM      2  C   UNL     1       6.169   4.347  17.247  0.00  0.00    +0.000 A 
ATOM      3  C   UNL     1       6.088   5.222  16.171  0.00  0.00    +0.000 A 
ATOM      4  C   UNL     1       5.148   6.250  16.195  0.00  0.00    +0.000 A 
ATOM      5  C   UNL     1       4.283   6.439  17.293  0.00  0.00    +0.000 A 
ATOM      6  C   UNL     1       3.343   7.490  17.316  0.00  0.00    +0.000 A 
ATOM      7  C   UNL     1       2.496   7.686  18.404  0.00  0.00    +0.000 A 
ATOM      8  C   UNL     1       2.575   6.833  19.494  0.00  0.00    +0.000 A 
ATOM      9  C   UNL     1       3.493   5.780  19.491  0.00  0.00    +0.000 A 
ATOM     10  C   UNL     1       4.364   5.551  18.397  0.00  0.00    +0.000 A 
ENDROOT
BRANCH   1  11
ATOM     11  N   UNL     1       5.430   3.506  19.388  0.00  0.00    +0.000 N 
ATOM     12  H   UNL     1       6.402   3.312  19.622  0.00  0.00    +0.000 HD
BRANCH  11  14
ATOM     13  O   UNL     1       4.504   1.795  17.701  0.00  0.00    +0.000 OA
ATOM     14  S   UNL     1       4.593   2.047  19.123  0.00  0.00    +0.000 S 
ATOM     15  O   UNL     1       5.110   1.060  20.047  0.00  0.00    +0.000 OA
BRANCH  14  16
ATOM     16  C   UNL     1       2.972   2.508  19.702  0.00  0.00    +0.000 A 
ATOM     17  C   UNL     1       2.760   2.739  21.065  0.00  0.00    +0.000 A 
ATOM     18  C   UNL     1       1.483   3.084  21.511  0.00  0.00    +0.000 A 
ATOM     19  C   UNL     1       0.431   3.204  20.600  0.00  0.00    +0.000 A 
ATOM     20  C   UNL     1       0.653   2.997  19.238  0.00  0.00    +0.000 A 
ATOM     21  C   UNL     1       1.928   2.655  18.783  0.00  0.00    +0.000 A 
ENDBRANCH  14  16
ENDBRANCH  11  14
ENDBRANCH   1  11
BRANCH   4  22
ATOM     22  O   UNL     1       5.063   7.104  15.123  0.00  0.00    +0.000 OA
ATOM     23  H   UNL     1       4.199   6.991  14.695  0.00  0.00    +0.000 HD
ENDBRANCH   4  22
TORSDOF 4
ENDMDL
