MODEL 1
REMARK VINA RESULT:      -6.6      0.000      0.000
REMARK  Name = 
REMARK  10 active torsions:
REMARK  status: ('A' for Active; 'I' for Inactive)
REMARK    1  A    between atoms: O_1  and  C_2
REMARK    2  A    between atoms: C_2  and  C_3
REMARK    3  A    between atoms: C_5  and  O_6
REMARK    4  A    between atoms: O_6  and  N_7
REMARK    5  A    between atoms: C_8  and  C_9
REMARK    6  A    between atoms: C_12  and  O_13
REMARK    7  A    between atoms: C_15  and  O_16
REMARK    8  A    between atoms: C_17  and  O_18
REMARK    9  A    between atoms: C_19  and  O_20
REMARK   10  A    between atoms: C_21  and  O_22
REMARK                            x       y       z     vdW  Elec       q    Type
REMARK                         _______ _______ _______ _____ _____    ______ ____
ROOT
ATOM      1  C   UNL     1       3.742   2.403  18.088  0.00  0.00    +0.000 C 
ATOM      2  O   UNL     1       4.574   3.359  17.423  0.00  0.00    +0.000 OA
ATOM      3  C   UNL     1       4.511   4.722  17.879  0.00  0.00    +0.000 C 
ATOM      4  C   UNL     1       4.594   4.880  19.423  0.00  0.00    +0.000 C 
ATOM      5  C   UNL     1       3.664   3.892  20.155  0.00  0.00    +0.000 C 
ATOM      6  C   UNL     1       3.888   2.470  19.620  0.00  0.00    +0.000 C 
ENDROOT
BRANCH   4   7
ATOM      7  O   UNL     1       5.955   4.661  19.858  0.00  0.00    +0.000 OA
ATOM      8  H   UNL     1       6.281   5.527  20.195  0.00  0.00    +0.000 HD
ENDBRANCH   4   7
BRANCH   5   9
ATOM      9  O   UNL     1       2.281   4.238  20.096  0.00  0.00    +0.000 OA
ATOM     10  H   UNL     1       2.230   5.218  20.130  0.00  0.00    +0.000 HD
ENDBRANCH   5   9
BRANCH   6  11
ATOM     11  O   UNL     1       5.239   2.096  19.973  0.00  0.00    +0.000 OA
ATOM     12  H   UNL     1       5.736   2.924  20.123  0.00  0.00    +0.000 HD
ENDBRANCH   6  11
BRANCH   1  13
ATOM     13  C   UNL     1       2.302   2.375  17.559  0.00  0.00    +0.000 C 
BRANCH  13  14
ATOM     14  O   UNL     1       1.446   1.741  18.506  0.00  0.00    +0.000 OA
ATOM     15  H   UNL     1       1.670   0.794  18.508  0.00  0.00    +0.000 HD
ENDBRANCH  13  14
ENDBRANCH   1  13
BRANCH   3  16
ATOM     16  O   UNL     1       3.473   5.460  17.206  0.00  0.00    +0.000 OA
BRANCH  16  17
ATOM     17  N   UNL     1       2.624   6.135  18.090  0.00  0.00    +0.000 NA
ATOM     18  C   UNL     1       2.729   7.416  17.908  0.00  0.00    +0.000 C 
BRANCH  18  19
ATOM     19  C   UNL     1       1.886   8.364  18.667  0.00  0.00    +0.000 A 
ATOM     20  C   UNL     1       1.309   9.469  18.022  0.00  0.00    +0.000 A 
ATOM     21  C   UNL     1       0.597  10.420  18.756  0.00  0.00    +0.000 A 
ATOM     22  C   UNL     1       0.453  10.251  20.126  0.00  0.00    +0.000 A 
ATOM     23  C   UNL     1       0.986   9.143  20.773  0.00  0.00    +0.000 A 
ATOM     24  C   UNL     1       1.709   8.198  20.042  0.00  0.00    +0.000 A 
BRANCH  22  25
ATOM     25  O   UNL     1      -0.217  11.167  20.883  0.00  0.00    +0.000 OA
ATOM     26  H   UNL     1      -0.962  10.723  21.323  0.00  0.00    +0.000 HD
ENDBRANCH  22  25
BRANCH  24  27
ATOM     27  O   UNL     1       2.261   7.122  20.679  0.00  0.00    +0.000 OA
ATOM     28  H   UNL     1       2.105   6.324  20.148  0.00  0.00    +0.000 HD
ENDBRANCH  24  27
ENDBRANCH  18  19
ENDBRANCH  16  17
ENDBRANCH   3  16
TORSDOF 10
ENDMDL
MODEL 2
REMARK VINA RESULT:      -6.5      1.448      3.133
REMARK  Name = 
REMARK  10 active torsions:
REMARK  status: ('A' for Active; 'I' for Inactive)
REMARK    1  A    between atoms: O_1  and  C_2
REMARK    2  A    between atoms: C_2  and  C_3
REMARK    3  A    between atoms: C_5  and  O_6
REMARK    4  A    between atoms: O_6  and  N_7
REMARK    5  A    between atoms: C_8  and  C_9
REMARK    6  A    between atoms: C_12  and  O_13
REMARK    7  A    between atoms: C_15  and  O_16
REMARK    8  A    between atoms: C_17  and  O_18
REMARK    9  A    between atoms: C_19  and  O_20
REMARK   10  A    between atoms: C_21  and  O_22
REMARK                            x       y       z     vdW  Elec       q    Type
REMARK                         _______ _______ _______ _____ _____    ______ ____
ROOT
ATOM      1  C   UNL     1       3.991   2.897  19.315  0.00  0.00    +0.000 C 
ATOM      2  O   UNL     1       3.121   2.809  20.449  0.00  0.00    +0.000 OA
ATOM      3  C   UNL     1       1.934   3.619  20.436  0.00  0.00    +0.000 C 
ATOM      4  C   UNL     1       1.133   3.553  19.106  0.00  0.00    +0.000 C 
ATOM      5  C   UNL     1       2.048   3.698  17.873  0.00  0.00    +0.000 C 
ATOM      6  C   UNL     1       3.232   2.726  17.985  0.00  0.00    +0.000 C 
ENDROOT
BRANCH   4   7
ATOM      7  O   UNL     1       0.429   2.291  19.028  0.00  0.00    +0.000 OA
ATOM      8  H   UNL     1      -0.409   2.409  19.532  0.00  0.00    +0.000 HD
ENDBRANCH   4   7
BRANCH   5   9
ATOM      9  O   UNL     1       2.510   5.028  17.642  0.00  0.00    +0.000 OA
ATOM     10  H   UNL     1       1.720   5.571  17.427  0.00  0.00    +0.000 HD
ENDBRANCH   5   9
BRANCH   6  11
ATOM     11  O   UNL     1       2.686   1.390  17.933  0.00  0.00    +0.000 OA
ATOM     12  H   UNL     1       2.766   1.082  17.008  0.00  0.00    +0.000 HD
ENDBRANCH   6  11
BRANCH   1  13
ATOM     13  C   UNL     1       4.959   4.085  19.380  0.00  0.00    +0.000 C 
BRANCH  13  14
ATOM     14  O   UNL     1       6.080   3.848  18.532  0.00  0.00    +0.000 OA
ATOM     15  H   UNL     1       6.068   4.533  17.841  0.00  0.00    +0.000 HD
ENDBRANCH  13  14
ENDBRANCH   1  13
BRANCH   3  16
ATOM     16  O   UNL     1       2.178   4.931  20.981  0.00  0.00    +0.000 OA
BRANCH  16  17
ATOM     17  N   UNL     1       1.583   5.952  20.231  0.00  0.00    +0.000 NA
ATOM     18  C   UNL     1       1.896   7.106  20.735  0.00  0.00    +0.000 C 
BRANCH  18  19
ATOM     19  C   UNL     1       1.455   8.362  20.091  0.00  0.00    +0.000 A 
ATOM     20  C   UNL     1       0.577   9.228  20.760  0.00  0.00    +0.000 A 
ATOM     21  C   UNL     1       0.080  10.363  20.115  0.00  0.00    +0.000 A 
ATOM     22  C   UNL     1       0.476  10.632  18.813  0.00  0.00    +0.000 A 
ATOM     23  C   UNL     1       1.375   9.803  18.150  0.00  0.00    +0.000 A 
ATOM     24  C   UNL     1       1.863   8.662  18.790  0.00  0.00    +0.000 A 
BRANCH  22  25
ATOM     25  O   UNL     1      -0.002  11.717  18.139  0.00  0.00    +0.000 OA
ATOM     26  H   UNL     1      -0.891  11.510  17.805  0.00  0.00    +0.000 HD
ENDBRANCH  22  25
BRANCH  24  27
ATOM     27  O   UNL     1       2.723   7.829  18.131  0.00  0.00    +0.000 OA
ATOM     28  H   UNL     1       3.576   7.821  18.597  0.00  0.00    +0.000 HD
ENDBRANCH  24  27
ENDBRANCH  18  19
ENDBRANCH  16  17
ENDBRANCH   3  16
TORSDOF 10
ENDMDL
MODEL 3
REMARK VINA RESULT:      -6.5      1.796      2.957
REMARK  Name = 
REMARK  10 active torsions:
REMARK  status: ('A' for Active; 'I' for Inactive)
REMARK    1  A    between atoms: O_1  and  C_2
REMARK    2  A    between atoms: C_2  and  C_3
REMARK    3  A    between atoms: C_5  and  O_6
REMARK    4  A    between atoms: O_6  and  N_7
REMARK    5  A    between atoms: C_8  and  C_9
REMARK    6  A    between atoms: C_12  and  O_13
REMARK    7  A    between atoms: C_15  and  O_16
REMARK    8  A    between atoms: C_17  and  O_18
REMARK    9  A    between atoms: C_19  and  O_20
REMARK   10  A    between atoms: C_21  and  O_22
REMARK                            x       y       z     vdW  Elec       q    Type
REMARK                         _______ _______ _______ _____ _____    ______ ____
ROOT
ATOM      1  C   UNL     1       1.434   3.247  20.238  0.00  0.00    +0.000 C 
ATOM      2  O   UNL     1       1.197   4.374  19.388  0.00  0.00    +0.000 OA
ATOM      3  C   UNL     1       2.296   4.844  18.589  0.00  0.00    +0.000 C 
ATOM      4  C   UNL     1       3.059   3.720  17.833  0.00  0.00    +0.000 C 
ATOM      5  C   UNL     1       3.369   2.518  18.747  0.00  0.00    +0.000 C 
ATOM      6  C   UNL     1       2.094   2.077  19.482  0.00  0.00    +0.000 C 
ENDROOT
BRANCH   4   7
ATOM      7  O   UNL     1       2.266   3.270  16.710  0.00  0.00    +0.000 OA
ATOM      8  H   UNL     1       1.564   2.688  17.082  0.00  0.00    +0.000 HD
ENDBRANCH   4   7
BRANCH   5   9
ATOM      9  O   UNL     1       4.428   2.747  19.675  0.00  0.00    +0.000 OA
ATOM     10  H   UNL     1       5.087   3.317  19.221  0.00  0.00    +0.000 HD
ENDBRANCH   5   9
BRANCH   6  11
ATOM     11  O   UNL     1       1.174   1.598  18.477  0.00  0.00    +0.000 OA
ATOM     12  H   UNL     1       1.259   2.190  17.703  0.00  0.00    +0.000 HD
ENDBRANCH   6  11
BRANCH   1  13
ATOM     13  C   UNL     1       2.079   3.619  21.579  0.00  0.00    +0.000 C 
BRANCH  13  14
ATOM     14  O   UNL     1       2.731   2.482  22.139  0.00  0.00    +0.000 OA
ATOM     15  H   UNL     1       2.039   1.839  22.373  0.00  0.00    +0.000 HD
ENDBRANCH  13  14
ENDBRANCH   1  13
BRANCH   3  16
ATOM     16  O   UNL     1       3.098   5.806  19.301  0.00  0.00    +0.000 OA
BRANCH  16  17
ATOM     17  N   UNL     1       2.334   6.809  19.910  0.00  0.00    +0.000 NA
ATOM     18  C   UNL     1       2.192   7.808  19.093  0.00  0.00    +0.000 C 
BRANCH  18  19
ATOM     19  C   UNL     1       1.365   8.977  19.460  0.00  0.00    +0.000 A 
ATOM     20  C   UNL     1       0.695   9.009  20.693  0.00  0.00    +0.000 A 
ATOM     21  C   UNL     1      -0.167  10.065  20.999  0.00  0.00    +0.000 A 
ATOM     22  C   UNL     1      -0.340  11.088  20.078  0.00  0.00    +0.000 A 
ATOM     23  C   UNL     1       0.346  11.090  18.867  0.00  0.00    +0.000 A 
ATOM     24  C   UNL     1       1.198  10.028  18.557  0.00  0.00    +0.000 A 
BRANCH  22  25
ATOM     25  O   UNL     1      -1.189  12.127  20.327  0.00  0.00    +0.000 OA
ATOM     26  H   UNL     1      -1.016  12.462  21.224  0.00  0.00    +0.000 HD
ENDBRANCH  22  25
BRANCH  24  27
ATOM     27  O   UNL     1       1.851  10.010  17.356  0.00  0.00    +0.000 OA
ATOM     28  H   UNL     1       2.340  10.843  17.248  0.00  0.00    +0.000 HD
ENDBRANCH  24  27
ENDBRANCH  18  19
ENDBRANCH  16  17
ENDBRANCH   3  16
TORSDOF 10
ENDMDL
MODEL 4
REMARK VINA RESULT:      -6.5      2.183      3.837
REMARK  Name = 
REMARK  10 active torsions:
REMARK  status: ('A' for Active; 'I' for Inactive)
REMARK    1  A    between atoms: O_1  and  C_2
REMARK    2  A    between atoms: C_2  and  C_3
REMARK    3  A    between atoms: C_5  and  O_6
REMARK    4  A    between atoms: O_6  and  N_7
REMARK    5  A    between atoms: C_8  and  C_9
REMARK    6  A    between atoms: C_12  and  O_13
REMARK    7  A    between atoms: C_15  and  O_16
REMARK    8  A    between atoms: C_17  and  O_18
REMARK    9  A    between atoms: C_19  and  O_20
REMARK   10  A    between atoms: C_21  and  O_22
REMARK                            x       y       z     vdW  Elec       q    Type
REMARK                         _______ _______ _______ _____ _____    ______ ____
ROOT
ATOM      1  C   UNL     1       7.543   5.059  17.959  0.00  0.00    +0.000 C 
ATOM      2  O   UNL     1       6.601   4.040  18.312  0.00  0.00    +0.000 OA
ATOM      3  C   UNL     1       5.205   4.361  18.194  0.00  0.00    +0.000 C 
ATOM      4  C   UNL     1       4.820   5.044  16.851  0.00  0.00    +0.000 C 
ATOM      5  C   UNL     1       5.796   6.179  16.481  0.00  0.00    +0.000 C 
ATOM      6  C   UNL     1       7.244   5.676  16.580  0.00  0.00    +0.000 C 
ENDROOT
BRANCH   4   7
ATOM      7  O   UNL     1       4.816   4.058  15.793  0.00  0.00    +0.000 OA
ATOM      8  H   UNL     1       5.604   4.248  15.233  0.00  0.00    +0.000 HD
ENDBRANCH   4   7
BRANCH   5   9
ATOM      9  O   UNL     1       5.624   7.370  17.248  0.00  0.00    +0.000 OA
ATOM     10  H   UNL     1       4.657   7.501  17.359  0.00  0.00    +0.000 HD
ENDBRANCH   5   9
BRANCH   6  11
ATOM     11  O   UNL     1       7.404   4.655  15.571  0.00  0.00    +0.000 OA
ATOM     12  H   UNL     1       8.323   4.328  15.636  0.00  0.00    +0.000 HD
ENDBRANCH   6  11
BRANCH   1  13
ATOM     13  C   UNL     1       7.813   6.059  19.090  0.00  0.00    +0.000 C 
BRANCH  13  14
ATOM     14  O   UNL     1       7.769   5.394  20.351  0.00  0.00    +0.000 OA
ATOM     15  H   UNL     1       6.831   5.273  20.580  0.00  0.00    +0.000 HD
ENDBRANCH  13  14
ENDBRANCH   1  13
BRANCH   3  16
ATOM     16  O   UNL     1       4.694   4.966  19.398  0.00  0.00    +0.000 OA
BRANCH  16  17
ATOM     17  N   UNL     1       4.139   6.232  19.179  0.00  0.00    +0.000 NA
ATOM     18  C   UNL     1       2.950   6.285  19.695  0.00  0.00    +0.000 C 
BRANCH  18  19
ATOM     19  C   UNL     1       2.164   7.537  19.667  0.00  0.00    +0.000 A 
ATOM     20  C   UNL     1       1.440   7.941  20.799  0.00  0.00    +0.000 A 
ATOM     21  C   UNL     1       0.617   9.068  20.743  0.00  0.00    +0.000 A 
ATOM     22  C   UNL     1       0.536   9.791  19.562  0.00  0.00    +0.000 A 
ATOM     23  C   UNL     1       1.276   9.425  18.442  0.00  0.00    +0.000 A 
ATOM     24  C   UNL     1       2.089   8.291  18.495  0.00  0.00    +0.000 A 
BRANCH  22  25
ATOM     25  O   UNL     1      -0.272  10.886  19.457  0.00  0.00    +0.000 OA
ATOM     26  H   UNL     1      -0.333  11.139  18.520  0.00  0.00    +0.000 HD
ENDBRANCH  22  25
BRANCH  24  27
ATOM     27  O   UNL     1       2.795   7.909  17.388  0.00  0.00    +0.000 OA
ATOM     28  H   UNL     1       3.728   8.154  17.507  0.00  0.00    +0.000 HD
ENDBRANCH  24  27
ENDBRANCH  18  19
ENDBRANCH  16  17
ENDBRANCH   3  16
TORSDOF 10
ENDMDL
MODEL 5
REMARK VINA RESULT:      -6.4      1.482      3.017
REMARK  Name = 
REMARK  10 active torsions:
REMARK  status: ('A' for Active; 'I' for Inactive)
REMARK    1  A    between atoms: O_1  and  C_2
REMARK    2  A    between atoms: C_2  and  C_3
REMARK    3  A    between atoms: C_5  and  O_6
REMARK    4  A    between atoms: O_6  and  N_7
REMARK    5  A    between atoms: C_8  and  C_9
REMARK    6  A    between atoms: C_12  and  O_13
REMARK    7  A    between atoms: C_15  and  O_16
REMARK    8  A    between atoms: C_17  and  O_18
REMARK    9  A    between atoms: C_19  and  O_20
REMARK   10  A    between atoms: C_21  and  O_22
REMARK                            x       y       z     vdW  Elec       q    Type
REMARK                         _______ _______ _______ _____ _____    ______ ____
ROOT
ATOM      1  C   UNL     1       3.978   3.017  18.909  0.00  0.00    +0.000 C 
ATOM      2  O   UNL     1       3.299   2.818  20.154  0.00  0.00    +0.000 OA
ATOM      3  C   UNL     1       2.108   3.589  20.389  0.00  0.00    +0.000 C 
ATOM      4  C   UNL     1       1.110   3.596  19.197  0.00  0.00    +0.000 C 
ATOM      5  C   UNL     1       1.817   3.861  17.853  0.00  0.00    +0.000 C 
ATOM      6  C   UNL     1       3.023   2.921  17.704  0.00  0.00    +0.000 C 
ENDROOT
BRANCH   4   7
ATOM      7  O   UNL     1       0.428   2.322  19.132  0.00  0.00    +0.000 OA
ATOM      8  H   UNL     1       1.122   1.631  19.232  0.00  0.00    +0.000 HD
ENDBRANCH   4   7
BRANCH   5   9
ATOM      9  O   UNL     1       2.212   5.217  17.657  0.00  0.00    +0.000 OA
ATOM     10  H   UNL     1       2.013   5.695  18.492  0.00  0.00    +0.000 HD
ENDBRANCH   5   9
BRANCH   6  11
ATOM     11  O   UNL     1       2.501   1.576  17.632  0.00  0.00    +0.000 OA
ATOM     12  H   UNL     1       2.705   1.235  16.739  0.00  0.00    +0.000 HD
ENDBRANCH   6  11
BRANCH   1  13
ATOM     13  C   UNL     1       4.921   4.226  18.915  0.00  0.00    +0.000 C 
BRANCH  13  14
ATOM     14  O   UNL     1       6.253   3.809  18.627  0.00  0.00    +0.000 OA
ATOM     15  H   UNL     1       6.572   4.354  17.887  0.00  0.00    +0.000 HD
ENDBRANCH  13  14
ENDBRANCH   1  13
BRANCH   3  16
ATOM     16  O   UNL     1       2.410   4.864  20.989  0.00  0.00    +0.000 OA
BRANCH  16  17
ATOM     17  N   UNL     1       1.597   5.898  20.510  0.00  0.00    +0.000 NA
ATOM     18  C   UNL     1       2.309   6.969  20.334  0.00  0.00    +0.000 C 
BRANCH  18  19
ATOM     19  C   UNL     1       1.710   8.195  19.765  0.00  0.00    +0.000 A 
ATOM     20  C   UNL     1       1.969   8.555  18.434  0.00  0.00    +0.000 A 
ATOM     21  C   UNL     1       1.487   9.764  17.925  0.00  0.00    +0.000 A 
ATOM     22  C   UNL     1       0.737  10.594  18.745  0.00  0.00    +0.000 A 
ATOM     23  C   UNL     1       0.441  10.234  20.055  0.00  0.00    +0.000 A 
ATOM     24  C   UNL     1       0.932   9.032  20.567  0.00  0.00    +0.000 A 
BRANCH  22  25
ATOM     25  O   UNL     1       0.266  11.793  18.294  0.00  0.00    +0.000 OA
ATOM     26  H   UNL     1       1.022  12.379  18.119  0.00  0.00    +0.000 HD
ENDBRANCH  22  25
BRANCH  24  27
ATOM     27  O   UNL     1       0.668   8.688  21.864  0.00  0.00    +0.000 OA
ATOM     28  H   UNL     1       0.409   9.484  22.357  0.00  0.00    +0.000 HD
ENDBRANCH  24  27
ENDBRANCH  18  19
ENDBRANCH  16  17
ENDBRANCH   3  16
TORSDOF 10
ENDMDL
MODEL 6
REMARK VINA RESULT:      -6.4      1.263      1.671
REMARK  Name = 
REMARK  10 active torsions:
REMARK  status: ('A' for Active; 'I' for Inactive)
REMARK    1  A    between atoms: O_1  and  C_2
REMARK    2  A    between atoms: C_2  and  C_3
REMARK    3  A    between atoms: C_5  and  O_6
REMARK    4  A    between atoms: O_6  and  N_7
REMARK    5  A    between atoms: C_8  and  C_9
REMARK    6  A    between atoms: C_12  and  O_13
REMARK    7  A    between atoms: C_15  and  O_16
REMARK    8  A    between atoms: C_17  and  O_18
REMARK    9  A    between atoms: C_19  and  O_20
REMARK   10  A    between atoms: C_21  and  O_22
REMARK                            x       y       z     vdW  Elec       q    Type
REMARK                         _______ _______ _______ _____ _____    ______ ____
ROOT
ATOM      1  C   UNL     1       2.886   2.609  18.417  0.00  0.00    +0.000 C 
ATOM      2  O   UNL     1       3.636   3.275  17.396  0.00  0.00    +0.000 OA
ATOM      3  C   UNL     1       4.175   4.571  17.710  0.00  0.00    +0.000 C 
ATOM      4  C   UNL     1       4.904   4.641  19.081  0.00  0.00    +0.000 C 
ATOM      5  C   UNL     1       4.087   3.972  20.205  0.00  0.00    +0.000 C 
ATOM      6  C   UNL     1       3.638   2.572  19.761  0.00  0.00    +0.000 C 
ENDROOT
BRANCH   4   7
ATOM      7  O   UNL     1       6.190   3.987  18.977  0.00  0.00    +0.000 OA
ATOM      8  H   UNL     1       6.677   4.200  19.806  0.00  0.00    +0.000 HD
ENDBRANCH   4   7
BRANCH   5   9
ATOM      9  O   UNL     1       2.969   4.739  20.649  0.00  0.00    +0.000 OA
ATOM     10  H   UNL     1       2.404   4.903  19.863  0.00  0.00    +0.000 HD
ENDBRANCH   5   9
BRANCH   6  11
ATOM     11  O   UNL     1       4.834   1.778  19.600  0.00  0.00    +0.000 OA
ATOM     12  H   UNL     1       5.114   1.494  20.493  0.00  0.00    +0.000 HD
ENDBRANCH   6  11
BRANCH   1  13
ATOM     13  C   UNL     1       1.420   3.056  18.488  0.00  0.00    +0.000 C 
BRANCH  13  14
ATOM     14  O   UNL     1       1.122   3.927  17.400  0.00  0.00    +0.000 OA
ATOM     15  H   UNL     1       1.380   3.466  16.582  0.00  0.00    +0.000 HD
ENDBRANCH  13  14
ENDBRANCH   1  13
BRANCH   3  16
ATOM     16  O   UNL     1       3.233   5.623  17.422  0.00  0.00    +0.000 OA
BRANCH  16  17
ATOM     17  N   UNL     1       3.019   6.475  18.511  0.00  0.00    +0.000 NA
ATOM     18  C   UNL     1       2.238   7.450  18.158  0.00  0.00    +0.000 C 
BRANCH  18  19
ATOM     19  C   UNL     1       1.791   8.460  19.141  0.00  0.00    +0.000 A 
ATOM     20  C   UNL     1       1.599   8.102  20.484  0.00  0.00    +0.000 A 
ATOM     21  C   UNL     1       1.081   9.027  21.393  0.00  0.00    +0.000 A 
ATOM     22  C   UNL     1       0.774  10.308  20.956  0.00  0.00    +0.000 A 
ATOM     23  C   UNL     1       0.993  10.690  19.637  0.00  0.00    +0.000 A 
ATOM     24  C   UNL     1       1.500   9.761  18.726  0.00  0.00    +0.000 A 
BRANCH  22  25
ATOM     25  O   UNL     1       0.246  11.236  21.806  0.00  0.00    +0.000 OA
ATOM     26  H   UNL     1       0.974  11.737  22.211  0.00  0.00    +0.000 HD
ENDBRANCH  22  25
BRANCH  24  27
ATOM     27  O   UNL     1       1.690  10.123  17.421  0.00  0.00    +0.000 OA
ATOM     28  H   UNL     1       2.641  10.237  17.258  0.00  0.00    +0.000 HD
ENDBRANCH  24  27
ENDBRANCH  18  19
ENDBRANCH  16  17
ENDBRANCH   3  16
TORSDOF 10
ENDMDL
MODEL 7
REMARK VINA RESULT:      -6.4      3.594      5.069
REMARK  Name = 
REMARK  10 active torsions:
REMARK  status: ('A' for Active; 'I' for Inactive)
REMARK    1  A    between atoms: O_1  and  C_2
REMARK    2  A    between atoms: C_2  and  C_3
REMARK    3  A    between atoms: C_5  and  O_6
REMARK    4  A    between atoms: O_6  and  N_7
REMARK    5  A    between atoms: C_8  and  C_9
REMARK    6  A    between atoms: C_12  and  O_13
REMARK    7  A    between atoms: C_15  and  O_16
REMARK    8  A    between atoms: C_17  and  O_18
REMARK    9  A    between atoms: C_19  and  O_20
REMARK   10  A    between atoms: C_21  and  O_22
REMARK                            x       y       z     vdW  Elec       q    Type
REMARK                         _______ _______ _______ _____ _____    ______ ____
ROOT
ATOM      1  C   UNL     1       1.219   3.145  18.964  0.00  0.00    +0.000 C 
ATOM      2  O   UNL     1       2.110   2.026  19.018  0.00  0.00    +0.000 OA
ATOM      3  C   UNL     1       3.433   2.258  19.531  0.00  0.00    +0.000 C 
ATOM      4  C   UNL     1       3.468   3.072  20.855  0.00  0.00    +0.000 C 
ATOM      5  C   UNL     1       2.553   4.311  20.796  0.00  0.00    +0.000 C 
ATOM      6  C   UNL     1       1.156   3.905  20.302  0.00  0.00    +0.000 C 
ENDROOT
BRANCH   4   7
ATOM      7  O   UNL     1       3.051   2.226  21.952  0.00  0.00    +0.000 OA
ATOM      8  H   UNL     1       3.618   1.422  21.914  0.00  0.00    +0.000 HD
ENDBRANCH   4   7
BRANCH   5   9
ATOM      9  O   UNL     1       3.071   5.383  20.009  0.00  0.00    +0.000 OA
ATOM     10  H   UNL     1       2.505   5.448  19.209  0.00  0.00    +0.000 HD
ENDBRANCH   5   9
BRANCH   6  11
ATOM     11  O   UNL     1       0.594   3.030  21.305  0.00  0.00    +0.000 OA
ATOM     12  H   UNL     1       1.247   2.321  21.468  0.00  0.00    +0.000 HD
ENDBRANCH   6  11
BRANCH   1  13
ATOM     13  C   UNL     1       1.408   4.014  17.714  0.00  0.00    +0.000 C 
BRANCH  13  14
ATOM     14  O   UNL     1       2.184   3.314  16.745  0.00  0.00    +0.000 OA
ATOM     15  H   UNL     1       2.462   3.963  16.075  0.00  0.00    +0.000 HD
ENDBRANCH  13  14
ENDBRANCH   1  13
BRANCH   3  16
ATOM     16  O   UNL     1       4.342   2.672  18.492  0.00  0.00    +0.000 OA
BRANCH  16  17
ATOM     17  N   UNL     1       5.102   3.791  18.847  0.00  0.00    +0.000 NA
ATOM     18  C   UNL     1       5.707   4.261  17.799  0.00  0.00    +0.000 C 
BRANCH  18  19
ATOM     19  C   UNL     1       6.525   5.490  17.880  0.00  0.00    +0.000 A 
ATOM     20  C   UNL     1       7.578   5.577  18.803  0.00  0.00    +0.000 A 
ATOM     21  C   UNL     1       8.287   6.772  18.953  0.00  0.00    +0.000 A 
ATOM     22  C   UNL     1       7.947   7.865  18.168  0.00  0.00    +0.000 A 
ATOM     23  C   UNL     1       6.930   7.783  17.223  0.00  0.00    +0.000 A 
ATOM     24  C   UNL     1       6.214   6.592  17.082  0.00  0.00    +0.000 A 
BRANCH  22  25
ATOM     25  O   UNL     1       8.599   9.057  18.297  0.00  0.00    +0.000 OA
ATOM     26  H   UNL     1       8.112   9.734  17.796  0.00  0.00    +0.000 HD
ENDBRANCH  22  25
BRANCH  24  27
ATOM     27  O   UNL     1       5.194   6.516  16.175  0.00  0.00    +0.000 OA
ATOM     28  H   UNL     1       5.411   7.068  15.405  0.00  0.00    +0.000 HD
ENDBRANCH  24  27
ENDBRANCH  18  19
ENDBRANCH  16  17
ENDBRANCH   3  16
TORSDOF 10
ENDMDL
MODEL 8
REMARK VINA RESULT:      -6.3      3.533      4.893
REMARK  Name = 
REMARK  10 active torsions:
REMARK  status: ('A' for Active; 'I' for Inactive)
REMARK    1  A    between atoms: O_1  and  C_2
REMARK    2  A    between atoms: C_2  and  C_3
REMARK    3  A    between atoms: C_5  and  O_6
REMARK    4  A    between atoms: O_6  and  N_7
REMARK    5  A    between atoms: C_8  and  C_9
REMARK    6  A    between atoms: C_12  and  O_13
REMARK    7  A    between atoms: C_15  and  O_16
REMARK    8  A    between atoms: C_17  and  O_18
REMARK    9  A    between atoms: C_19  and  O_20
REMARK   10  A    between atoms: C_21  and  O_22
REMARK                            x       y       z     vdW  Elec       q    Type
REMARK                         _______ _______ _______ _____ _____    ______ ____
ROOT
ATOM      1  C   UNL     1       1.324   3.160  18.910  0.00  0.00    +0.000 C 
ATOM      2  O   UNL     1       2.238   2.060  18.969  0.00  0.00    +0.000 OA
ATOM      3  C   UNL     1       3.546   2.315  19.508  0.00  0.00    +0.000 C 
ATOM      4  C   UNL     1       3.540   3.114  20.842  0.00  0.00    +0.000 C 
ATOM      5  C   UNL     1       2.598   4.334  20.780  0.00  0.00    +0.000 C 
ATOM      6  C   UNL     1       1.220   3.902  20.256  0.00  0.00    +0.000 C 
ENDROOT
BRANCH   4   7
ATOM      7  O   UNL     1       3.122   2.247  21.921  0.00  0.00    +0.000 OA
ATOM      8  H   UNL     1       3.275   2.748  22.755  0.00  0.00    +0.000 HD
ENDBRANCH   4   7
BRANCH   5   9
ATOM      9  O   UNL     1       3.106   5.426  20.015  0.00  0.00    +0.000 OA
ATOM     10  H   UNL     1       2.922   5.223  19.072  0.00  0.00    +0.000 HD
ENDBRANCH   5   9
BRANCH   6  11
ATOM     11  O   UNL     1       0.659   3.004  21.238  0.00  0.00    +0.000 OA
ATOM     12  H   UNL     1       0.729   2.099  20.874  0.00  0.00    +0.000 HD
ENDBRANCH   6  11
BRANCH   1  13
ATOM     13  C   UNL     1       1.516   4.048  17.675  0.00  0.00    +0.000 C 
BRANCH  13  14
ATOM     14  O   UNL     1       2.231   3.336  16.668  0.00  0.00    +0.000 OA
ATOM     15  H   UNL     1       1.593   2.756  16.217  0.00  0.00    +0.000 HD
ENDBRANCH  13  14
ENDBRANCH   1  13
BRANCH   3  16
ATOM     16  O   UNL     1       4.464   2.761  18.490  0.00  0.00    +0.000 OA
BRANCH  16  17
ATOM     17  N   UNL     1       5.156   3.923  18.851  0.00  0.00    +0.000 NA
ATOM     18  C   UNL     1       5.619   4.506  17.788  0.00  0.00    +0.000 C 
BRANCH  18  19
ATOM     19  C   UNL     1       6.332   5.798  17.879  0.00  0.00    +0.000 A 
ATOM     20  C   UNL     1       5.906   6.896  17.116  0.00  0.00    +0.000 A 
ATOM     21  C   UNL     1       6.637   8.086  17.123  0.00  0.00    +0.000 A 
ATOM     22  C   UNL     1       7.780   8.174  17.905  0.00  0.00    +0.000 A 
ATOM     23  C   UNL     1       8.196   7.107  18.695  0.00  0.00    +0.000 A 
ATOM     24  C   UNL     1       7.471   5.914  18.679  0.00  0.00    +0.000 A 
BRANCH  22  25
ATOM     25  O   UNL     1       8.536   9.310  17.925  0.00  0.00    +0.000 OA
ATOM     26  H   UNL     1       8.248   9.863  18.671  0.00  0.00    +0.000 HD
ENDBRANCH  22  25
BRANCH  24  27
ATOM     27  O   UNL     1       7.892   4.853  19.430  0.00  0.00    +0.000 OA
ATOM     28  H   UNL     1       7.906   4.056  18.875  0.00  0.00    +0.000 HD
ENDBRANCH  24  27
ENDBRANCH  18  19
ENDBRANCH  16  17
ENDBRANCH   3  16
TORSDOF 10
ENDMDL
MODEL 9
REMARK VINA RESULT:      -6.3      1.595      2.883
REMARK  Name = 
REMARK  10 active torsions:
REMARK  status: ('A' for Active; 'I' for Inactive)
REMARK    1  A    between atoms: O_1  and  C_2
REMARK    2  A    between atoms: C_2  and  C_3
REMARK    3  A    between atoms: C_5  and  O_6
REMARK    4  A    between atoms: O_6  and  N_7
REMARK    5  A    between atoms: C_8  and  C_9
REMARK    6  A    between atoms: C_12  and  O_13
REMARK    7  A    between atoms: C_15  and  O_16
REMARK    8  A    between atoms: C_17  and  O_18
REMARK    9  A    between atoms: C_19  and  O_20
REMARK   10  A    between atoms: C_21  and  O_22
REMARK                            x       y       z     vdW  Elec       q    Type
REMARK                         _______ _______ _______ _____ _____    ______ ____
ROOT
ATOM      1  C   UNL     1       3.577   2.674  18.534  0.00  0.00    +0.000 C 
ATOM      2  O   UNL     1       3.670   3.264  19.835  0.00  0.00    +0.000 OA
ATOM      3  C   UNL     1       2.743   4.315  20.153  0.00  0.00    +0.000 C 
ATOM      4  C   UNL     1       1.267   3.994  19.785  0.00  0.00    +0.000 C 
ATOM      5  C   UNL     1       1.141   3.405  18.366  0.00  0.00    +0.000 C 
ATOM      6  C   UNL     1       2.136   2.249  18.191  0.00  0.00    +0.000 C 
ENDROOT
BRANCH   4   7
ATOM      7  O   UNL     1       0.726   3.051  20.740  0.00  0.00    +0.000 OA
ATOM      8  H   UNL     1       0.005   2.568  20.275  0.00  0.00    +0.000 HD
ENDBRANCH   4   7
BRANCH   5   9
ATOM      9  O   UNL     1       1.295   4.363  17.320  0.00  0.00    +0.000 OA
ATOM     10  H   UNL     1       1.675   3.886  16.550  0.00  0.00    +0.000 HD
ENDBRANCH   5   9
BRANCH   6  11
ATOM     11  O   UNL     1       1.732   1.204  19.103  0.00  0.00    +0.000 OA
ATOM     12  H   UNL     1       1.429   0.449  18.560  0.00  0.00    +0.000 HD
ENDBRANCH   6  11
BRANCH   1  13
ATOM     13  C   UNL     1       4.310   3.471  17.448  0.00  0.00    +0.000 C 
BRANCH  13  14
ATOM     14  O   UNL     1       5.509   4.031  17.979  0.00  0.00    +0.000 OA
ATOM     15  H   UNL     1       5.859   4.648  17.313  0.00  0.00    +0.000 HD
ENDBRANCH  13  14
ENDBRANCH   1  13
BRANCH   3  16
ATOM     16  O   UNL     1       3.244   5.606  19.754  0.00  0.00    +0.000 OA
BRANCH  16  17
ATOM     17  N   UNL     1       2.233   6.475  19.329  0.00  0.00    +0.000 NA
ATOM     18  C   UNL     1       2.290   7.580  20.008  0.00  0.00    +0.000 C 
BRANCH  18  19
ATOM     19  C   UNL     1       1.376   8.703  19.710  0.00  0.00    +0.000 A 
ATOM     20  C   UNL     1       0.509   9.190  20.701  0.00  0.00    +0.000 A 
ATOM     21  C   UNL     1      -0.426  10.181  20.394  0.00  0.00    +0.000 A 
ATOM     22  C   UNL     1      -0.476  10.690  19.104  0.00  0.00    +0.000 A 
ATOM     23  C   UNL     1       0.400  10.244  18.120  0.00  0.00    +0.000 A 
ATOM     24  C   UNL     1       1.327   9.245  18.424  0.00  0.00    +0.000 A 
BRANCH  22  25
ATOM     25  O   UNL     1      -1.388  11.644  18.756  0.00  0.00    +0.000 OA
ATOM     26  H   UNL     1      -0.938  12.328  18.231  0.00  0.00    +0.000 HD
ENDBRANCH  22  25
BRANCH  24  27
ATOM     27  O   UNL     1       2.170   8.782  17.453  0.00  0.00    +0.000 OA
ATOM     28  H   UNL     1       2.536   9.538  16.964  0.00  0.00    +0.000 HD
ENDBRANCH  24  27
ENDBRANCH  18  19
ENDBRANCH  16  17
ENDBRANCH   3  16
TORSDOF 10
ENDMDL
