MODEL 1
REMARK VINA RESULT:      -8.0      0.000      0.000
REMARK  Name = 
REMARK  10 active torsions:
REMARK  status: ('A' for Active; 'I' for Inactive)
REMARK    1  A    between atoms: C_1  and  O_2
REMARK    2  A    between atoms: O_2  and  C_3
REMARK    3  A    between atoms: C_5  and  O_6
REMARK    4  A    between atoms: O_6  and  C_7
REMARK    5  A    between atoms: C_9  and  C_10
REMARK    6  A    between atoms: C_10  and  C_11
REMARK    7  A    between atoms: C_10  and  N_14
REMARK    8  A    between atoms: C_11  and  O_13
REMARK    9  A    between atoms: C_16  and  C_17
REMARK   10  A    between atoms: C_21  and  C_22
REMARK                            x       y       z     vdW  Elec       q    Type
REMARK                         _______ _______ _______ _____ _____    ______ ____
ROOT
ATOM      1  C   UNL     1       3.865   3.864  17.776  0.00  0.00    +0.000 C 
ENDROOT
BRANCH   1   2
ATOM      2  N   UNL     1       4.252   4.122  19.215  0.00  0.00    +0.000 NA
ATOM      3  C   UNL     1       3.965   5.525  19.629  0.00  0.00    +0.000 C 
ATOM      4  C   UNL     1       2.467   5.863  19.637  0.00  0.00    +0.000 C 
ATOM      5  C   UNL     1       2.194   7.334  19.935  0.00  0.00    +0.000 C 
ATOM      6  C   UNL     1       1.753   4.920  20.599  0.00  0.00    +0.000 C 
ATOM      7  F   UNL     1       0.420   5.162  20.571  0.00  0.00    +0.000 F 
ATOM      8  F   UNL     1       2.166   5.160  21.870  0.00  0.00    +0.000 F 
ATOM      9  C   UNL     1       2.023   3.464  20.229  0.00  0.00    +0.000 C 
ATOM     10  C   UNL     1       1.311   2.490  21.166  0.00  0.00    +0.000 C 
ATOM     11  C   UNL     1       3.543   3.231  20.182  0.00  0.00    +0.000 C 
ENDBRANCH   1   2
BRANCH   1  16
ATOM     12  C   UNL     1       6.060   3.987  14.571  0.00  0.00    +0.000 A 
ATOM     13  C   UNL     1       6.917   5.034  14.908  0.00  0.00    +0.000 A 
ATOM     14  C   UNL     1       6.800   5.687  16.129  0.00  0.00    +0.000 A 
ATOM     15  C   UNL     1       5.798   5.291  17.016  0.00  0.00    +0.000 A 
ATOM     16  C   UNL     1       4.897   4.243  16.698  0.00  0.00    +0.000 A 
ATOM     17  C   UNL     1       5.031   3.612  15.446  0.00  0.00    +0.000 A 
BRANCH  12  19
ATOM     18  C   UNL     1       5.272   3.491  12.392  0.00  0.00    +0.000 C 
ATOM     19  O   UNL     1       6.319   3.423  13.352  0.00  0.00    +0.000 OA
ENDBRANCH  12  19
BRANCH  14  20
ATOM     20  O   UNL     1       7.724   6.671  16.337  0.00  0.00    +0.000 OA
ATOM     21  C   UNL     1       7.592   7.460  17.512  0.00  0.00    +0.000 C 
ENDBRANCH  14  20
ENDBRANCH   1  16
BRANCH   1  22
ATOM     22  C   UNL     1       3.370   2.407  17.563  0.00  0.00    +0.000 C 
ATOM     23  O   UNL     1       2.249   2.135  17.160  0.00  0.00    +0.000 OA
BRANCH  22  24
ATOM     24  O   UNL     1       4.258   1.453  17.916  0.00  0.00    +0.000 OA
ATOM     25  H   UNL     1       3.981   0.982  18.721  0.00  0.00    +0.000 HD
ENDBRANCH  22  24
ENDBRANCH   1  22
TORSDOF 6
ENDMDL
MODEL 2
REMARK VINA RESULT:      -7.5      0.387      2.504
REMARK  Name = 
REMARK  10 active torsions:
REMARK  status: ('A' for Active; 'I' for Inactive)
REMARK    1  A    between atoms: C_1  and  O_2
REMARK    2  A    between atoms: O_2  and  C_3
REMARK    3  A    between atoms: C_5  and  O_6
REMARK    4  A    between atoms: O_6  and  C_7
REMARK    5  A    between atoms: C_9  and  C_10
REMARK    6  A    between atoms: C_10  and  C_11
REMARK    7  A    between atoms: C_10  and  N_14
REMARK    8  A    between atoms: C_11  and  O_13
REMARK    9  A    between atoms: C_16  and  C_17
REMARK   10  A    between atoms: C_21  and  C_22
REMARK                            x       y       z     vdW  Elec       q    Type
REMARK                         _______ _______ _______ _____ _____    ______ ____
ROOT
ATOM      1  C   UNL     1       3.876   3.835  17.896  0.00  0.00    +0.000 C 
ENDROOT
BRANCH   1   2
ATOM      2  N   UNL     1       4.174   4.060  19.362  0.00  0.00    +0.000 NA
ATOM      3  C   UNL     1       3.911   5.467  19.777  0.00  0.00    +0.000 C 
ATOM      4  C   UNL     1       2.430   5.861  19.691  0.00  0.00    +0.000 C 
ATOM      5  C   UNL     1       2.192   7.338  19.992  0.00  0.00    +0.000 C 
ATOM      6  C   UNL     1       1.619   4.933  20.588  0.00  0.00    +0.000 C 
ATOM      7  F   UNL     1       0.300   5.227  20.474  0.00  0.00    +0.000 F 
ATOM      8  F   UNL     1       1.953   5.141  21.887  0.00  0.00    +0.000 F 
ATOM      9  C   UNL     1       1.859   3.473  20.214  0.00  0.00    +0.000 C 
ATOM     10  C   UNL     1       1.050   2.515  21.086  0.00  0.00    +0.000 C 
ATOM     11  C   UNL     1       3.369   3.184  20.266  0.00  0.00    +0.000 C 
ENDBRANCH   1   2
BRANCH   1  16
ATOM     12  C   UNL     1       6.830   5.627  16.117  0.00  0.00    +0.000 A 
ATOM     13  C   UNL     1       6.784   4.990  14.877  0.00  0.00    +0.000 A 
ATOM     14  C   UNL     1       5.832   4.012  14.612  0.00  0.00    +0.000 A 
ATOM     15  C   UNL     1       4.926   3.660  15.612  0.00  0.00    +0.000 A 
ATOM     16  C   UNL     1       4.957   4.272  16.891  0.00  0.00    +0.000 A 
ATOM     17  C   UNL     1       5.943   5.249  17.134  0.00  0.00    +0.000 A 
BRANCH  12  19
ATOM     18  C   UNL     1       7.681   7.491  17.308  0.00  0.00    +0.000 C 
ATOM     19  O   UNL     1       7.799   6.587  16.216  0.00  0.00    +0.000 OA
ENDBRANCH  12  19
BRANCH  14  20
ATOM     20  O   UNL     1       5.885   3.497  13.348  0.00  0.00    +0.000 OA
ATOM     21  C   UNL     1       6.843   4.045  12.453  0.00  0.00    +0.000 C 
ENDBRANCH  14  20
ENDBRANCH   1  16
BRANCH   1  22
ATOM     22  C   UNL     1       3.433   2.373  17.614  0.00  0.00    +0.000 C 
ATOM     23  O   UNL     1       2.343   2.085  17.143  0.00  0.00    +0.000 OA
BRANCH  22  24
ATOM     24  O   UNL     1       4.326   1.432  17.988  0.00  0.00    +0.000 OA
ATOM     25  H   UNL     1       4.528   0.817  17.261  0.00  0.00    +0.000 HD
ENDBRANCH  22  24
ENDBRANCH   1  22
TORSDOF 6
ENDMDL
MODEL 3
REMARK VINA RESULT:      -7.3      2.555      3.539
REMARK  Name = 
REMARK  10 active torsions:
REMARK  status: ('A' for Active; 'I' for Inactive)
REMARK    1  A    between atoms: C_1  and  O_2
REMARK    2  A    between atoms: O_2  and  C_3
REMARK    3  A    between atoms: C_5  and  O_6
REMARK    4  A    between atoms: O_6  and  C_7
REMARK    5  A    between atoms: C_9  and  C_10
REMARK    6  A    between atoms: C_10  and  C_11
REMARK    7  A    between atoms: C_10  and  N_14
REMARK    8  A    between atoms: C_11  and  O_13
REMARK    9  A    between atoms: C_16  and  C_17
REMARK   10  A    between atoms: C_21  and  C_22
REMARK                            x       y       z     vdW  Elec       q    Type
REMARK                         _______ _______ _______ _____ _____    ______ ____
ROOT
ATOM      1  C   UNL     1       3.105   5.927  18.685  0.00  0.00    +0.000 C 
ENDROOT
BRANCH   1   2
ATOM      2  N   UNL     1       1.997   4.956  18.342  0.00  0.00    +0.000 NA
ATOM      3  C   UNL     1       2.504   3.775  17.586  0.00  0.00    +0.000 C 
ATOM      4  C   UNL     1       3.459   2.892  18.402  0.00  0.00    +0.000 C 
ATOM      5  C   UNL     1       4.071   1.763  17.578  0.00  0.00    +0.000 C 
ATOM      6  C   UNL     1       2.731   2.394  19.645  0.00  0.00    +0.000 C 
ATOM      7  F   UNL     1       3.580   1.665  20.410  0.00  0.00    +0.000 F 
ATOM      8  F   UNL     1       1.720   1.562  19.284  0.00  0.00    +0.000 F 
ATOM      9  C   UNL     1       2.179   3.564  20.454  0.00  0.00    +0.000 C 
ATOM     10  C   UNL     1       1.454   3.100  21.716  0.00  0.00    +0.000 C 
ATOM     11  C   UNL     1       1.287   4.427  19.546  0.00  0.00    +0.000 C 
ENDBRANCH   1   2
BRANCH   1  16
ATOM     12  C   UNL     1       5.882   5.573  15.990  0.00  0.00    +0.000 A 
ATOM     13  C   UNL     1       6.971   5.270  16.807  0.00  0.00    +0.000 A 
ATOM     14  C   UNL     1       6.825   5.180  18.186  0.00  0.00    +0.000 A 
ATOM     15  C   UNL     1       5.571   5.411  18.751  0.00  0.00    +0.000 A 
ATOM     16  C   UNL     1       4.446   5.741  17.953  0.00  0.00    +0.000 A 
ATOM     17  C   UNL     1       4.629   5.841  16.560  0.00  0.00    +0.000 A 
BRANCH  12  19
ATOM     18  C   UNL     1       6.448   4.337  14.049  0.00  0.00    +0.000 C 
ATOM     19  O   UNL     1       6.175   5.595  14.654  0.00  0.00    +0.000 OA
ENDBRANCH  12  19
BRANCH  14  20
ATOM     20  O   UNL     1       7.967   4.846  18.857  0.00  0.00    +0.000 OA
ATOM     21  C   UNL     1       8.275   5.577  20.037  0.00  0.00    +0.000 C 
ENDBRANCH  14  20
ENDBRANCH   1  16
BRANCH   1  22
ATOM     22  C   UNL     1       2.631   7.403  18.581  0.00  0.00    +0.000 C 
ATOM     23  O   UNL     1       2.804   8.091  17.586  0.00  0.00    +0.000 OA
BRANCH  22  24
ATOM     24  O   UNL     1       2.063   7.893  19.704  0.00  0.00    +0.000 OA
ATOM     25  H   UNL     1       1.192   8.288  19.525  0.00  0.00    +0.000 HD
ENDBRANCH  22  24
ENDBRANCH   1  22
TORSDOF 6
ENDMDL
MODEL 4
REMARK VINA RESULT:      -7.2      4.106      7.031
REMARK  Name = 
REMARK  10 active torsions:
REMARK  status: ('A' for Active; 'I' for Inactive)
REMARK    1  A    between atoms: C_1  and  O_2
REMARK    2  A    between atoms: O_2  and  C_3
REMARK    3  A    between atoms: C_5  and  O_6
REMARK    4  A    between atoms: O_6  and  C_7
REMARK    5  A    between atoms: C_9  and  C_10
REMARK    6  A    between atoms: C_10  and  C_11
REMARK    7  A    between atoms: C_10  and  N_14
REMARK    8  A    between atoms: C_11  and  O_13
REMARK    9  A    between atoms: C_16  and  C_17
REMARK   10  A    between atoms: C_21  and  C_22
REMARK                            x       y       z     vdW  Elec       q    Type
REMARK                         _______ _______ _______ _____ _____    ______ ____
ROOT
ATOM      1  C   UNL     1       2.417   6.466  19.693  0.00  0.00    +0.000 C 
ENDROOT
BRANCH   1   2
ATOM      2  N   UNL     1       2.374   6.176  18.209  0.00  0.00    +0.000 NA
ATOM      3  C   UNL     1       3.528   6.784  17.487  0.00  0.00    +0.000 C 
ATOM      4  C   UNL     1       4.883   6.184  17.889  0.00  0.00    +0.000 C 
ATOM      5  C   UNL     1       6.064   6.902  17.242  0.00  0.00    +0.000 C 
ATOM      6  C   UNL     1       4.866   4.687  17.599  0.00  0.00    +0.000 C 
ATOM      7  F   UNL     1       6.033   4.130  18.008  0.00  0.00    +0.000 F 
ATOM      8  F   UNL     1       4.783   4.479  16.260  0.00  0.00    +0.000 F 
ATOM      9  C   UNL     1       3.694   4.013  18.306  0.00  0.00    +0.000 C 
ATOM     10  C   UNL     1       3.655   2.508  18.048  0.00  0.00    +0.000 C 
ATOM     11  C   UNL     1       2.389   4.715  17.896  0.00  0.00    +0.000 C 
ENDBRANCH   1   2
BRANCH   1  16
ATOM     12  C   UNL     1       0.922   9.372  21.795  0.00  0.00    +0.000 A 
ATOM     13  C   UNL     1       0.662  10.293  20.779  0.00  0.00    +0.000 A 
ATOM     14  C   UNL     1       0.956   9.994  19.454  0.00  0.00    +0.000 A 
ATOM     15  C   UNL     1       1.531   8.761  19.148  0.00  0.00    +0.000 A 
ATOM     16  C   UNL     1       1.827   7.810  20.158  0.00  0.00    +0.000 A 
ATOM     17  C   UNL     1       1.533   8.147  21.493  0.00  0.00    +0.000 A 
BRANCH  12  19
ATOM     18  C   UNL     1      -0.750  10.361  23.151  0.00  0.00    +0.000 C 
ATOM     19  O   UNL     1       0.550   9.796  23.041  0.00  0.00    +0.000 OA
ENDBRANCH  12  19
BRANCH  14  20
ATOM     20  O   UNL     1       0.621  10.975  18.564  0.00  0.00    +0.000 OA
ATOM     21  C   UNL     1       0.033  12.161  19.082  0.00  0.00    +0.000 C 
ENDBRANCH  14  20
ENDBRANCH   1  16
BRANCH   1  22
ATOM     22  C   UNL     1       1.825   5.297  20.527  0.00  0.00    +0.000 C 
ATOM     23  O   UNL     1       0.685   4.880  20.378  0.00  0.00    +0.000 OA
BRANCH  22  24
ATOM     24  O   UNL     1       2.649   4.810  21.480  0.00  0.00    +0.000 OA
ATOM     25  H   UNL     1       2.495   5.235  22.342  0.00  0.00    +0.000 HD
ENDBRANCH  22  24
ENDBRANCH   1  22
TORSDOF 6
ENDMDL
MODEL 5
REMARK VINA RESULT:      -7.2      4.068      6.839
REMARK  Name = 
REMARK  10 active torsions:
REMARK  status: ('A' for Active; 'I' for Inactive)
REMARK    1  A    between atoms: C_1  and  O_2
REMARK    2  A    between atoms: O_2  and  C_3
REMARK    3  A    between atoms: C_5  and  O_6
REMARK    4  A    between atoms: O_6  and  C_7
REMARK    5  A    between atoms: C_9  and  C_10
REMARK    6  A    between atoms: C_10  and  C_11
REMARK    7  A    between atoms: C_10  and  N_14
REMARK    8  A    between atoms: C_11  and  O_13
REMARK    9  A    between atoms: C_16  and  C_17
REMARK   10  A    between atoms: C_21  and  C_22
REMARK                            x       y       z     vdW  Elec       q    Type
REMARK                         _______ _______ _______ _____ _____    ______ ____
ROOT
ATOM      1  C   UNL     1       2.459   6.462  19.597  0.00  0.00    +0.000 C 
ENDROOT
BRANCH   1   2
ATOM      2  N   UNL     1       2.502   6.057  18.140  0.00  0.00    +0.000 NA
ATOM      3  C   UNL     1       3.686   6.625  17.436  0.00  0.00    +0.000 C 
ATOM      4  C   UNL     1       5.024   6.081  17.956  0.00  0.00    +0.000 C 
ATOM      5  C   UNL     1       6.230   6.765  17.320  0.00  0.00    +0.000 C 
ATOM      6  C   UNL     1       5.041   4.566  17.785  0.00  0.00    +0.000 C 
ATOM      7  F   UNL     1       6.190   4.062  18.299  0.00  0.00    +0.000 F 
ATOM      8  F   UNL     1       5.034   4.252  16.464  0.00  0.00    +0.000 F 
ATOM      9  C   UNL     1       3.840   3.930  18.479  0.00  0.00    +0.000 C 
ATOM     10  C   UNL     1       3.833   2.409  18.338  0.00  0.00    +0.000 C 
ATOM     11  C   UNL     1       2.551   4.576  17.945  0.00  0.00    +0.000 C 
ENDBRANCH   1   2
BRANCH   1  16
ATOM     12  C   UNL     1       1.032  10.072  19.404  0.00  0.00    +0.000 A 
ATOM     13  C   UNL     1       0.714  10.275  20.747  0.00  0.00    +0.000 A 
ATOM     14  C   UNL     1       0.950   9.286  21.694  0.00  0.00    +0.000 A 
ATOM     15  C   UNL     1       1.498   8.071  21.282  0.00  0.00    +0.000 A 
ATOM     16  C   UNL     1       1.815   7.822  19.922  0.00  0.00    +0.000 A 
ATOM     17  C   UNL     1       1.550   8.839  18.984  0.00  0.00    +0.000 A 
BRANCH  12  19
ATOM     18  C   UNL     1      -0.133  12.115  19.116  0.00  0.00    +0.000 C 
ATOM     19  O   UNL     1       0.773  11.148  18.600  0.00  0.00    +0.000 OA
ENDBRANCH  12  19
BRANCH  14  20
ATOM     20  O   UNL     1       0.619   9.634  22.972  0.00  0.00    +0.000 OA
ATOM     21  C   UNL     1      -0.675  10.179  23.193  0.00  0.00    +0.000 C 
ENDBRANCH  14  20
ENDBRANCH   1  16
BRANCH   1  22
ATOM     22  C   UNL     1       1.850   5.347  20.490  0.00  0.00    +0.000 C 
ATOM     23  O   UNL     1       0.711   4.926  20.348  0.00  0.00    +0.000 OA
BRANCH  22  24
ATOM     24  O   UNL     1       2.658   4.914  21.481  0.00  0.00    +0.000 OA
ATOM     25  H   UNL     1       3.178   4.137  21.210  0.00  0.00    +0.000 HD
ENDBRANCH  22  24
ENDBRANCH   1  22
TORSDOF 6
ENDMDL
MODEL 6
REMARK VINA RESULT:      -6.9      5.050      7.542
REMARK  Name = 
REMARK  10 active torsions:
REMARK  status: ('A' for Active; 'I' for Inactive)
REMARK    1  A    between atoms: C_1  and  O_2
REMARK    2  A    between atoms: O_2  and  C_3
REMARK    3  A    between atoms: C_5  and  O_6
REMARK    4  A    between atoms: O_6  and  C_7
REMARK    5  A    between atoms: C_9  and  C_10
REMARK    6  A    between atoms: C_10  and  C_11
REMARK    7  A    between atoms: C_10  and  N_14
REMARK    8  A    between atoms: C_11  and  O_13
REMARK    9  A    between atoms: C_16  and  C_17
REMARK   10  A    between atoms: C_21  and  C_22
REMARK                            x       y       z     vdW  Elec       q    Type
REMARK                         _______ _______ _______ _____ _____    ______ ____
ROOT
ATOM      1  C   UNL     1       0.670   9.154  20.722  0.00  0.00    +0.000 C 
ENDROOT
BRANCH   1   2
ATOM      2  N   UNL     1       0.924  10.459  20.001  0.00  0.00    +0.000 NA
ATOM      3  C   UNL     1       0.373  10.449  18.615  0.00  0.00    +0.000 C 
ATOM      4  C   UNL     1      -1.158  10.354  18.569  0.00  0.00    +0.000 C 
ATOM      5  C   UNL     1      -1.700  10.212  17.150  0.00  0.00    +0.000 C 
ATOM      6  C   UNL     1      -1.750  11.545  19.315  0.00  0.00    +0.000 C 
ATOM      7  F   UNL     1      -3.101  11.442  19.339  0.00  0.00    +0.000 F 
ATOM      8  F   UNL     1      -1.457  12.693  18.654  0.00  0.00    +0.000 F 
ATOM      9  C   UNL     1      -1.210  11.612  20.741  0.00  0.00    +0.000 C 
ATOM     10  C   UNL     1      -1.793  12.788  21.523  0.00  0.00    +0.000 C 
ATOM     11  C   UNL     1       0.327  11.640  20.695  0.00  0.00    +0.000 C 
ENDBRANCH   1   2
BRANCH   1  16
ATOM     12  C   UNL     1       2.857   6.683  18.671  0.00  0.00    +0.000 A 
ATOM     13  C   UNL     1       2.702   5.530  19.440  0.00  0.00    +0.000 A 
ATOM     14  C   UNL     1       1.916   5.539  20.587  0.00  0.00    +0.000 A 
ATOM     15  C   UNL     1       1.292   6.725  20.973  0.00  0.00    +0.000 A 
ATOM     16  C   UNL     1       1.445   7.921  20.225  0.00  0.00    +0.000 A 
ATOM     17  C   UNL     1       2.260   7.884  19.077  0.00  0.00    +0.000 A 
BRANCH  12  19
ATOM     18  C   UNL     1       4.381   5.303  17.493  0.00  0.00    +0.000 C 
ATOM     19  O   UNL     1       3.632   6.510  17.557  0.00  0.00    +0.000 OA
ENDBRANCH  12  19
BRANCH  14  20
ATOM     20  O   UNL     1       1.829   4.333  21.224  0.00  0.00    +0.000 OA
ATOM     21  C   UNL     1       1.105   3.297  20.576  0.00  0.00    +0.000 C 
ENDBRANCH  14  20
ENDBRANCH   1  16
BRANCH   1  22
ATOM     22  C   UNL     1       0.821   9.306  22.261  0.00  0.00    +0.000 C 
ATOM     23  O   UNL     1       1.890   9.541  22.806  0.00  0.00    +0.000 OA
BRANCH  22  24
ATOM     24  O   UNL     1      -0.313   9.097  22.962  0.00  0.00    +0.000 OA
ATOM     25  H   UNL     1      -1.092   9.464  22.508  0.00  0.00    +0.000 HD
ENDBRANCH  22  24
ENDBRANCH   1  22
TORSDOF 6
ENDMDL
MODEL 7
REMARK VINA RESULT:      -6.8      2.537      4.185
REMARK  Name = 
REMARK  10 active torsions:
REMARK  status: ('A' for Active; 'I' for Inactive)
REMARK    1  A    between atoms: C_1  and  O_2
REMARK    2  A    between atoms: O_2  and  C_3
REMARK    3  A    between atoms: C_5  and  O_6
REMARK    4  A    between atoms: O_6  and  C_7
REMARK    5  A    between atoms: C_9  and  C_10
REMARK    6  A    between atoms: C_10  and  C_11
REMARK    7  A    between atoms: C_10  and  N_14
REMARK    8  A    between atoms: C_11  and  O_13
REMARK    9  A    between atoms: C_16  and  C_17
REMARK   10  A    between atoms: C_21  and  C_22
REMARK                            x       y       z     vdW  Elec       q    Type
REMARK                         _______ _______ _______ _____ _____    ______ ____
ROOT
ATOM      1  C   UNL     1       3.109   5.904  18.752  0.00  0.00    +0.000 C 
ENDROOT
BRANCH   1   2
ATOM      2  N   UNL     1       1.996   4.950  18.382  0.00  0.00    +0.000 NA
ATOM      3  C   UNL     1       2.500   3.767  17.628  0.00  0.00    +0.000 C 
ATOM      4  C   UNL     1       3.428   2.867  18.456  0.00  0.00    +0.000 C 
ATOM      5  C   UNL     1       4.041   1.735  17.636  0.00  0.00    +0.000 C 
ATOM      6  C   UNL     1       2.670   2.370  19.682  0.00  0.00    +0.000 C 
ATOM      7  F   UNL     1       3.495   1.625  20.457  0.00  0.00    +0.000 F 
ATOM      8  F   UNL     1       1.656   1.555  19.295  0.00  0.00    +0.000 F 
ATOM      9  C   UNL     1       2.118   3.543  20.488  0.00  0.00    +0.000 C 
ATOM     10  C   UNL     1       1.363   3.080  21.733  0.00  0.00    +0.000 C 
ATOM     11  C   UNL     1       1.256   4.423  19.569  0.00  0.00    +0.000 C 
ENDBRANCH   1   2
BRANCH   1  16
ATOM     12  C   UNL     1       6.887   5.158  18.234  0.00  0.00    +0.000 A 
ATOM     13  C   UNL     1       6.958   5.240  16.843  0.00  0.00    +0.000 A 
ATOM     14  C   UNL     1       5.829   5.527  16.086  0.00  0.00    +0.000 A 
ATOM     15  C   UNL     1       4.609   5.720  16.736  0.00  0.00    +0.000 A 
ATOM     16  C   UNL     1       4.496   5.625  18.146  0.00  0.00    +0.000 A 
ATOM     17  C   UNL     1       5.656   5.316  18.884  0.00  0.00    +0.000 A 
BRANCH  12  19
ATOM     18  C   UNL     1       8.316   5.553  20.082  0.00  0.00    +0.000 C 
ATOM     19  O   UNL     1       8.086   4.900  18.840  0.00  0.00    +0.000 OA
ENDBRANCH  12  19
BRANCH  14  20
ATOM     20  O   UNL     1       6.051   5.606  14.741  0.00  0.00    +0.000 OA
ATOM     21  C   UNL     1       6.383   4.405  14.057  0.00  0.00    +0.000 C 
ENDBRANCH  14  20
ENDBRANCH   1  16
BRANCH   1  22
ATOM     22  C   UNL     1       2.703   7.385  18.516  0.00  0.00    +0.000 C 
ATOM     23  O   UNL     1       3.013   8.010  17.512  0.00  0.00    +0.000 OA
BRANCH  22  24
ATOM     24  O   UNL     1       2.028   7.954  19.538  0.00  0.00    +0.000 OA
ATOM     25  H   UNL     1       1.384   8.613  19.224  0.00  0.00    +0.000 HD
ENDBRANCH  22  24
ENDBRANCH   1  22
TORSDOF 6
ENDMDL
MODEL 8
REMARK VINA RESULT:      -6.8      4.984      7.484
REMARK  Name = 
REMARK  10 active torsions:
REMARK  status: ('A' for Active; 'I' for Inactive)
REMARK    1  A    between atoms: C_1  and  O_2
REMARK    2  A    between atoms: O_2  and  C_3
REMARK    3  A    between atoms: C_5  and  O_6
REMARK    4  A    between atoms: O_6  and  C_7
REMARK    5  A    between atoms: C_9  and  C_10
REMARK    6  A    between atoms: C_10  and  C_11
REMARK    7  A    between atoms: C_10  and  N_14
REMARK    8  A    between atoms: C_11  and  O_13
REMARK    9  A    between atoms: C_16  and  C_17
REMARK   10  A    between atoms: C_21  and  C_22
REMARK                            x       y       z     vdW  Elec       q    Type
REMARK                         _______ _______ _______ _____ _____    ______ ____
ROOT
ATOM      1  C   UNL     1       0.717   9.079  20.868  0.00  0.00    +0.000 C 
ENDROOT
BRANCH   1   2
ATOM      2  N   UNL     1       1.046  10.319  20.066  0.00  0.00    +0.000 NA
ATOM      3  C   UNL     1       0.469  10.266  18.692  0.00  0.00    +0.000 C 
ATOM      4  C   UNL     1      -1.066  10.276  18.675  0.00  0.00    +0.000 C 
ATOM      5  C   UNL     1      -1.644  10.090  17.275  0.00  0.00    +0.000 C 
ATOM      6  C   UNL     1      -1.559  11.547  19.358  0.00  0.00    +0.000 C 
ATOM      7  F   UNL     1      -2.914  11.541  19.409  0.00  0.00    +0.000 F 
ATOM      8  F   UNL     1      -1.201  12.632  18.625  0.00  0.00    +0.000 F 
ATOM      9  C   UNL     1      -0.988  11.659  20.769  0.00  0.00    +0.000 C 
ATOM     10  C   UNL     1      -1.474  12.916  21.488  0.00  0.00    +0.000 C 
ATOM     11  C   UNL     1       0.546  11.577  20.698  0.00  0.00    +0.000 C 
ENDBRANCH   1   2
BRANCH   1  16
ATOM     12  C   UNL     1       1.914   5.393  20.589  0.00  0.00    +0.000 A 
ATOM     13  C   UNL     1       2.687   5.480  19.431  0.00  0.00    +0.000 A 
ATOM     14  C   UNL     1       2.826   6.686  18.755  0.00  0.00    +0.000 A 
ATOM     15  C   UNL     1       2.166   7.815  19.240  0.00  0.00    +0.000 A 
ATOM     16  C   UNL     1       1.356   7.758  20.402  0.00  0.00    +0.000 A 
ATOM     17  C   UNL     1       1.222   6.518  21.057  0.00  0.00    +0.000 A 
BRANCH  12  19
ATOM     18  C   UNL     1       1.181   3.143  20.455  0.00  0.00    +0.000 C 
ATOM     19  O   UNL     1       1.899   4.149  21.159  0.00  0.00    +0.000 OA
ENDBRANCH  12  19
BRANCH  14  20
ATOM     20  O   UNL     1       3.637   6.630  17.656  0.00  0.00    +0.000 OA
ATOM     21  C   UNL     1       4.525   5.526  17.549  0.00  0.00    +0.000 C 
ENDBRANCH  14  20
ENDBRANCH   1  16
BRANCH   1  22
ATOM     22  C   UNL     1       0.960   9.293  22.387  0.00  0.00    +0.000 C 
ATOM     23  O   UNL     1       0.053   9.394  23.200  0.00  0.00    +0.000 OA
BRANCH  22  24
ATOM     24  O   UNL     1       2.257   9.420  22.738  0.00  0.00    +0.000 OA
ATOM     25  H   UNL     1       2.359   9.902  23.577  0.00  0.00    +0.000 HD
ENDBRANCH  22  24
ENDBRANCH   1  22
TORSDOF 6
ENDMDL
MODEL 9
REMARK VINA RESULT:      -6.8      2.255      3.167
REMARK  Name = 
REMARK  10 active torsions:
REMARK  status: ('A' for Active; 'I' for Inactive)
REMARK    1  A    between atoms: C_1  and  O_2
REMARK    2  A    between atoms: O_2  and  C_3
REMARK    3  A    between atoms: C_5  and  O_6
REMARK    4  A    between atoms: O_6  and  C_7
REMARK    5  A    between atoms: C_9  and  C_10
REMARK    6  A    between atoms: C_10  and  C_11
REMARK    7  A    between atoms: C_10  and  N_14
REMARK    8  A    between atoms: C_11  and  O_13
REMARK    9  A    between atoms: C_16  and  C_17
REMARK   10  A    between atoms: C_21  and  C_22
REMARK                            x       y       z     vdW  Elec       q    Type
REMARK                         _______ _______ _______ _____ _____    ______ ____
ROOT
ATOM      1  C   UNL     1       3.415   5.445  18.216  0.00  0.00    +0.000 C 
ENDROOT
BRANCH   1   2
ATOM      2  N   UNL     1       2.261   4.501  17.962  0.00  0.00    +0.000 NA
ATOM      3  C   UNL     1       2.726   3.155  17.519  0.00  0.00    +0.000 C 
ATOM      4  C   UNL     1       3.521   2.401  18.595  0.00  0.00    +0.000 C 
ATOM      5  C   UNL     1       4.103   1.085  18.087  0.00  0.00    +0.000 C 
ATOM      6  C   UNL     1       2.643   2.227  19.828  0.00  0.00    +0.000 C 
ATOM      7  F   UNL     1       3.352   1.620  20.811  0.00  0.00    +0.000 F 
ATOM      8  F   UNL     1       1.599   1.409  19.537  0.00  0.00    +0.000 F 
ATOM      9  C   UNL     1       2.127   3.577  20.319  0.00  0.00    +0.000 C 
ATOM     10  C   UNL     1       1.252   3.440  21.564  0.00  0.00    +0.000 C 
ATOM     11  C   UNL     1       1.401   4.288  19.165  0.00  0.00    +0.000 C 
ENDBRANCH   1   2
BRANCH   1  16
ATOM     12  C   UNL     1       5.876   4.446  15.380  0.00  0.00    +0.000 A 
ATOM     13  C   UNL     1       6.888   5.380  15.601  0.00  0.00    +0.000 A 
ATOM     14  C   UNL     1       6.790   6.307  16.631  0.00  0.00    +0.000 A 
ATOM     15  C   UNL     1       5.653   6.304  17.439  0.00  0.00    +0.000 A 
ATOM     16  C   UNL     1       4.596   5.382  17.230  0.00  0.00    +0.000 A 
ATOM     17  C   UNL     1       4.717   4.465  16.168  0.00  0.00    +0.000 A 
BRANCH  12  19
ATOM     18  C   UNL     1       6.562   4.165  13.129  0.00  0.00    +0.000 C 
ATOM     19  O   UNL     1       6.130   3.580  14.351  0.00  0.00    +0.000 OA
ENDBRANCH  12  19
BRANCH  14  20
ATOM     20  O   UNL     1       7.866   7.139  16.750  0.00  0.00    +0.000 OA
ATOM     21  C   UNL     1       7.780   8.198  17.694  0.00  0.00    +0.000 C 
ENDBRANCH  14  20
ENDBRANCH   1  16
BRANCH   1  22
ATOM     22  C   UNL     1       2.933   6.911  18.392  0.00  0.00    +0.000 C 
ATOM     23  O   UNL     1       2.751   7.671  17.453  0.00  0.00    +0.000 OA
BRANCH  22  24
ATOM     24  O   UNL     1       2.788   7.306  19.676  0.00  0.00    +0.000 OA
ATOM     25  H   UNL     1       2.899   6.565  20.296  0.00  0.00    +0.000 HD
ENDBRANCH  22  24
ENDBRANCH   1  22
TORSDOF 6
ENDMDL
