MODEL 1
REMARK VINA RESULT:      -7.5      0.000      0.000
REMARK  Name = 
REMARK  6 active torsions:
REMARK  status: ('A' for Active; 'I' for Inactive)
REMARK    1  A    between atoms: C_1  and  C_2
REMARK    2  A    between atoms: C_2  and  C_15
REMARK    3  A    between atoms: N_3  and  N_4
REMARK    4  A    between atoms: C_5  and  C_7
REMARK    5  A    between atoms: N_11  and  C_12
REMARK    6  A    between atoms: C_13  and  C_14
REMARK                            x       y       z     vdW  Elec       q    Type
REMARK                         _______ _______ _______ _____ _____    ______ ____
ROOT
ATOM      1  N   UNL     1       2.213   7.742  18.836  0.00  0.00    +0.000 N 
ATOM      2  C   UNL     1       1.764   8.981  18.399  0.00  0.00    +0.000 C 
ATOM      3  O   UNL     1       2.113   9.520  17.350  0.00  0.00    +0.000 OA
ATOM      4  H   UNL     1       1.876   7.358  19.715  0.00  0.00    +0.000 HD
ENDROOT
BRANCH   2   5
ATOM      5  C   UNL     1       0.851   9.669  19.357  0.00  0.00    +0.000 A 
ATOM      6  S   UNL     1      -0.152  10.991  18.840  0.00  0.00    +0.000 S 
ATOM      7  C   UNL     1      -0.815  11.190  20.468  0.00  0.00    +0.000 A 
ATOM      8  S   UNL     1      -1.922  12.378  20.839  0.00  0.00    +0.000 S 
ATOM      9  N   UNL     1      -0.253  10.212  21.295  0.00  0.00    +0.000 N 
ATOM     10  C   UNL     1      -0.574  10.068  22.712  0.00  0.00    +0.000 C 
ATOM     11  C   UNL     1       0.678   9.377  20.660  0.00  0.00    +0.000 A 
ATOM     12  C   UNL     1       1.378   8.270  21.395  0.00  0.00    +0.000 C 
ENDBRANCH   2   5
BRANCH   1  15
ATOM     13  C   UNL     1       4.056   5.058  17.155  0.00  0.00    +0.000 C 
ATOM     14  C   UNL     1       3.108   5.724  18.140  0.00  0.00    +0.000 C 
ATOM     15  N   UNL     1       3.095   7.026  18.095  0.00  0.00    +0.000 NA
BRANCH  14  16
ATOM     16  C   UNL     1       2.384   4.819  19.099  0.00  0.00    +0.000 A 
ATOM     17  C   UNL     1       2.707   4.805  20.463  0.00  0.00    +0.000 A 
ATOM     18  C   UNL     1       2.072   3.925  21.343  0.00  0.00    +0.000 A 
ATOM     19  C   UNL     1       1.140   3.009  20.863  0.00  0.00    +0.000 A 
ATOM     20  C   UNL     1       0.831   2.987  19.506  0.00  0.00    +0.000 A 
ATOM     21  C   UNL     1       1.440   3.892  18.630  0.00  0.00    +0.000 A 
ENDBRANCH  14  16
ENDBRANCH   1  15
TORSDOF 3
ENDMDL
MODEL 2
REMARK VINA RESULT:      -7.4      0.114      1.082
REMARK  Name = 
REMARK  6 active torsions:
REMARK  status: ('A' for Active; 'I' for Inactive)
REMARK    1  A    between atoms: C_1  and  C_2
REMARK    2  A    between atoms: C_2  and  C_15
REMARK    3  A    between atoms: N_3  and  N_4
REMARK    4  A    between atoms: C_5  and  C_7
REMARK    5  A    between atoms: N_11  and  C_12
REMARK    6  A    between atoms: C_13  and  C_14
REMARK                            x       y       z     vdW  Elec       q    Type
REMARK                         _______ _______ _______ _____ _____    ______ ____
ROOT
ATOM      1  N   UNL     1       2.235   7.722  18.762  0.00  0.00    +0.000 N 
ATOM      2  C   UNL     1       1.817   8.990  18.383  0.00  0.00    +0.000 C 
ATOM      3  O   UNL     1       2.199   9.580  17.375  0.00  0.00    +0.000 OA
ATOM      4  H   UNL     1       1.869   7.295  19.609  0.00  0.00    +0.000 HD
ENDROOT
BRANCH   2   5
ATOM      5  C   UNL     1       0.891   9.640  19.356  0.00  0.00    +0.000 A 
ATOM      6  S   UNL     1      -0.122  10.967  18.874  0.00  0.00    +0.000 S 
ATOM      7  C   UNL     1      -0.796  11.110  20.503  0.00  0.00    +0.000 A 
ATOM      8  S   UNL     1      -1.917  12.276  20.903  0.00  0.00    +0.000 S 
ATOM      9  N   UNL     1      -0.230  10.114  21.303  0.00  0.00    +0.000 N 
ATOM     10  C   UNL     1      -0.558   9.924  22.713  0.00  0.00    +0.000 C 
ATOM     11  C   UNL     1       0.713   9.308  20.649  0.00  0.00    +0.000 A 
ATOM     12  C   UNL     1       1.419   8.186  21.354  0.00  0.00    +0.000 C 
ENDBRANCH   2   5
BRANCH   1  15
ATOM     13  C   UNL     1       4.123   5.094  17.041  0.00  0.00    +0.000 C 
ATOM     14  C   UNL     1       3.174   5.731  18.045  0.00  0.00    +0.000 C 
ATOM     15  N   UNL     1       3.123   7.032  18.003  0.00  0.00    +0.000 NA
BRANCH  14  16
ATOM     16  C   UNL     1       2.493   4.804  19.014  0.00  0.00    +0.000 A 
ATOM     17  C   UNL     1       1.453   3.961  18.598  0.00  0.00    +0.000 A 
ATOM     18  C   UNL     1       0.784   3.141  19.511  0.00  0.00    +0.000 A 
ATOM     19  C   UNL     1       1.112   3.190  20.863  0.00  0.00    +0.000 A 
ATOM     20  C   UNL     1       2.120   4.045  21.298  0.00  0.00    +0.000 A 
ATOM     21  C   UNL     1       2.814   4.840  20.380  0.00  0.00    +0.000 A 
ENDBRANCH  14  16
ENDBRANCH   1  15
TORSDOF 3
ENDMDL
MODEL 3
REMARK VINA RESULT:      -7.3      1.253      1.751
REMARK  Name = 
REMARK  6 active torsions:
REMARK  status: ('A' for Active; 'I' for Inactive)
REMARK    1  A    between atoms: C_1  and  C_2
REMARK    2  A    between atoms: C_2  and  C_15
REMARK    3  A    between atoms: N_3  and  N_4
REMARK    4  A    between atoms: C_5  and  C_7
REMARK    5  A    between atoms: N_11  and  C_12
REMARK    6  A    between atoms: C_13  and  C_14
REMARK                            x       y       z     vdW  Elec       q    Type
REMARK                         _______ _______ _______ _____ _____    ______ ____
ROOT
ATOM      1  N   UNL     1       2.149   7.690  18.890  0.00  0.00    +0.000 N 
ATOM      2  C   UNL     1       1.709   8.940  18.475  0.00  0.00    +0.000 C 
ATOM      3  O   UNL     1       2.068   9.500  17.441  0.00  0.00    +0.000 OA
ATOM      4  H   UNL     1       1.802   7.288  19.757  0.00  0.00    +0.000 HD
ENDROOT
BRANCH   2   5
ATOM      5  C   UNL     1       0.790   9.611  19.440  0.00  0.00    +0.000 A 
ATOM      6  S   UNL     1       0.994   9.408  21.154  0.00  0.00    +0.000 S 
ATOM      7  C   UNL     1      -0.407  10.433  21.493  0.00  0.00    +0.000 A 
ATOM      8  S   UNL     1      -0.934  10.735  23.044  0.00  0.00    +0.000 S 
ATOM      9  N   UNL     1      -0.922  10.892  20.277  0.00  0.00    +0.000 N 
ATOM     10  C   UNL     1      -2.081  11.772  20.169  0.00  0.00    +0.000 C 
ATOM     11  C   UNL     1      -0.245  10.419  19.143  0.00  0.00    +0.000 A 
ATOM     12  C   UNL     1      -0.660  10.812  17.754  0.00  0.00    +0.000 C 
ENDBRANCH   2   5
BRANCH   1  15
ATOM     13  C   UNL     1       4.015   5.032  17.193  0.00  0.00    +0.000 C 
ATOM     14  C   UNL     1       3.067   5.685  18.186  0.00  0.00    +0.000 C 
ATOM     15  N   UNL     1       3.034   6.987  18.141  0.00  0.00    +0.000 NA
BRANCH  14  16
ATOM     16  C   UNL     1       2.365   4.770  19.152  0.00  0.00    +0.000 A 
ATOM     17  C   UNL     1       2.730   4.732  20.505  0.00  0.00    +0.000 A 
ATOM     18  C   UNL     1       2.114   3.842  21.390  0.00  0.00    +0.000 A 
ATOM     19  C   UNL     1       1.161   2.941  20.924  0.00  0.00    +0.000 A 
ATOM     20  C   UNL     1       0.810   2.944  19.577  0.00  0.00    +0.000 A 
ATOM     21  C   UNL     1       1.399   3.858  18.698  0.00  0.00    +0.000 A 
ENDBRANCH  14  16
ENDBRANCH   1  15
TORSDOF 3
ENDMDL
MODEL 4
REMARK VINA RESULT:      -7.2      1.267      2.054
REMARK  Name = 
REMARK  6 active torsions:
REMARK  status: ('A' for Active; 'I' for Inactive)
REMARK    1  A    between atoms: C_1  and  C_2
REMARK    2  A    between atoms: C_2  and  C_15
REMARK    3  A    between atoms: N_3  and  N_4
REMARK    4  A    between atoms: C_5  and  C_7
REMARK    5  A    between atoms: N_11  and  C_12
REMARK    6  A    between atoms: C_13  and  C_14
REMARK                            x       y       z     vdW  Elec       q    Type
REMARK                         _______ _______ _______ _____ _____    ______ ____
ROOT
ATOM      1  N   UNL     1       2.320   7.607  18.890  0.00  0.00    +0.000 N 
ATOM      2  C   UNL     1       1.803   8.829  18.484  0.00  0.00    +0.000 C 
ATOM      3  O   UNL     1       2.081   9.389  17.425  0.00  0.00    +0.000 OA
ATOM      4  H   UNL     1       2.038   7.203  19.780  0.00  0.00    +0.000 HD
ENDROOT
BRANCH   2   5
ATOM      5  C   UNL     1       0.908   9.474  19.488  0.00  0.00    +0.000 A 
ATOM      6  S   UNL     1       1.059   9.110  21.181  0.00  0.00    +0.000 S 
ATOM      7  C   UNL     1      -0.280  10.193  21.585  0.00  0.00    +0.000 A 
ATOM      8  S   UNL     1      -0.822  10.394  23.147  0.00  0.00    +0.000 S 
ATOM      9  N   UNL     1      -0.736  10.789  20.405  0.00  0.00    +0.000 N 
ATOM     10  C   UNL     1      -1.833  11.750  20.356  0.00  0.00    +0.000 C 
ATOM     11  C   UNL     1      -0.066  10.372  19.246  0.00  0.00    +0.000 A 
ATOM     12  C   UNL     1      -0.422  10.910  17.890  0.00  0.00    +0.000 C 
ENDBRANCH   2   5
BRANCH   1  15
ATOM     13  C   UNL     1       4.149   5.016  17.054  0.00  0.00    +0.000 C 
ATOM     14  C   UNL     1       3.211   5.629  18.083  0.00  0.00    +0.000 C 
ATOM     15  N   UNL     1       3.194   6.931  18.103  0.00  0.00    +0.000 NA
BRANCH  14  16
ATOM     16  C   UNL     1       2.501   4.675  19.004  0.00  0.00    +0.000 A 
ATOM     17  C   UNL     1       1.509   3.809  18.522  0.00  0.00    +0.000 A 
ATOM     18  C   UNL     1       0.811   2.963  19.388  0.00  0.00    +0.000 A 
ATOM     19  C   UNL     1       1.059   3.006  20.757  0.00  0.00    +0.000 A 
ATOM     20  C   UNL     1       2.018   3.883  21.256  0.00  0.00    +0.000 A 
ATOM     21  C   UNL     1       2.742   4.705  20.386  0.00  0.00    +0.000 A 
ENDBRANCH  14  16
ENDBRANCH   1  15
TORSDOF 3
ENDMDL
MODEL 5
REMARK VINA RESULT:      -7.1      1.356      1.761
REMARK  Name = 
REMARK  6 active torsions:
REMARK  status: ('A' for Active; 'I' for Inactive)
REMARK    1  A    between atoms: C_1  and  C_2
REMARK    2  A    between atoms: C_2  and  C_15
REMARK    3  A    between atoms: N_3  and  N_4
REMARK    4  A    between atoms: C_5  and  C_7
REMARK    5  A    between atoms: N_11  and  C_12
REMARK    6  A    between atoms: C_13  and  C_14
REMARK                            x       y       z     vdW  Elec       q    Type
REMARK                         _______ _______ _______ _____ _____    ______ ____
ROOT
ATOM      1  N   UNL     1       2.608   7.439  18.986  0.00  0.00    +0.000 N 
ATOM      2  C   UNL     1       2.009   8.595  18.506  0.00  0.00    +0.000 C 
ATOM      3  O   UNL     1       2.074   8.985  17.341  0.00  0.00    +0.000 OA
ATOM      4  H   UNL     1       2.506   7.179  19.963  0.00  0.00    +0.000 HD
ENDROOT
BRANCH   2   5
ATOM      5  C   UNL     1       1.316   9.400  19.553  0.00  0.00    +0.000 A 
ATOM      6  S   UNL     1       0.646   8.638  20.965  0.00  0.00    +0.000 S 
ATOM      7  C   UNL     1       0.056  10.187  21.583  0.00  0.00    +0.000 A 
ATOM      8  S   UNL     1      -0.798  10.310  23.007  0.00  0.00    +0.000 S 
ATOM      9  N   UNL     1       0.438  11.192  20.688  0.00  0.00    +0.000 N 
ATOM     10  C   UNL     1       0.128  12.606  20.879  0.00  0.00    +0.000 C 
ATOM     11  C   UNL     1       1.134  10.734  19.561  0.00  0.00    +0.000 A 
ATOM     12  C   UNL     1       1.623  11.675  18.497  0.00  0.00    +0.000 C 
ENDBRANCH   2   5
BRANCH   1  15
ATOM     13  C   UNL     1       3.952   4.585  17.120  0.00  0.00    +0.000 C 
ATOM     14  C   UNL     1       3.190   5.341  18.197  0.00  0.00    +0.000 C 
ATOM     15  N   UNL     1       3.323   6.637  18.158  0.00  0.00    +0.000 NA
BRANCH  14  16
ATOM     16  C   UNL     1       2.463   4.512  19.220  0.00  0.00    +0.000 A 
ATOM     17  C   UNL     1       2.996   4.317  20.502  0.00  0.00    +0.000 A 
ATOM     18  C   UNL     1       2.347   3.501  21.433  0.00  0.00    +0.000 A 
ATOM     19  C   UNL     1       1.182   2.826  21.078  0.00  0.00    +0.000 A 
ATOM     20  C   UNL     1       0.658   2.983  19.799  0.00  0.00    +0.000 A 
ATOM     21  C   UNL     1       1.287   3.827  18.878  0.00  0.00    +0.000 A 
ENDBRANCH  14  16
ENDBRANCH   1  15
TORSDOF 3
ENDMDL
MODEL 6
REMARK VINA RESULT:      -7.1      1.711      1.827
REMARK  Name = 
REMARK  6 active torsions:
REMARK  status: ('A' for Active; 'I' for Inactive)
REMARK    1  A    between atoms: C_1  and  C_2
REMARK    2  A    between atoms: C_2  and  C_15
REMARK    3  A    between atoms: N_3  and  N_4
REMARK    4  A    between atoms: C_5  and  C_7
REMARK    5  A    between atoms: N_11  and  C_12
REMARK    6  A    between atoms: C_13  and  C_14
REMARK                            x       y       z     vdW  Elec       q    Type
REMARK                         _______ _______ _______ _____ _____    ______ ____
ROOT
ATOM      1  N   UNL     1       1.903   8.545  18.188  0.00  0.00    +0.000 N 
ATOM      2  C   UNL     1       1.678   9.901  17.998  0.00  0.00    +0.000 C 
ATOM      3  O   UNL     1       2.515  10.696  17.574  0.00  0.00    +0.000 OA
ATOM      4  H   UNL     1       1.159   7.948  18.540  0.00  0.00    +0.000 HD
ENDROOT
BRANCH   2   5
ATOM      5  C   UNL     1       0.324  10.358  18.426  0.00  0.00    +0.000 A 
ATOM      6  S   UNL     1      -1.074  10.050  17.440  0.00  0.00    +0.000 S 
ATOM      7  C   UNL     1      -2.131  10.879  18.591  0.00  0.00    +0.000 A 
ATOM      8  S   UNL     1      -3.766  11.057  18.330  0.00  0.00    +0.000 S 
ATOM      9  N   UNL     1      -1.354  11.310  19.671  0.00  0.00    +0.000 N 
ATOM     10  C   UNL     1      -1.894  12.029  20.820  0.00  0.00    +0.000 C 
ATOM     11  C   UNL     1       0.013  11.015  19.559  0.00  0.00    +0.000 A 
ATOM     12  C   UNL     1       0.995  11.401  20.628  0.00  0.00    +0.000 C 
ENDBRANCH   2   5
BRANCH   1  15
ATOM     13  C   UNL     1       4.669   6.232  17.529  0.00  0.00    +0.000 C 
ATOM     14  C   UNL     1       3.313   6.716  18.021  0.00  0.00    +0.000 C 
ATOM     15  N   UNL     1       3.110   7.997  17.898  0.00  0.00    +0.000 NA
BRANCH  14  16
ATOM     16  C   UNL     1       2.423   5.691  18.667  0.00  0.00    +0.000 A 
ATOM     17  C   UNL     1       2.197   5.700  20.051  0.00  0.00    +0.000 A 
ATOM     18  C   UNL     1       1.414   4.714  20.658  0.00  0.00    +0.000 A 
ATOM     19  C   UNL     1       0.887   3.675  19.896  0.00  0.00    +0.000 A 
ATOM     20  C   UNL     1       1.128   3.633  18.526  0.00  0.00    +0.000 A 
ATOM     21  C   UNL     1       1.882   4.639  17.912  0.00  0.00    +0.000 A 
ENDBRANCH  14  16
ENDBRANCH   1  15
TORSDOF 3
ENDMDL
MODEL 7
REMARK VINA RESULT:      -6.9      2.557      4.351
REMARK  Name = 
REMARK  6 active torsions:
REMARK  status: ('A' for Active; 'I' for Inactive)
REMARK    1  A    between atoms: C_1  and  C_2
REMARK    2  A    between atoms: C_2  and  C_15
REMARK    3  A    between atoms: N_3  and  N_4
REMARK    4  A    between atoms: C_5  and  C_7
REMARK    5  A    between atoms: N_11  and  C_12
REMARK    6  A    between atoms: C_13  and  C_14
REMARK                            x       y       z     vdW  Elec       q    Type
REMARK                         _______ _______ _______ _____ _____    ______ ____
ROOT
ATOM      1  N   UNL     1       2.072   4.970  18.735  0.00  0.00    +0.000 N 
ATOM      2  C   UNL     1       2.226   5.664  19.927  0.00  0.00    +0.000 C 
ATOM      3  O   UNL     1       2.551   5.152  20.996  0.00  0.00    +0.000 OA
ATOM      4  H   UNL     1       1.805   5.465  17.887  0.00  0.00    +0.000 HD
ENDROOT
BRANCH   2   5
ATOM      5  C   UNL     1       1.890   7.115  19.833  0.00  0.00    +0.000 A 
ATOM      6  S   UNL     1       0.983   7.903  21.089  0.00  0.00    +0.000 S 
ATOM      7  C   UNL     1       1.024   9.444  20.221  0.00  0.00    +0.000 A 
ATOM      8  S   UNL     1       0.281  10.815  20.806  0.00  0.00    +0.000 S 
ATOM      9  N   UNL     1       1.757   9.266  19.043  0.00  0.00    +0.000 N 
ATOM     10  C   UNL     1       2.004  10.331  18.077  0.00  0.00    +0.000 C 
ATOM     11  C   UNL     1       2.226   7.961  18.841  0.00  0.00    +0.000 A 
ATOM     12  C   UNL     1       3.034   7.590  17.631  0.00  0.00    +0.000 C 
ENDBRANCH   2   5
BRANCH   1  15
ATOM     13  C   UNL     1       3.572   1.641  18.431  0.00  0.00    +0.000 C 
ATOM     14  C   UNL     1       3.439   3.151  18.310  0.00  0.00    +0.000 C 
ATOM     15  N   UNL     1       2.286   3.632  18.681  0.00  0.00    +0.000 NA
BRANCH  14  16
ATOM     16  C   UNL     1       4.599   3.885  17.695  0.00  0.00    +0.000 A 
ATOM     17  C   UNL     1       4.710   4.025  16.304  0.00  0.00    +0.000 A 
ATOM     18  C   UNL     1       5.816   4.659  15.732  0.00  0.00    +0.000 A 
ATOM     19  C   UNL     1       6.853   5.118  16.540  0.00  0.00    +0.000 A 
ATOM     20  C   UNL     1       6.774   4.958  17.920  0.00  0.00    +0.000 A 
ATOM     21  C   UNL     1       5.651   4.355  18.496  0.00  0.00    +0.000 A 
ENDBRANCH  14  16
ENDBRANCH   1  15
TORSDOF 3
ENDMDL
MODEL 8
REMARK VINA RESULT:      -6.9      1.481      2.001
REMARK  Name = 
REMARK  6 active torsions:
REMARK  status: ('A' for Active; 'I' for Inactive)
REMARK    1  A    between atoms: C_1  and  C_2
REMARK    2  A    between atoms: C_2  and  C_15
REMARK    3  A    between atoms: N_3  and  N_4
REMARK    4  A    between atoms: C_5  and  C_7
REMARK    5  A    between atoms: N_11  and  C_12
REMARK    6  A    between atoms: C_13  and  C_14
REMARK                            x       y       z     vdW  Elec       q    Type
REMARK                         _______ _______ _______ _____ _____    ______ ____
ROOT
ATOM      1  N   UNL     1       1.983   8.562  18.375  0.00  0.00    +0.000 N 
ATOM      2  C   UNL     1       1.759   9.915  18.163  0.00  0.00    +0.000 C 
ATOM      3  O   UNL     1       2.479  10.645  17.485  0.00  0.00    +0.000 OA
ATOM      4  H   UNL     1       1.339   8.020  18.946  0.00  0.00    +0.000 HD
ENDROOT
BRANCH   2   5
ATOM      5  C   UNL     1       0.580  10.458  18.899  0.00  0.00    +0.000 A 
ATOM      6  S   UNL     1       0.763  11.175  20.472  0.00  0.00    +0.000 S 
ATOM      7  C   UNL     1      -0.974  11.487  20.587  0.00  0.00    +0.000 A 
ATOM      8  S   UNL     1      -1.665  12.189  21.931  0.00  0.00    +0.000 S 
ATOM      9  N   UNL     1      -1.579  11.055  19.403  0.00  0.00    +0.000 N 
ATOM     10  C   UNL     1      -3.011  11.161  19.140  0.00  0.00    +0.000 C 
ATOM     11  C   UNL     1      -0.698  10.479  18.477  0.00  0.00    +0.000 A 
ATOM     12  C   UNL     1      -1.174   9.962  17.149  0.00  0.00    +0.000 C 
ENDBRANCH   2   5
BRANCH   1  15
ATOM     13  C   UNL     1       4.349   6.090  17.063  0.00  0.00    +0.000 C 
ATOM     14  C   UNL     1       3.171   6.646  17.848  0.00  0.00    +0.000 C 
ATOM     15  N   UNL     1       3.053   7.943  17.816  0.00  0.00    +0.000 NA
BRANCH  14  16
ATOM     16  C   UNL     1       2.355   5.657  18.633  0.00  0.00    +0.000 A 
ATOM     17  C   UNL     1       2.231   5.767  20.026  0.00  0.00    +0.000 A 
ATOM     18  C   UNL     1       1.518   4.816  20.761  0.00  0.00    +0.000 A 
ATOM     19  C   UNL     1       0.961   3.713  20.120  0.00  0.00    +0.000 A 
ATOM     20  C   UNL     1       1.102   3.571  18.743  0.00  0.00    +0.000 A 
ATOM     21  C   UNL     1       1.785   4.541  18.001  0.00  0.00    +0.000 A 
ENDBRANCH  14  16
ENDBRANCH   1  15
TORSDOF 3
ENDMDL
MODEL 9
REMARK VINA RESULT:      -6.9      2.552      4.218
REMARK  Name = 
REMARK  6 active torsions:
REMARK  status: ('A' for Active; 'I' for Inactive)
REMARK    1  A    between atoms: C_1  and  C_2
REMARK    2  A    between atoms: C_2  and  C_15
REMARK    3  A    between atoms: N_3  and  N_4
REMARK    4  A    between atoms: C_5  and  C_7
REMARK    5  A    between atoms: N_11  and  C_12
REMARK    6  A    between atoms: C_13  and  C_14
REMARK                            x       y       z     vdW  Elec       q    Type
REMARK                         _______ _______ _______ _____ _____    ______ ____
ROOT
ATOM      1  N   UNL     1       2.080   4.919  18.745  0.00  0.00    +0.000 N 
ATOM      2  C   UNL     1       2.255   5.625  19.928  0.00  0.00    +0.000 C 
ATOM      3  O   UNL     1       2.603   5.124  20.996  0.00  0.00    +0.000 OA
ATOM      4  H   UNL     1       1.795   5.404  17.898  0.00  0.00    +0.000 HD
ENDROOT
BRANCH   2   5
ATOM      5  C   UNL     1       1.910   7.073  19.827  0.00  0.00    +0.000 A 
ATOM      6  S   UNL     1       0.991   7.860  21.075  0.00  0.00    +0.000 S 
ATOM      7  C   UNL     1       1.028   9.398  20.202  0.00  0.00    +0.000 A 
ATOM      8  S   UNL     1       0.273  10.766  20.777  0.00  0.00    +0.000 S 
ATOM      9  N   UNL     1       1.769   9.221  19.029  0.00  0.00    +0.000 N 
ATOM     10  C   UNL     1       2.016  10.284  18.060  0.00  0.00    +0.000 C 
ATOM     11  C   UNL     1       2.247   7.917  18.834  0.00  0.00    +0.000 A 
ATOM     12  C   UNL     1       3.064   7.547  17.629  0.00  0.00    +0.000 C 
ENDBRANCH   2   5
BRANCH   1  15
ATOM     13  C   UNL     1       3.596   1.593  18.482  0.00  0.00    +0.000 C 
ATOM     14  C   UNL     1       3.461   3.102  18.354  0.00  0.00    +0.000 C 
ATOM     15  N   UNL     1       2.300   3.581  18.701  0.00  0.00    +0.000 NA
BRANCH  14  16
ATOM     16  C   UNL     1       4.631   3.838  17.761  0.00  0.00    +0.000 A 
ATOM     17  C   UNL     1       5.617   4.407  18.580  0.00  0.00    +0.000 A 
ATOM     18  C   UNL     1       6.674   5.138  18.030  0.00  0.00    +0.000 A 
ATOM     19  C   UNL     1       6.732   5.354  16.656  0.00  0.00    +0.000 A 
ATOM     20  C   UNL     1       5.745   4.824  15.832  0.00  0.00    +0.000 A 
ATOM     21  C   UNL     1       4.706   4.062  16.377  0.00  0.00    +0.000 A 
ENDBRANCH  14  16
ENDBRANCH   1  15
TORSDOF 3
ENDMDL
