MODEL 1
REMARK VINA RESULT:      -8.3      0.000      0.000
REMARK  Name = 
REMARK  6 active torsions:
REMARK  status: ('A' for Active; 'I' for Inactive)
REMARK    1  A    between atoms: C_1  and  C_2
REMARK    2  A    between atoms: C_2  and  C_3
REMARK    3  A    between atoms: C_2  and  C_4
REMARK    4  A    between atoms: C_2  and  C_5
REMARK    5  A    between atoms: C_8  and  C_9
REMARK    6  A    between atoms: N_18  and  C_19
REMARK                            x       y       z     vdW  Elec       q    Type
REMARK                         _______ _______ _______ _____ _____    ______ ____
ROOT
ATOM      1  C   UNL     1       2.063   5.442  20.548  0.00  0.00    +0.000 C 
ATOM      2  O   UNL     1       2.319   4.928  21.633  0.00  0.00    +0.000 OA
ATOM      3  N   UNL     1       2.234   4.753  19.363  0.00  0.00    +0.000 N 
ATOM      4  C   UNL     1       2.156   5.212  17.968  0.00  0.00    +0.000 C 
ATOM      5  C   UNL     1       2.676   3.978  17.206  0.00  0.00    +0.000 C 
ATOM      6  C   UNL     1       2.091   2.848  18.061  0.00  0.00    +0.000 C 
ATOM      7  C   UNL     1       2.750   3.373  19.334  0.00  0.00    +0.000 C 
ATOM      8  C   UNL     1       4.216   3.433  18.834  0.00  0.00    +0.000 C 
ATOM      9  O   UNL     1       5.221   3.249  19.496  0.00  0.00    +0.000 OA
ATOM     10  N   UNL     1       4.092   3.815  17.468  0.00  0.00    +0.000 N 
ENDROOT
BRANCH  10  11
ATOM     11  C   UNL     1       5.127   4.198  16.586  0.00  0.00    +0.000 A 
ATOM     12  C   UNL     1       5.340   3.495  15.396  0.00  0.00    +0.000 A 
ATOM     13  C   UNL     1       6.359   3.871  14.511  0.00  0.00    +0.000 A 
ATOM     14  C   UNL     1       7.192   4.946  14.812  0.00  0.00    +0.000 A 
ATOM     15  C   UNL     1       6.998   5.656  15.991  0.00  0.00    +0.000 A 
ATOM     16  C   UNL     1       5.971   5.289  16.861  0.00  0.00    +0.000 A 
ATOM     17  F   UNL     1       5.852   5.985  18.002  0.00  0.00    +0.000 F 
ENDBRANCH  10  11
BRANCH   1  21
ATOM     18  C   UNL     1       0.582   9.522  20.397  0.00  0.00    +0.000 A 
ATOM     19  C   UNL     1       1.525   9.040  19.472  0.00  0.00    +0.000 A 
ATOM     20  C   UNL     1       1.997   7.719  19.532  0.00  0.00    +0.000 A 
ATOM     21  C   UNL     1       1.555   6.848  20.531  0.00  0.00    +0.000 A 
ATOM     22  C   UNL     1       0.691   7.352  21.505  0.00  0.00    +0.000 A 
ATOM     23  C   UNL     1       0.179   8.645  21.413  0.00  0.00    +0.000 A 
BRANCH  18  25
ATOM     24  C   UNL     1       1.066  12.035  20.132  0.00  0.00    +0.000 C 
ATOM     25  C   UNL     1      -0.001  10.944  20.357  0.00  0.00    +0.000 C 
ATOM     26  C   UNL     1      -0.715  11.261  21.691  0.00  0.00    +0.000 C 
ATOM     27  C   UNL     1      -1.029  11.048  19.209  0.00  0.00    +0.000 C 
ENDBRANCH  18  25
ENDBRANCH   1  21
TORSDOF 3
ENDMDL
MODEL 2
REMARK VINA RESULT:      -8.1      0.144      1.220
REMARK  Name = 
REMARK  6 active torsions:
REMARK  status: ('A' for Active; 'I' for Inactive)
REMARK    1  A    between atoms: C_1  and  C_2
REMARK    2  A    between atoms: C_2  and  C_3
REMARK    3  A    between atoms: C_2  and  C_4
REMARK    4  A    between atoms: C_2  and  C_5
REMARK    5  A    between atoms: C_8  and  C_9
REMARK    6  A    between atoms: N_18  and  C_19
REMARK                            x       y       z     vdW  Elec       q    Type
REMARK                         _______ _______ _______ _____ _____    ______ ____
ROOT
ATOM      1  C   UNL     1       2.060   5.522  20.532  0.00  0.00    +0.000 C 
ATOM      2  O   UNL     1       2.327   5.032  21.626  0.00  0.00    +0.000 OA
ATOM      3  N   UNL     1       2.232   4.811  19.360  0.00  0.00    +0.000 N 
ATOM      4  C   UNL     1       2.142   5.241  17.956  0.00  0.00    +0.000 C 
ATOM      5  C   UNL     1       2.670   3.998  17.216  0.00  0.00    +0.000 C 
ATOM      6  C   UNL     1       2.101   2.879  18.097  0.00  0.00    +0.000 C 
ATOM      7  C   UNL     1       2.761   3.436  19.356  0.00  0.00    +0.000 C 
ATOM      8  C   UNL     1       4.224   3.500  18.846  0.00  0.00    +0.000 C 
ATOM      9  O   UNL     1       5.234   3.339  19.506  0.00  0.00    +0.000 OA
ATOM     10  N   UNL     1       4.089   3.854  17.474  0.00  0.00    +0.000 N 
ENDROOT
BRANCH  10  11
ATOM     11  C   UNL     1       5.115   4.229  16.579  0.00  0.00    +0.000 A 
ATOM     12  C   UNL     1       5.334   3.500  15.405  0.00  0.00    +0.000 A 
ATOM     13  C   UNL     1       6.345   3.868  14.508  0.00  0.00    +0.000 A 
ATOM     14  C   UNL     1       7.164   4.962  14.779  0.00  0.00    +0.000 A 
ATOM     15  C   UNL     1       6.965   5.698  15.942  0.00  0.00    +0.000 A 
ATOM     16  C   UNL     1       5.946   5.338  16.824  0.00  0.00    +0.000 A 
ATOM     17  F   UNL     1       5.821   6.060  17.949  0.00  0.00    +0.000 F 
ENDBRANCH  10  11
BRANCH   1  21
ATOM     18  C   UNL     1       0.548   9.593  20.513  0.00  0.00    +0.000 A 
ATOM     19  C   UNL     1       0.111   8.643  21.452  0.00  0.00    +0.000 A 
ATOM     20  C   UNL     1       0.605   7.329  21.447  0.00  0.00    +0.000 A 
ATOM     21  C   UNL     1       1.539   6.922  20.490  0.00  0.00    +0.000 A 
ATOM     22  C   UNL     1       1.904   7.836  19.501  0.00  0.00    +0.000 A 
ATOM     23  C   UNL     1       1.456   9.156  19.540  0.00  0.00    +0.000 A 
BRANCH  18  25
ATOM     24  C   UNL     1      -0.417  11.554  21.870  0.00  0.00    +0.000 C 
ATOM     25  C   UNL     1       0.073  11.055  20.495  0.00  0.00    +0.000 C 
ATOM     26  C   UNL     1      -1.097  11.219  19.498  0.00  0.00    +0.000 C 
ATOM     27  C   UNL     1       1.235  11.970  20.049  0.00  0.00    +0.000 C 
ENDBRANCH  18  25
ENDBRANCH   1  21
TORSDOF 3
ENDMDL
MODEL 3
REMARK VINA RESULT:      -8.1      3.824      8.660
REMARK  Name = 
REMARK  6 active torsions:
REMARK  status: ('A' for Active; 'I' for Inactive)
REMARK    1  A    between atoms: C_1  and  C_2
REMARK    2  A    between atoms: C_2  and  C_3
REMARK    3  A    between atoms: C_2  and  C_4
REMARK    4  A    between atoms: C_2  and  C_5
REMARK    5  A    between atoms: C_8  and  C_9
REMARK    6  A    between atoms: N_18  and  C_19
REMARK                            x       y       z     vdW  Elec       q    Type
REMARK                         _______ _______ _______ _____ _____    ______ ____
ROOT
ATOM      1  C   UNL     1       1.532   8.610  20.933  0.00  0.00    +0.000 C 
ATOM      2  O   UNL     1       1.706   8.754  22.140  0.00  0.00    +0.000 OA
ATOM      3  N   UNL     1       1.111   9.655  20.133  0.00  0.00    +0.000 N 
ATOM      4  C   UNL     1       0.682   9.672  18.726  0.00  0.00    +0.000 C 
ATOM      5  C   UNL     1       0.149  11.110  18.582  0.00  0.00    +0.000 C 
ATOM      6  C   UNL     1       1.137  11.870  19.475  0.00  0.00    +0.000 C 
ATOM      7  C   UNL     1       0.831  10.992  20.685  0.00  0.00    +0.000 C 
ATOM      8  C   UNL     1      -0.709  11.168  20.722  0.00  0.00    +0.000 C 
ATOM      9  O   UNL     1      -1.419  11.175  21.711  0.00  0.00    +0.000 OA
ATOM     10  N   UNL     1      -1.073  11.246  19.349  0.00  0.00    +0.000 N 
ENDROOT
BRANCH  10  11
ATOM     11  C   UNL     1      -2.377  11.222  18.803  0.00  0.00    +0.000 A 
ATOM     12  C   UNL     1      -2.728  10.260  17.851  0.00  0.00    +0.000 A 
ATOM     13  C   UNL     1      -4.020  10.222  17.309  0.00  0.00    +0.000 A 
ATOM     14  C   UNL     1      -4.975  11.158  17.700  0.00  0.00    +0.000 A 
ATOM     15  C   UNL     1      -4.645  12.124  18.644  0.00  0.00    +0.000 A 
ATOM     16  C   UNL     1      -3.362  12.146  19.193  0.00  0.00    +0.000 A 
ATOM     17  F   UNL     1      -3.086  13.122  20.072  0.00  0.00    +0.000 F 
ENDBRANCH  10  11
BRANCH   1  21
ATOM     18  C   UNL     1       2.177   4.668  19.228  0.00  0.00    +0.000 A 
ATOM     19  C   UNL     1       1.542   4.845  20.469  0.00  0.00    +0.000 A 
ATOM     20  C   UNL     1       1.340   6.124  21.011  0.00  0.00    +0.000 A 
ATOM     21  C   UNL     1       1.786   7.264  20.336  0.00  0.00    +0.000 A 
ATOM     22  C   UNL     1       2.499   7.084  19.149  0.00  0.00    +0.000 A 
ATOM     23  C   UNL     1       2.650   5.819  18.584  0.00  0.00    +0.000 A 
BRANCH  18  25
ATOM     24  C   UNL     1       1.155   2.376  18.662  0.00  0.00    +0.000 C 
ATOM     25  C   UNL     1       2.389   3.297  18.567  0.00  0.00    +0.000 C 
ATOM     26  C   UNL     1       3.569   2.560  19.242  0.00  0.00    +0.000 C 
ATOM     27  C   UNL     1       2.718   3.490  17.070  0.00  0.00    +0.000 C 
ENDBRANCH  18  25
ENDBRANCH   1  21
TORSDOF 3
ENDMDL
MODEL 4
REMARK VINA RESULT:      -8.1      3.515      8.542
REMARK  Name = 
REMARK  6 active torsions:
REMARK  status: ('A' for Active; 'I' for Inactive)
REMARK    1  A    between atoms: C_1  and  C_2
REMARK    2  A    between atoms: C_2  and  C_3
REMARK    3  A    between atoms: C_2  and  C_4
REMARK    4  A    between atoms: C_2  and  C_5
REMARK    5  A    between atoms: C_8  and  C_9
REMARK    6  A    between atoms: N_18  and  C_19
REMARK                            x       y       z     vdW  Elec       q    Type
REMARK                         _______ _______ _______ _____ _____    ______ ____
ROOT
ATOM      1  C   UNL     1       1.531   8.620  20.929  0.00  0.00    +0.000 C 
ATOM      2  O   UNL     1       1.681   8.771  22.138  0.00  0.00    +0.000 OA
ATOM      3  N   UNL     1       1.141   9.664  20.113  0.00  0.00    +0.000 N 
ATOM      4  C   UNL     1       0.744   9.675  18.696  0.00  0.00    +0.000 C 
ATOM      5  C   UNL     1       0.232  11.118  18.530  0.00  0.00    +0.000 C 
ATOM      6  C   UNL     1       1.209  11.874  19.438  0.00  0.00    +0.000 C 
ATOM      7  C   UNL     1       0.865  11.008  20.648  0.00  0.00    +0.000 C 
ATOM      8  C   UNL     1      -0.673  11.204  20.650  0.00  0.00    +0.000 C 
ATOM      9  O   UNL     1      -1.404  11.227  21.623  0.00  0.00    +0.000 OA
ATOM     10  N   UNL     1      -1.005  11.276  19.268  0.00  0.00    +0.000 N 
ENDROOT
BRANCH  10  11
ATOM     11  C   UNL     1      -2.297  11.263  18.694  0.00  0.00    +0.000 A 
ATOM     12  C   UNL     1      -3.301  12.100  19.190  0.00  0.00    +0.000 A 
ATOM     13  C   UNL     1      -4.583  12.100  18.625  0.00  0.00    +0.000 A 
ATOM     14  C   UNL     1      -4.884  11.250  17.563  0.00  0.00    +0.000 A 
ATOM     15  C   UNL     1      -3.900  10.408  17.057  0.00  0.00    +0.000 A 
ATOM     16  C   UNL     1      -2.620  10.425  17.613  0.00  0.00    +0.000 A 
ATOM     17  F   UNL     1      -1.719   9.565  17.110  0.00  0.00    +0.000 F 
ENDBRANCH  10  11
BRANCH   1  21
ATOM     18  C   UNL     1       2.164   4.658  19.266  0.00  0.00    +0.000 A 
ATOM     19  C   UNL     1       1.478   4.854  20.477  0.00  0.00    +0.000 A 
ATOM     20  C   UNL     1       1.281   6.139  21.005  0.00  0.00    +0.000 A 
ATOM     21  C   UNL     1       1.782   7.266  20.348  0.00  0.00    +0.000 A 
ATOM     22  C   UNL     1       2.543   7.067  19.195  0.00  0.00    +0.000 A 
ATOM     23  C   UNL     1       2.690   5.796  18.640  0.00  0.00    +0.000 A 
BRANCH  18  25
ATOM     24  C   UNL     1       3.528   2.477  19.255  0.00  0.00    +0.000 C 
ATOM     25  C   UNL     1       2.375   3.280  18.618  0.00  0.00    +0.000 C 
ATOM     26  C   UNL     1       2.700   3.445  17.116  0.00  0.00    +0.000 C 
ATOM     27  C   UNL     1       1.085   2.442  18.756  0.00  0.00    +0.000 C 
ENDBRANCH  18  25
ENDBRANCH   1  21
TORSDOF 3
ENDMDL
MODEL 5
REMARK VINA RESULT:      -8.0      4.278      9.490
REMARK  Name = 
REMARK  6 active torsions:
REMARK  status: ('A' for Active; 'I' for Inactive)
REMARK    1  A    between atoms: C_1  and  C_2
REMARK    2  A    between atoms: C_2  and  C_3
REMARK    3  A    between atoms: C_2  and  C_4
REMARK    4  A    between atoms: C_2  and  C_5
REMARK    5  A    between atoms: C_8  and  C_9
REMARK    6  A    between atoms: N_18  and  C_19
REMARK                            x       y       z     vdW  Elec       q    Type
REMARK                         _______ _______ _______ _____ _____    ______ ____
ROOT
ATOM      1  C   UNL     1       1.349  10.585  18.520  0.00  0.00    +0.000 C 
ATOM      2  O   UNL     1       2.259  11.363  18.251  0.00  0.00    +0.000 OA
ATOM      3  N   UNL     1       0.031  10.997  18.553  0.00  0.00    +0.000 N 
ATOM      4  C   UNL     1      -1.181  10.297  19.005  0.00  0.00    +0.000 C 
ATOM      5  C   UNL     1      -2.226  11.429  18.967  0.00  0.00    +0.000 C 
ATOM      6  C   UNL     1      -1.761  12.203  17.728  0.00  0.00    +0.000 C 
ATOM      7  C   UNL     1      -0.353  12.395  18.287  0.00  0.00    +0.000 C 
ATOM      8  C   UNL     1      -0.725  13.044  19.645  0.00  0.00    +0.000 C 
ATOM      9  O   UNL     1      -0.081  13.876  20.257  0.00  0.00    +0.000 OA
ATOM     10  N   UNL     1      -1.933  12.387  20.014  0.00  0.00    +0.000 N 
ENDROOT
BRANCH  10  11
ATOM     11  C   UNL     1      -2.606  12.461  21.254  0.00  0.00    +0.000 A 
ATOM     12  C   UNL     1      -3.871  13.051  21.340  0.00  0.00    +0.000 A 
ATOM     13  C   UNL     1      -4.550  13.122  22.563  0.00  0.00    +0.000 A 
ATOM     14  C   UNL     1      -3.966  12.620  23.724  0.00  0.00    +0.000 A 
ATOM     15  C   UNL     1      -2.708  12.032  23.660  0.00  0.00    +0.000 A 
ATOM     16  C   UNL     1      -2.043  11.947  22.436  0.00  0.00    +0.000 A 
ATOM     17  F   UNL     1      -0.816  11.403  22.438  0.00  0.00    +0.000 F 
ENDBRANCH  10  11
BRANCH   1  21
ATOM     18  C   UNL     1       2.276   6.442  19.436  0.00  0.00    +0.000 A 
ATOM     19  C   UNL     1       1.787   7.327  20.413  0.00  0.00    +0.000 A 
ATOM     20  C   UNL     1       1.492   8.665  20.105  0.00  0.00    +0.000 A 
ATOM     21  C   UNL     1       1.696   9.162  18.815  0.00  0.00    +0.000 A 
ATOM     22  C   UNL     1       2.269   8.310  17.869  0.00  0.00    +0.000 A 
ATOM     23  C   UNL     1       2.508   6.968  18.159  0.00  0.00    +0.000 A 
BRANCH  18  25
ATOM     24  C   UNL     1       2.211   4.510  21.134  0.00  0.00    +0.000 C 
ATOM     25  C   UNL     1       2.577   4.959  19.704  0.00  0.00    +0.000 C 
ATOM     26  C   UNL     1       4.084   4.680  19.503  0.00  0.00    +0.000 C 
ATOM     27  C   UNL     1       1.776   4.082  18.717  0.00  0.00    +0.000 C 
ENDBRANCH  18  25
ENDBRANCH   1  21
TORSDOF 3
ENDMDL
MODEL 6
REMARK VINA RESULT:      -8.0      3.695      8.604
REMARK  Name = 
REMARK  6 active torsions:
REMARK  status: ('A' for Active; 'I' for Inactive)
REMARK    1  A    between atoms: C_1  and  C_2
REMARK    2  A    between atoms: C_2  and  C_3
REMARK    3  A    between atoms: C_2  and  C_4
REMARK    4  A    between atoms: C_2  and  C_5
REMARK    5  A    between atoms: C_8  and  C_9
REMARK    6  A    between atoms: N_18  and  C_19
REMARK                            x       y       z     vdW  Elec       q    Type
REMARK                         _______ _______ _______ _____ _____    ______ ____
ROOT
ATOM      1  C   UNL     1       1.527   8.565  20.943  0.00  0.00    +0.000 C 
ATOM      2  O   UNL     1       1.665   8.667  22.159  0.00  0.00    +0.000 OA
ATOM      3  N   UNL     1       1.122   9.635  20.169  0.00  0.00    +0.000 N 
ATOM      4  C   UNL     1       0.734   9.700  18.752  0.00  0.00    +0.000 C 
ATOM      5  C   UNL     1       0.195  11.138  18.643  0.00  0.00    +0.000 C 
ATOM      6  C   UNL     1       1.151  11.873  19.591  0.00  0.00    +0.000 C 
ATOM      7  C   UNL     1       0.816  10.950  20.760  0.00  0.00    +0.000 C 
ATOM      8  C   UNL     1      -0.726  11.115  20.758  0.00  0.00    +0.000 C 
ATOM      9  O   UNL     1      -1.464  11.082  21.725  0.00  0.00    +0.000 OA
ATOM     10  N   UNL     1      -1.050  11.240  19.378  0.00  0.00    +0.000 N 
ENDROOT
BRANCH  10  11
ATOM     11  C   UNL     1      -2.337  11.226  18.794  0.00  0.00    +0.000 A 
ATOM     12  C   UNL     1      -2.646  10.314  17.780  0.00  0.00    +0.000 A 
ATOM     13  C   UNL     1      -3.920  10.288  17.199  0.00  0.00    +0.000 A 
ATOM     14  C   UNL     1      -4.901  11.186  17.613  0.00  0.00    +0.000 A 
ATOM     15  C   UNL     1      -4.614  12.102  18.618  0.00  0.00    +0.000 A 
ATOM     16  C   UNL     1      -3.348  12.113  19.205  0.00  0.00    +0.000 A 
ATOM     17  F   UNL     1      -3.113  13.042  20.145  0.00  0.00    +0.000 F 
ENDBRANCH  10  11
BRANCH   1  21
ATOM     18  C   UNL     1       2.435   4.758  19.061  0.00  0.00    +0.000 A 
ATOM     19  C   UNL     1       2.746   5.983  18.446  0.00  0.00    +0.000 A 
ATOM     20  C   UNL     1       2.446   7.208  19.063  0.00  0.00    +0.000 A 
ATOM     21  C   UNL     1       1.808   7.243  20.306  0.00  0.00    +0.000 A 
ATOM     22  C   UNL     1       1.415   6.029  20.875  0.00  0.00    +0.000 A 
ATOM     23  C   UNL     1       1.763   4.814  20.289  0.00  0.00    +0.000 A 
BRANCH  18  25
ATOM     24  C   UNL     1       3.835   2.609  19.258  0.00  0.00    +0.000 C 
ATOM     25  C   UNL     1       2.776   3.388  18.452  0.00  0.00    +0.000 C 
ATOM     26  C   UNL     1       3.325   3.568  17.018  0.00  0.00    +0.000 C 
ATOM     27  C   UNL     1       1.501   2.520  18.388  0.00  0.00    +0.000 C 
ENDBRANCH  18  25
ENDBRANCH   1  21
TORSDOF 3
ENDMDL
MODEL 7
REMARK VINA RESULT:      -7.9      3.382      8.528
REMARK  Name = 
REMARK  6 active torsions:
REMARK  status: ('A' for Active; 'I' for Inactive)
REMARK    1  A    between atoms: C_1  and  C_2
REMARK    2  A    between atoms: C_2  and  C_3
REMARK    3  A    between atoms: C_2  and  C_4
REMARK    4  A    between atoms: C_2  and  C_5
REMARK    5  A    between atoms: C_8  and  C_9
REMARK    6  A    between atoms: N_18  and  C_19
REMARK                            x       y       z     vdW  Elec       q    Type
REMARK                         _______ _______ _______ _____ _____    ______ ____
ROOT
ATOM      1  C   UNL     1       1.494   8.655  20.934  0.00  0.00    +0.000 C 
ATOM      2  O   UNL     1       1.624   8.776  22.149  0.00  0.00    +0.000 OA
ATOM      3  N   UNL     1       1.096   9.713  20.141  0.00  0.00    +0.000 N 
ATOM      4  C   UNL     1       0.717   9.756  18.719  0.00  0.00    +0.000 C 
ATOM      5  C   UNL     1       0.180  11.194  18.585  0.00  0.00    +0.000 C 
ATOM      6  C   UNL     1       1.131  11.942  19.527  0.00  0.00    +0.000 C 
ATOM      7  C   UNL     1       0.787  11.037  20.708  0.00  0.00    +0.000 C 
ATOM      8  C   UNL     1      -0.754  11.205  20.694  0.00  0.00    +0.000 C 
ATOM      9  O   UNL     1      -1.499  11.187  21.657  0.00  0.00    +0.000 OA
ATOM     10  N   UNL     1      -1.070  11.308  19.310  0.00  0.00    +0.000 N 
ENDROOT
BRANCH  10  11
ATOM     11  C   UNL     1      -2.352  11.287  18.718  0.00  0.00    +0.000 A 
ATOM     12  C   UNL     1      -3.373  12.107  19.210  0.00  0.00    +0.000 A 
ATOM     13  C   UNL     1      -4.647  12.099  18.626  0.00  0.00    +0.000 A 
ATOM     14  C   UNL     1      -4.923  11.257  17.551  0.00  0.00    +0.000 A 
ATOM     15  C   UNL     1      -3.923  10.433  17.049  0.00  0.00    +0.000 A 
ATOM     16  C   UNL     1      -2.651  10.458  17.623  0.00  0.00    +0.000 A 
ATOM     17  F   UNL     1      -1.733   9.615  17.123  0.00  0.00    +0.000 F 
ENDBRANCH  10  11
BRANCH   1  21
ATOM     18  C   UNL     1       2.409   4.818  19.116  0.00  0.00    +0.000 A 
ATOM     19  C   UNL     1       2.718   6.033  18.481  0.00  0.00    +0.000 A 
ATOM     20  C   UNL     1       2.416   7.268  19.077  0.00  0.00    +0.000 A 
ATOM     21  C   UNL     1       1.778   7.322  20.319  0.00  0.00    +0.000 A 
ATOM     22  C   UNL     1       1.387   6.118  20.908  0.00  0.00    +0.000 A 
ATOM     23  C   UNL     1       1.737   4.893  20.343  0.00  0.00    +0.000 A 
BRANCH  18  25
ATOM     24  C   UNL     1       1.527   2.512  18.394  0.00  0.00    +0.000 C 
ATOM     25  C   UNL     1       2.752   3.439  18.530  0.00  0.00    +0.000 C 
ATOM     26  C   UNL     1       3.779   2.720  19.436  0.00  0.00    +0.000 C 
ATOM     27  C   UNL     1       3.369   3.613  17.125  0.00  0.00    +0.000 C 
ENDBRANCH  18  25
ENDBRANCH   1  21
TORSDOF 3
ENDMDL
MODEL 8
REMARK VINA RESULT:      -7.9      4.578      9.626
REMARK  Name = 
REMARK  6 active torsions:
REMARK  status: ('A' for Active; 'I' for Inactive)
REMARK    1  A    between atoms: C_1  and  C_2
REMARK    2  A    between atoms: C_2  and  C_3
REMARK    3  A    between atoms: C_2  and  C_4
REMARK    4  A    between atoms: C_2  and  C_5
REMARK    5  A    between atoms: C_8  and  C_9
REMARK    6  A    between atoms: N_18  and  C_19
REMARK                            x       y       z     vdW  Elec       q    Type
REMARK                         _______ _______ _______ _____ _____    ______ ____
ROOT
ATOM      1  C   UNL     1       1.357  10.538  18.542  0.00  0.00    +0.000 C 
ATOM      2  O   UNL     1       2.276  11.310  18.283  0.00  0.00    +0.000 OA
ATOM      3  N   UNL     1       0.042  10.961  18.561  0.00  0.00    +0.000 N 
ATOM      4  C   UNL     1      -1.181  10.270  19.001  0.00  0.00    +0.000 C 
ATOM      5  C   UNL     1      -2.215  11.410  18.952  0.00  0.00    +0.000 C 
ATOM      6  C   UNL     1      -1.731  12.181  17.719  0.00  0.00    +0.000 C 
ATOM      7  C   UNL     1      -0.328  12.362  18.293  0.00  0.00    +0.000 C 
ATOM      8  C   UNL     1      -0.709  13.012  19.648  0.00  0.00    +0.000 C 
ATOM      9  O   UNL     1      -0.065  13.839  20.267  0.00  0.00    +0.000 OA
ATOM     10  N   UNL     1      -1.926  12.365  20.003  0.00  0.00    +0.000 N 
ENDROOT
BRANCH  10  11
ATOM     11  C   UNL     1      -2.611  12.443  21.236  0.00  0.00    +0.000 A 
ATOM     12  C   UNL     1      -2.001  12.005  22.416  0.00  0.00    +0.000 A 
ATOM     13  C   UNL     1      -2.668  12.084  23.644  0.00  0.00    +0.000 A 
ATOM     14  C   UNL     1      -3.966  12.587  23.710  0.00  0.00    +0.000 A 
ATOM     15  C   UNL     1      -4.592  13.025  22.548  0.00  0.00    +0.000 A 
ATOM     16  C   UNL     1      -3.916  12.960  21.330  0.00  0.00    +0.000 A 
ATOM     17  F   UNL     1      -4.580  13.363  20.234  0.00  0.00    +0.000 F 
ENDBRANCH  10  11
BRANCH   1  21
ATOM     18  C   UNL     1       2.242   6.388  19.465  0.00  0.00    +0.000 A 
ATOM     19  C   UNL     1       1.764   7.279  20.441  0.00  0.00    +0.000 A 
ATOM     20  C   UNL     1       1.483   8.619  20.131  0.00  0.00    +0.000 A 
ATOM     21  C   UNL     1       1.690   9.112  18.840  0.00  0.00    +0.000 A 
ATOM     22  C   UNL     1       2.253   8.253  17.894  0.00  0.00    +0.000 A 
ATOM     23  C   UNL     1       2.479   6.909  18.186  0.00  0.00    +0.000 A 
BRANCH  18  25
ATOM     24  C   UNL     1       2.231   4.478  21.189  0.00  0.00    +0.000 C 
ATOM     25  C   UNL     1       2.529   4.902  19.736  0.00  0.00    +0.000 C 
ATOM     26  C   UNL     1       4.017   4.591  19.458  0.00  0.00    +0.000 C 
ATOM     27  C   UNL     1       1.659   4.030  18.804  0.00  0.00    +0.000 C 
ENDBRANCH  18  25
ENDBRANCH   1  21
TORSDOF 3
ENDMDL
MODEL 9
REMARK VINA RESULT:      -7.6      4.499      9.415
REMARK  Name = 
REMARK  6 active torsions:
REMARK  status: ('A' for Active; 'I' for Inactive)
REMARK    1  A    between atoms: C_1  and  C_2
REMARK    2  A    between atoms: C_2  and  C_3
REMARK    3  A    between atoms: C_2  and  C_4
REMARK    4  A    between atoms: C_2  and  C_5
REMARK    5  A    between atoms: C_8  and  C_9
REMARK    6  A    between atoms: N_18  and  C_19
REMARK                            x       y       z     vdW  Elec       q    Type
REMARK                         _______ _______ _______ _____ _____    ______ ____
ROOT
ATOM      1  C   UNL     1       0.914  10.344  20.569  0.00  0.00    +0.000 C 
ATOM      2  O   UNL     1       1.207  10.631  21.726  0.00  0.00    +0.000 OA
ATOM      3  N   UNL     1       0.159  11.193  19.783  0.00  0.00    +0.000 N 
ATOM      4  C   UNL     1      -0.443  10.988  18.457  0.00  0.00    +0.000 C 
ATOM      5  C   UNL     1      -1.313  12.251  18.313  0.00  0.00    +0.000 C 
ATOM      6  C   UNL     1      -0.422  13.290  19.004  0.00  0.00    +0.000 C 
ATOM      7  C   UNL     1      -0.351  12.477  20.294  0.00  0.00    +0.000 C 
ATOM      8  C   UNL     1      -1.871  12.307  20.550  0.00  0.00    +0.000 C 
ATOM      9  O   UNL     1      -2.426  12.243  21.631  0.00  0.00    +0.000 OA
ATOM     10  N   UNL     1      -2.421  12.179  19.243  0.00  0.00    +0.000 N 
ENDROOT
BRANCH  10  11
ATOM     11  C   UNL     1      -3.742  11.814  18.900  0.00  0.00    +0.000 A 
ATOM     12  C   UNL     1      -3.982  10.713  18.073  0.00  0.00    +0.000 A 
ATOM     13  C   UNL     1      -5.288  10.339  17.732  0.00  0.00    +0.000 A 
ATOM     14  C   UNL     1      -6.376  11.073  18.201  0.00  0.00    +0.000 A 
ATOM     15  C   UNL     1      -6.159  12.173  19.023  0.00  0.00    +0.000 A 
ATOM     16  C   UNL     1      -4.857  12.530  19.373  0.00  0.00    +0.000 A 
ATOM     17  F   UNL     1      -4.703  13.622  20.139  0.00  0.00    +0.000 F 
ENDBRANCH  10  11
BRANCH   1  21
ATOM     18  C   UNL     1       2.240   6.509  19.020  0.00  0.00    +0.000 A 
ATOM     19  C   UNL     1       1.853   6.675  20.362  0.00  0.00    +0.000 A 
ATOM     20  C   UNL     1       1.428   7.919  20.851  0.00  0.00    +0.000 A 
ATOM     21  C   UNL     1       1.396   9.041  20.018  0.00  0.00    +0.000 A 
ATOM     22  C   UNL     1       1.868   8.900  18.712  0.00  0.00    +0.000 A 
ATOM     23  C   UNL     1       2.236   7.653  18.210  0.00  0.00    +0.000 A 
BRANCH  18  25
ATOM     24  C   UNL     1       3.834   5.293  17.409  0.00  0.00    +0.000 C 
ATOM     25  C   UNL     1       2.676   5.164  18.419  0.00  0.00    +0.000 C 
ATOM     26  C   UNL     1       1.488   4.506  17.679  0.00  0.00    +0.000 C 
ATOM     27  C   UNL     1       3.140   4.218  19.548  0.00  0.00    +0.000 C 
ENDBRANCH  18  25
ENDBRANCH   1  21
TORSDOF 3
ENDMDL
