MODEL 1
REMARK VINA RESULT:      -8.1      0.000      0.000
REMARK  Name = 
REMARK  10 active torsions:
REMARK  status: ('A' for Active; 'I' for Inactive)
REMARK    1  A    between atoms: C_1  and  C_2
REMARK    2  A    between atoms: C_2  and  O_3
REMARK    3  A    between atoms: O_3  and  C_4
REMARK    4  A    between atoms: C_7  and  C_8
REMARK    5  A    between atoms: N_10  and  C_11
REMARK    6  A    between atoms: N_10  and  C_18
REMARK    7  A    between atoms: C_11  and  C_12
REMARK    8  A    between atoms: C_22  and  C_23
REMARK    9  A    between atoms: C_26  and  O_27
REMARK   10  A    between atoms: O_27  and  C_28
REMARK                            x       y       z     vdW  Elec       q    Type
REMARK                         _______ _______ _______ _____ _____    ______ ____
ROOT
ATOM      1  C   UNL     1       4.103   4.239  17.021  0.00  0.00    +0.000 C 
ATOM      2  O   UNL     1       3.524   3.252  16.561  0.00  0.00    +0.000 OA
ATOM      3  N   UNL     1       5.375   4.621  16.557  0.00  0.00    +0.000 N 
ENDROOT
BRANCH   3   4
ATOM      4  C   UNL     1       6.208   5.516  17.271  0.00  0.00    +0.000 A 
ATOM      5  C   UNL     1       6.467   6.803  16.791  0.00  0.00    +0.000 A 
ATOM      6  C   UNL     1       7.377   7.617  17.460  0.00  0.00    +0.000 A 
ATOM      7  C   UNL     1       8.031   7.143  18.600  0.00  0.00    +0.000 A 
ATOM      8  C   UNL     1       7.753   5.866  19.100  0.00  0.00    +0.000 A 
ATOM      9  C   UNL     1       8.472   5.327  20.300  0.00  0.00    +0.000 C 
ATOM     10  C   UNL     1       6.816   5.062  18.442  0.00  0.00    +0.000 A 
ENDBRANCH   3   4
BRANCH   1  14
ATOM     11  C   UNL     1       2.134   6.611  20.075  0.00  0.00    +0.000 A 
ATOM     12  C   UNL     1       2.370   7.064  18.765  0.00  0.00    +0.000 A 
ATOM     13  C   UNL     1       2.996   6.264  17.813  0.00  0.00    +0.000 A 
ATOM     14  C   UNL     1       3.386   4.968  18.118  0.00  0.00    +0.000 A 
ATOM     15  C   UNL     1       3.101   4.476  19.400  0.00  0.00    +0.000 A 
ATOM     16  C   UNL     1       2.451   5.276  20.380  0.00  0.00    +0.000 A 
BRANCH  16  17
ATOM     17  O   UNL     1       2.237   4.564  21.528  0.00  0.00    +0.000 OA
ATOM     18  C   UNL     1       1.754   3.230  21.548  0.00  0.00    +0.000 C 
ENDBRANCH  16  17
BRANCH  11  19
ATOM     19  O   UNL     1       1.628   7.468  21.031  0.00  0.00    +0.000 OA
BRANCH  19  21
ATOM     20  C   UNL     1      -0.122   9.173  21.108  0.00  0.00    +0.000 C 
ATOM     21  C   UNL     1       1.215   8.750  20.533  0.00  0.00    +0.000 C 
ENDBRANCH  19  21
ENDBRANCH  11  19
ENDBRANCH   1  14
BRANCH   3  22
ATOM     22  C   UNL     1       6.102   3.643  15.727  0.00  0.00    +0.000 C 
BRANCH  22  23
ATOM     23  C   UNL     1       6.385   4.049  14.295  0.00  0.00    +0.000 A 
ATOM     24  C   UNL     1       7.423   4.952  14.013  0.00  0.00    +0.000 A 
ATOM     25  C   UNL     1       7.822   5.196  12.700  0.00  0.00    +0.000 A 
ATOM     26  C   UNL     1       7.181   4.548  11.645  0.00  0.00    +0.000 A 
ATOM     27  C   UNL     1       6.126   3.674  11.905  0.00  0.00    +0.000 A 
ATOM     28  C   UNL     1       5.728   3.428  13.223  0.00  0.00    +0.000 A 
ENDBRANCH  22  23
ENDBRANCH   3  22
TORSDOF 7
ENDMDL
MODEL 2
REMARK VINA RESULT:      -8.0      0.471      1.308
REMARK  Name = 
REMARK  10 active torsions:
REMARK  status: ('A' for Active; 'I' for Inactive)
REMARK    1  A    between atoms: C_1  and  C_2
REMARK    2  A    between atoms: C_2  and  O_3
REMARK    3  A    between atoms: O_3  and  C_4
REMARK    4  A    between atoms: C_7  and  C_8
REMARK    5  A    between atoms: N_10  and  C_11
REMARK    6  A    between atoms: N_10  and  C_18
REMARK    7  A    between atoms: C_11  and  C_12
REMARK    8  A    between atoms: C_22  and  C_23
REMARK    9  A    between atoms: C_26  and  O_27
REMARK   10  A    between atoms: O_27  and  C_28
REMARK                            x       y       z     vdW  Elec       q    Type
REMARK                         _______ _______ _______ _____ _____    ______ ____
ROOT
ATOM      1  C   UNL     1       4.124   4.487  16.879  0.00  0.00    +0.000 C 
ATOM      2  O   UNL     1       3.424   3.652  16.303  0.00  0.00    +0.000 OA
ATOM      3  N   UNL     1       5.479   4.661  16.543  0.00  0.00    +0.000 N 
ENDROOT
BRANCH   3   4
ATOM      4  C   UNL     1       6.391   5.344  17.384  0.00  0.00    +0.000 A 
ATOM      5  C   UNL     1       6.848   4.770  18.573  0.00  0.00    +0.000 A 
ATOM      6  C   UNL     1       7.657   5.514  19.430  0.00  0.00    +0.000 A 
ATOM      7  C   UNL     1       8.000   6.827  19.102  0.00  0.00    +0.000 A 
ATOM      8  C   UNL     1       7.568   7.395  17.898  0.00  0.00    +0.000 A 
ATOM      9  C   UNL     1       7.896   8.815  17.546  0.00  0.00    +0.000 C 
ATOM     10  C   UNL     1       6.780   6.635  17.026  0.00  0.00    +0.000 A 
ENDBRANCH   3   4
BRANCH   1  14
ATOM     11  C   UNL     1       2.306   6.991  19.922  0.00  0.00    +0.000 A 
ATOM     12  C   UNL     1       2.580   7.426  18.613  0.00  0.00    +0.000 A 
ATOM     13  C   UNL     1       3.155   6.584  17.665  0.00  0.00    +0.000 A 
ATOM     14  C   UNL     1       3.453   5.264  17.973  0.00  0.00    +0.000 A 
ATOM     15  C   UNL     1       3.127   4.794  19.252  0.00  0.00    +0.000 A 
ATOM     16  C   UNL     1       2.528   5.637  20.229  0.00  0.00    +0.000 A 
BRANCH  16  17
ATOM     17  O   UNL     1       2.257   4.942  21.375  0.00  0.00    +0.000 OA
ATOM     18  C   UNL     1       2.056   3.539  21.416  0.00  0.00    +0.000 C 
ENDBRANCH  16  17
BRANCH  11  19
ATOM     19  O   UNL     1       1.854   7.881  20.875  0.00  0.00    +0.000 OA
BRANCH  19  21
ATOM     20  C   UNL     1       0.626   9.912  21.459  0.00  0.00    +0.000 C 
ATOM     21  C   UNL     1       1.073   8.970  20.359  0.00  0.00    +0.000 C 
ENDBRANCH  19  21
ENDBRANCH  11  19
ENDBRANCH   1  14
BRANCH   3  22
ATOM     22  C   UNL     1       6.093   3.621  15.698  0.00  0.00    +0.000 C 
BRANCH  22  23
ATOM     23  C   UNL     1       6.397   4.006  14.264  0.00  0.00    +0.000 A 
ATOM     24  C   UNL     1       7.391   4.960  13.989  0.00  0.00    +0.000 A 
ATOM     25  C   UNL     1       7.815   5.193  12.682  0.00  0.00    +0.000 A 
ATOM     26  C   UNL     1       7.244   4.483  11.626  0.00  0.00    +0.000 A 
ATOM     27  C   UNL     1       6.232   3.559  11.879  0.00  0.00    +0.000 A 
ATOM     28  C   UNL     1       5.809   3.323  13.191  0.00  0.00    +0.000 A 
ENDBRANCH  22  23
ENDBRANCH   3  22
TORSDOF 7
ENDMDL
MODEL 3
REMARK VINA RESULT:      -7.7      0.811      2.263
REMARK  Name = 
REMARK  10 active torsions:
REMARK  status: ('A' for Active; 'I' for Inactive)
REMARK    1  A    between atoms: C_1  and  C_2
REMARK    2  A    between atoms: C_2  and  O_3
REMARK    3  A    between atoms: O_3  and  C_4
REMARK    4  A    between atoms: C_7  and  C_8
REMARK    5  A    between atoms: N_10  and  C_11
REMARK    6  A    between atoms: N_10  and  C_18
REMARK    7  A    between atoms: C_11  and  C_12
REMARK    8  A    between atoms: C_22  and  C_23
REMARK    9  A    between atoms: C_26  and  O_27
REMARK   10  A    between atoms: O_27  and  C_28
REMARK                            x       y       z     vdW  Elec       q    Type
REMARK                         _______ _______ _______ _____ _____    ______ ____
ROOT
ATOM      1  C   UNL     1       4.070   4.529  16.929  0.00  0.00    +0.000 C 
ATOM      2  O   UNL     1       3.349   3.698  16.372  0.00  0.00    +0.000 OA
ATOM      3  N   UNL     1       5.422   4.681  16.568  0.00  0.00    +0.000 N 
ENDROOT
BRANCH   3   4
ATOM      4  C   UNL     1       6.357   5.359  17.387  0.00  0.00    +0.000 A 
ATOM      5  C   UNL     1       6.854   4.774  18.555  0.00  0.00    +0.000 A 
ATOM      6  C   UNL     1       7.687   5.512  19.393  0.00  0.00    +0.000 A 
ATOM      7  C   UNL     1       8.015   6.830  19.068  0.00  0.00    +0.000 A 
ATOM      8  C   UNL     1       7.542   7.408  17.885  0.00  0.00    +0.000 A 
ATOM      9  C   UNL     1       7.853   8.833  17.538  0.00  0.00    +0.000 C 
ATOM     10  C   UNL     1       6.730   6.655  17.031  0.00  0.00    +0.000 A 
ENDBRANCH   3   4
BRANCH   1  14
ATOM     11  C   UNL     1       2.086   6.573  20.203  0.00  0.00    +0.000 A 
ATOM     12  C   UNL     1       2.507   5.232  20.258  0.00  0.00    +0.000 A 
ATOM     13  C   UNL     1       3.150   4.619  19.186  0.00  0.00    +0.000 A 
ATOM     14  C   UNL     1       3.429   5.326  18.025  0.00  0.00    +0.000 A 
ATOM     15  C   UNL     1       3.075   6.682  17.976  0.00  0.00    +0.000 A 
ATOM     16  C   UNL     1       2.429   7.326  19.066  0.00  0.00    +0.000 A 
BRANCH  16  17
ATOM     17  O   UNL     1       2.234   8.654  18.803  0.00  0.00    +0.000 OA
ATOM     18  C   UNL     1       1.465   9.136  17.713  0.00  0.00    +0.000 C 
ENDBRANCH  16  17
BRANCH  11  19
ATOM     19  O   UNL     1       1.340   7.115  21.228  0.00  0.00    +0.000 OA
BRANCH  19  21
ATOM     20  C   UNL     1       0.022   9.145  21.577  0.00  0.00    +0.000 C 
ATOM     21  C   UNL     1       1.391   8.548  21.318  0.00  0.00    +0.000 C 
ENDBRANCH  19  21
ENDBRANCH  11  19
ENDBRANCH   1  14
BRANCH   3  22
ATOM     22  C   UNL     1       6.007   3.624  15.723  0.00  0.00    +0.000 C 
BRANCH  22  23
ATOM     23  C   UNL     1       6.329   4.003  14.291  0.00  0.00    +0.000 A 
ATOM     24  C   UNL     1       7.333   4.949  14.024  0.00  0.00    +0.000 A 
ATOM     25  C   UNL     1       7.773   5.176  12.722  0.00  0.00    +0.000 A 
ATOM     26  C   UNL     1       7.209   4.467  11.662  0.00  0.00    +0.000 A 
ATOM     27  C   UNL     1       6.188   3.550  11.906  0.00  0.00    +0.000 A 
ATOM     28  C   UNL     1       5.748   3.321  13.213  0.00  0.00    +0.000 A 
ENDBRANCH  22  23
ENDBRANCH   3  22
TORSDOF 7
ENDMDL
MODEL 4
REMARK VINA RESULT:      -7.7      1.117      2.083
REMARK  Name = 
REMARK  10 active torsions:
REMARK  status: ('A' for Active; 'I' for Inactive)
REMARK    1  A    between atoms: C_1  and  C_2
REMARK    2  A    between atoms: C_2  and  O_3
REMARK    3  A    between atoms: O_3  and  C_4
REMARK    4  A    between atoms: C_7  and  C_8
REMARK    5  A    between atoms: N_10  and  C_11
REMARK    6  A    between atoms: N_10  and  C_18
REMARK    7  A    between atoms: C_11  and  C_12
REMARK    8  A    between atoms: C_22  and  C_23
REMARK    9  A    between atoms: C_26  and  O_27
REMARK   10  A    between atoms: O_27  and  C_28
REMARK                            x       y       z     vdW  Elec       q    Type
REMARK                         _______ _______ _______ _____ _____    ______ ____
ROOT
ATOM      1  C   UNL     1       3.603   4.890  17.329  0.00  0.00    +0.000 C 
ATOM      2  O   UNL     1       2.840   3.986  16.979  0.00  0.00    +0.000 OA
ATOM      3  N   UNL     1       4.902   4.995  16.799  0.00  0.00    +0.000 N 
ENDROOT
BRANCH   3   4
ATOM      4  C   UNL     1       5.909   5.785  17.403  0.00  0.00    +0.000 A 
ATOM      5  C   UNL     1       6.261   7.032  16.881  0.00  0.00    +0.000 A 
ATOM      6  C   UNL     1       7.330   7.734  17.434  0.00  0.00    +0.000 A 
ATOM      7  C   UNL     1       8.048   7.186  18.500  0.00  0.00    +0.000 A 
ATOM      8  C   UNL     1       7.679   5.951  19.044  0.00  0.00    +0.000 A 
ATOM      9  C   UNL     1       8.460   5.331  20.164  0.00  0.00    +0.000 C 
ATOM     10  C   UNL     1       6.587   5.263  18.505  0.00  0.00    +0.000 A 
ENDBRANCH   3   4
BRANCH   1  14
ATOM     11  C   UNL     1       1.957   7.365  20.491  0.00  0.00    +0.000 A 
ATOM     12  C   UNL     1       2.407   6.047  20.684  0.00  0.00    +0.000 A 
ATOM     13  C   UNL     1       2.938   5.291  19.641  0.00  0.00    +0.000 A 
ATOM     14  C   UNL     1       3.072   5.830  18.370  0.00  0.00    +0.000 A 
ATOM     15  C   UNL     1       2.690   7.164  18.173  0.00  0.00    +0.000 A 
ATOM     16  C   UNL     1       2.157   7.953  19.229  0.00  0.00    +0.000 A 
BRANCH  16  17
ATOM     17  O   UNL     1       1.908   9.231  18.808  0.00  0.00    +0.000 OA
ATOM     18  C   UNL     1       0.826   9.584  17.963  0.00  0.00    +0.000 C 
ENDBRANCH  16  17
BRANCH  11  19
ATOM     19  O   UNL     1       1.320   8.043  21.509  0.00  0.00    +0.000 OA
BRANCH  19  21
ATOM     20  C   UNL     1      -0.653   9.241  22.315  0.00  0.00    +0.000 C 
ATOM     21  C   UNL     1      -0.079   8.286  21.288  0.00  0.00    +0.000 C 
ENDBRANCH  19  21
ENDBRANCH  11  19
ENDBRANCH   1  14
BRANCH   3  22
ATOM     22  C   UNL     1       5.409   3.832  16.048  0.00  0.00    +0.000 C 
BRANCH  22  23
ATOM     23  C   UNL     1       5.925   4.103  14.648  0.00  0.00    +0.000 A 
ATOM     24  C   UNL     1       7.103   4.845  14.465  0.00  0.00    +0.000 A 
ATOM     25  C   UNL     1       7.694   4.949  13.208  0.00  0.00    +0.000 A 
ATOM     26  C   UNL     1       7.110   4.320  12.109  0.00  0.00    +0.000 A 
ATOM     27  C   UNL     1       5.922   3.608  12.267  0.00  0.00    +0.000 A 
ATOM     28  C   UNL     1       5.330   3.503  13.529  0.00  0.00    +0.000 A 
ENDBRANCH  22  23
ENDBRANCH   3  22
TORSDOF 7
ENDMDL
MODEL 5
REMARK VINA RESULT:      -7.5      0.541      1.059
REMARK  Name = 
REMARK  10 active torsions:
REMARK  status: ('A' for Active; 'I' for Inactive)
REMARK    1  A    between atoms: C_1  and  C_2
REMARK    2  A    between atoms: C_2  and  O_3
REMARK    3  A    between atoms: O_3  and  C_4
REMARK    4  A    between atoms: C_7  and  C_8
REMARK    5  A    between atoms: N_10  and  C_11
REMARK    6  A    between atoms: N_10  and  C_18
REMARK    7  A    between atoms: C_11  and  C_12
REMARK    8  A    between atoms: C_22  and  C_23
REMARK    9  A    between atoms: C_26  and  O_27
REMARK   10  A    between atoms: O_27  and  C_28
REMARK                            x       y       z     vdW  Elec       q    Type
REMARK                         _______ _______ _______ _____ _____    ______ ____
ROOT
ATOM      1  C   UNL     1       4.029   4.520  16.942  0.00  0.00    +0.000 C 
ATOM      2  O   UNL     1       3.392   3.561  16.502  0.00  0.00    +0.000 OA
ATOM      3  N   UNL     1       5.357   4.759  16.543  0.00  0.00    +0.000 N 
ENDROOT
BRANCH   3   4
ATOM      4  C   UNL     1       6.224   5.620  17.258  0.00  0.00    +0.000 A 
ATOM      5  C   UNL     1       6.531   6.897  16.781  0.00  0.00    +0.000 A 
ATOM      6  C   UNL     1       7.471   7.675  17.453  0.00  0.00    +0.000 A 
ATOM      7  C   UNL     1       8.107   7.174  18.591  0.00  0.00    +0.000 A 
ATOM      8  C   UNL     1       7.781   5.907  19.088  0.00  0.00    +0.000 A 
ATOM      9  C   UNL     1       8.479   5.339  20.286  0.00  0.00    +0.000 C 
ATOM     10  C   UNL     1       6.814   5.141  18.428  0.00  0.00    +0.000 A 
ENDBRANCH   3   4
BRANCH   1  14
ATOM     11  C   UNL     1       2.124   7.239  19.737  0.00  0.00    +0.000 A 
ATOM     12  C   UNL     1       2.569   7.617  18.457  0.00  0.00    +0.000 A 
ATOM     13  C   UNL     1       3.166   6.708  17.588  0.00  0.00    +0.000 A 
ATOM     14  C   UNL     1       3.317   5.376  17.946  0.00  0.00    +0.000 A 
ATOM     15  C   UNL     1       2.821   4.966  19.191  0.00  0.00    +0.000 A 
ATOM     16  C   UNL     1       2.197   5.879  20.086  0.00  0.00    +0.000 A 
BRANCH  16  17
ATOM     17  O   UNL     1       1.751   5.237  21.208  0.00  0.00    +0.000 OA
ATOM     18  C   UNL     1       2.119   3.912  21.556  0.00  0.00    +0.000 C 
ENDBRANCH  16  17
BRANCH  11  19
ATOM     19  O   UNL     1       1.653   8.186  20.623  0.00  0.00    +0.000 OA
BRANCH  19  21
ATOM     20  C   UNL     1       0.767  10.433  20.999  0.00  0.00    +0.000 C 
ATOM     21  C   UNL     1       0.989   9.304  20.013  0.00  0.00    +0.000 C 
ENDBRANCH  19  21
ENDBRANCH  11  19
ENDBRANCH   1  14
BRANCH   3  22
ATOM     22  C   UNL     1       6.040   3.671  15.820  0.00  0.00    +0.000 C 
BRANCH  22  23
ATOM     23  C   UNL     1       6.556   3.999  14.434  0.00  0.00    +0.000 A 
ATOM     24  C   UNL     1       5.922   3.459  13.303  0.00  0.00    +0.000 A 
ATOM     25  C   UNL     1       6.258   3.889  12.021  0.00  0.00    +0.000 A 
ATOM     26  C   UNL     1       7.243   4.861  11.847  0.00  0.00    +0.000 A 
ATOM     27  C   UNL     1       7.907   5.381  12.958  0.00  0.00    +0.000 A 
ATOM     28  C   UNL     1       7.568   4.951  14.244  0.00  0.00    +0.000 A 
ENDBRANCH  22  23
ENDBRANCH   3  22
TORSDOF 7
ENDMDL
MODEL 6
REMARK VINA RESULT:      -7.3      1.161      2.619
REMARK  Name = 
REMARK  10 active torsions:
REMARK  status: ('A' for Active; 'I' for Inactive)
REMARK    1  A    between atoms: C_1  and  C_2
REMARK    2  A    between atoms: C_2  and  O_3
REMARK    3  A    between atoms: O_3  and  C_4
REMARK    4  A    between atoms: C_7  and  C_8
REMARK    5  A    between atoms: N_10  and  C_11
REMARK    6  A    between atoms: N_10  and  C_18
REMARK    7  A    between atoms: C_11  and  C_12
REMARK    8  A    between atoms: C_22  and  C_23
REMARK    9  A    between atoms: C_26  and  O_27
REMARK   10  A    between atoms: O_27  and  C_28
REMARK                            x       y       z     vdW  Elec       q    Type
REMARK                         _______ _______ _______ _____ _____    ______ ____
ROOT
ATOM      1  C   UNL     1       4.010   4.891  16.941  0.00  0.00    +0.000 C 
ATOM      2  O   UNL     1       3.212   4.080  16.465  0.00  0.00    +0.000 OA
ATOM      3  N   UNL     1       5.372   4.864  16.594  0.00  0.00    +0.000 N 
ENDROOT
BRANCH   3   4
ATOM      4  C   UNL     1       6.365   5.532  17.352  0.00  0.00    +0.000 A 
ATOM      5  C   UNL     1       6.971   4.917  18.450  0.00  0.00    +0.000 A 
ATOM      6  C   UNL     1       7.863   5.641  19.239  0.00  0.00    +0.000 A 
ATOM      7  C   UNL     1       8.140   6.976  18.934  0.00  0.00    +0.000 A 
ATOM      8  C   UNL     1       7.556   7.585  17.818  0.00  0.00    +0.000 A 
ATOM      9  C   UNL     1       7.813   9.027  17.497  0.00  0.00    +0.000 C 
ATOM     10  C   UNL     1       6.685   6.846  17.011  0.00  0.00    +0.000 A 
ENDBRANCH   3   4
BRANCH   1  14
ATOM     11  C   UNL     1       2.263   7.470  19.963  0.00  0.00    +0.000 A 
ATOM     12  C   UNL     1       2.739   6.173  20.223  0.00  0.00    +0.000 A 
ATOM     13  C   UNL     1       3.302   5.383  19.224  0.00  0.00    +0.000 A 
ATOM     14  C   UNL     1       3.443   5.866  17.930  0.00  0.00    +0.000 A 
ATOM     15  C   UNL     1       3.034   7.180  17.667  0.00  0.00    +0.000 A 
ATOM     16  C   UNL     1       2.468   8.004  18.679  0.00  0.00    +0.000 A 
BRANCH  16  17
ATOM     17  O   UNL     1       2.197   9.255  18.196  0.00  0.00    +0.000 OA
ATOM     18  C   UNL     1       0.894   9.811  18.139  0.00  0.00    +0.000 C 
ENDBRANCH  16  17
BRANCH  11  19
ATOM     19  O   UNL     1       1.595   8.179  20.940  0.00  0.00    +0.000 OA
BRANCH  19  21
ATOM     20  C   UNL     1      -0.513   8.725  22.051  0.00  0.00    +0.000 C 
ATOM     21  C   UNL     1       0.253   7.736  21.196  0.00  0.00    +0.000 C 
ENDBRANCH  19  21
ENDBRANCH  11  19
ENDBRANCH   1  14
BRANCH   3  22
ATOM     22  C   UNL     1       5.854   3.666  15.882  0.00  0.00    +0.000 C 
BRANCH  22  23
ATOM     23  C   UNL     1       6.390   3.882  14.480  0.00  0.00    +0.000 A 
ATOM     24  C   UNL     1       5.777   3.244  13.389  0.00  0.00    +0.000 A 
ATOM     25  C   UNL     1       6.131   3.569  12.081  0.00  0.00    +0.000 A 
ATOM     26  C   UNL     1       7.113   4.531  11.842  0.00  0.00    +0.000 A 
ATOM     27  C   UNL     1       7.755   5.148  12.915  0.00  0.00    +0.000 A 
ATOM     28  C   UNL     1       7.397   4.823  14.227  0.00  0.00    +0.000 A 
ENDBRANCH  22  23
ENDBRANCH   3  22
TORSDOF 7
ENDMDL
MODEL 7
REMARK VINA RESULT:      -7.3      2.140      4.188
REMARK  Name = 
REMARK  10 active torsions:
REMARK  status: ('A' for Active; 'I' for Inactive)
REMARK    1  A    between atoms: C_1  and  C_2
REMARK    2  A    between atoms: C_2  and  O_3
REMARK    3  A    between atoms: O_3  and  C_4
REMARK    4  A    between atoms: C_7  and  C_8
REMARK    5  A    between atoms: N_10  and  C_11
REMARK    6  A    between atoms: N_10  and  C_18
REMARK    7  A    between atoms: C_11  and  C_12
REMARK    8  A    between atoms: C_22  and  C_23
REMARK    9  A    between atoms: C_26  and  O_27
REMARK   10  A    between atoms: O_27  and  C_28
REMARK                            x       y       z     vdW  Elec       q    Type
REMARK                         _______ _______ _______ _____ _____    ______ ____
ROOT
ATOM      1  C   UNL     1       4.422   6.275  18.399  0.00  0.00    +0.000 C 
ATOM      2  O   UNL     1       5.417   6.810  17.906  0.00  0.00    +0.000 OA
ATOM      3  N   UNL     1       4.389   4.893  18.660  0.00  0.00    +0.000 N 
ENDROOT
BRANCH   3   4
ATOM      4  C   UNL     1       3.183   4.191  18.897  0.00  0.00    +0.000 A 
ATOM      5  C   UNL     1       2.211   4.067  17.901  0.00  0.00    +0.000 A 
ATOM      6  C   UNL     1       0.991   3.465  18.201  0.00  0.00    +0.000 A 
ATOM      7  C   UNL     1       0.742   2.997  19.494  0.00  0.00    +0.000 A 
ATOM      8  C   UNL     1       1.724   3.094  20.486  0.00  0.00    +0.000 A 
ATOM      9  C   UNL     1       1.462   2.632  21.887  0.00  0.00    +0.000 C 
ATOM     10  C   UNL     1       2.959   3.672  20.172  0.00  0.00    +0.000 A 
ENDBRANCH   3   4
BRANCH   1  14
ATOM     11  C   UNL     1       1.156   9.081  18.943  0.00  0.00    +0.000 A 
ATOM     12  C   UNL     1       1.852   8.916  17.732  0.00  0.00    +0.000 A 
ATOM     13  C   UNL     1       2.888   7.995  17.599  0.00  0.00    +0.000 A 
ATOM     14  C   UNL     1       3.253   7.178  18.659  0.00  0.00    +0.000 A 
ATOM     15  C   UNL     1       2.527   7.282  19.855  0.00  0.00    +0.000 A 
ATOM     16  C   UNL     1       1.459   8.208  20.003  0.00  0.00    +0.000 A 
BRANCH  16  17
ATOM     17  O   UNL     1       0.874   8.088  21.234  0.00  0.00    +0.000 OA
ATOM     18  C   UNL     1       1.090   8.998  22.299  0.00  0.00    +0.000 C 
ENDBRANCH  16  17
BRANCH  11  19
ATOM     19  O   UNL     1       0.222  10.087  19.083  0.00  0.00    +0.000 OA
BRANCH  19  21
ATOM     20  C   UNL     1       0.702  12.441  18.627  0.00  0.00    +0.000 C 
ATOM     21  C   UNL     1       0.733  11.310  19.636  0.00  0.00    +0.000 C 
ENDBRANCH  19  21
ENDBRANCH  11  19
ENDBRANCH   1  14
BRANCH   3  22
ATOM     22  C   UNL     1       5.460   4.078  18.058  0.00  0.00    +0.000 C 
BRANCH  22  23
ATOM     23  C   UNL     1       5.792   4.361  16.607  0.00  0.00    +0.000 A 
ATOM     24  C   UNL     1       7.087   4.771  16.250  0.00  0.00    +0.000 A 
ATOM     25  C   UNL     1       7.466   4.857  14.912  0.00  0.00    +0.000 A 
ATOM     26  C   UNL     1       6.551   4.545  13.906  0.00  0.00    +0.000 A 
ATOM     27  C   UNL     1       5.251   4.170  14.243  0.00  0.00    +0.000 A 
ATOM     28  C   UNL     1       4.873   4.081  15.586  0.00  0.00    +0.000 A 
ENDBRANCH  22  23
ENDBRANCH   3  22
TORSDOF 7
ENDMDL
MODEL 8
REMARK VINA RESULT:      -7.1      1.011      2.234
REMARK  Name = 
REMARK  10 active torsions:
REMARK  status: ('A' for Active; 'I' for Inactive)
REMARK    1  A    between atoms: C_1  and  C_2
REMARK    2  A    between atoms: C_2  and  O_3
REMARK    3  A    between atoms: O_3  and  C_4
REMARK    4  A    between atoms: C_7  and  C_8
REMARK    5  A    between atoms: N_10  and  C_11
REMARK    6  A    between atoms: N_10  and  C_18
REMARK    7  A    between atoms: C_11  and  C_12
REMARK    8  A    between atoms: C_22  and  C_23
REMARK    9  A    between atoms: C_26  and  O_27
REMARK   10  A    between atoms: O_27  and  C_28
REMARK                            x       y       z     vdW  Elec       q    Type
REMARK                         _______ _______ _______ _____ _____    ______ ____
ROOT
ATOM      1  C   UNL     1       3.750   4.631  17.160  0.00  0.00    +0.000 C 
ATOM      2  O   UNL     1       3.062   3.679  16.786  0.00  0.00    +0.000 OA
ATOM      3  N   UNL     1       5.074   4.794  16.712  0.00  0.00    +0.000 N 
ENDROOT
BRANCH   3   4
ATOM      4  C   UNL     1       5.996   5.652  17.359  0.00  0.00    +0.000 A 
ATOM      5  C   UNL     1       6.269   6.929  16.860  0.00  0.00    +0.000 A 
ATOM      6  C   UNL     1       7.261   7.704  17.457  0.00  0.00    +0.000 A 
ATOM      7  C   UNL     1       7.981   7.201  18.543  0.00  0.00    +0.000 A 
ATOM      8  C   UNL     1       7.690   5.934  19.063  0.00  0.00    +0.000 A 
ATOM      9  C   UNL     1       8.477   5.364  20.204  0.00  0.00    +0.000 C 
ATOM     10  C   UNL     1       6.674   5.171  18.480  0.00  0.00    +0.000 A 
ENDBRANCH   3   4
BRANCH   1  14
ATOM     11  C   UNL     1       1.806   7.088  20.163  0.00  0.00    +0.000 A 
ATOM     12  C   UNL     1       2.447   5.868  20.445  0.00  0.00    +0.000 A 
ATOM     13  C   UNL     1       3.068   5.117  19.451  0.00  0.00    +0.000 A 
ATOM     14  C   UNL     1       3.103   5.565  18.138  0.00  0.00    +0.000 A 
ATOM     15  C   UNL     1       2.527   6.810  17.849  0.00  0.00    +0.000 A 
ATOM     16  C   UNL     1       1.899   7.595  18.854  0.00  0.00    +0.000 A 
BRANCH  16  17
ATOM     17  O   UNL     1       1.460   8.785  18.343  0.00  0.00    +0.000 OA
ATOM     18  C   UNL     1       2.325   9.829  17.925  0.00  0.00    +0.000 C 
ENDBRANCH  16  17
BRANCH  11  19
ATOM     19  O   UNL     1       1.091   7.746  21.142  0.00  0.00    +0.000 OA
BRANCH  19  21
ATOM     20  C   UNL     1       0.595  10.085  21.651  0.00  0.00    +0.000 C 
ATOM     21  C   UNL     1       1.651   9.003  21.554  0.00  0.00    +0.000 C 
ENDBRANCH  19  21
ENDBRANCH  11  19
ENDBRANCH   1  14
BRANCH   3  22
ATOM     22  C   UNL     1       5.691   3.643  16.027  0.00  0.00    +0.000 C 
BRANCH  22  23
ATOM     23  C   UNL     1       6.291   3.911  14.661  0.00  0.00    +0.000 A 
ATOM     24  C   UNL     1       5.698   3.358  13.514  0.00  0.00    +0.000 A 
ATOM     25  C   UNL     1       6.116   3.737  12.240  0.00  0.00    +0.000 A 
ATOM     26  C   UNL     1       7.143   4.670  12.092  0.00  0.00    +0.000 A 
ATOM     27  C   UNL     1       7.765   5.201  13.221  0.00  0.00    +0.000 A 
ATOM     28  C   UNL     1       7.343   4.822  14.499  0.00  0.00    +0.000 A 
ENDBRANCH  22  23
ENDBRANCH   3  22
TORSDOF 7
ENDMDL
MODEL 9
REMARK VINA RESULT:      -6.9      3.199      5.575
REMARK  Name = 
REMARK  10 active torsions:
REMARK  status: ('A' for Active; 'I' for Inactive)
REMARK    1  A    between atoms: C_1  and  C_2
REMARK    2  A    between atoms: C_2  and  O_3
REMARK    3  A    between atoms: O_3  and  C_4
REMARK    4  A    between atoms: C_7  and  C_8
REMARK    5  A    between atoms: N_10  and  C_11
REMARK    6  A    between atoms: N_10  and  C_18
REMARK    7  A    between atoms: C_11  and  C_12
REMARK    8  A    between atoms: C_22  and  C_23
REMARK    9  A    between atoms: C_26  and  O_27
REMARK   10  A    between atoms: O_27  and  C_28
REMARK                            x       y       z     vdW  Elec       q    Type
REMARK                         _______ _______ _______ _____ _____    ______ ____
ROOT
ATOM      1  C   UNL     1       2.759   8.196  17.837  0.00  0.00    +0.000 C 
ATOM      2  O   UNL     1       3.315   8.828  16.936  0.00  0.00    +0.000 OA
ATOM      3  N   UNL     1       3.207   6.918  18.217  0.00  0.00    +0.000 N 
ENDROOT
BRANCH   3   4
ATOM      4  C   UNL     1       2.416   6.031  18.986  0.00  0.00    +0.000 A 
ATOM      5  C   UNL     1       2.160   6.276  20.337  0.00  0.00    +0.000 A 
ATOM      6  C   UNL     1       1.471   5.328  21.090  0.00  0.00    +0.000 A 
ATOM      7  C   UNL     1       1.046   4.138  20.495  0.00  0.00    +0.000 A 
ATOM      8  C   UNL     1       1.276   3.902  19.135  0.00  0.00    +0.000 A 
ATOM      9  C   UNL     1       0.860   2.616  18.488  0.00  0.00    +0.000 C 
ATOM     10  C   UNL     1       1.942   4.869  18.375  0.00  0.00    +0.000 A 
ENDBRANCH   3   4
BRANCH   1  14
ATOM     11  C   UNL     1      -0.751  10.237  19.370  0.00  0.00    +0.000 A 
ATOM     12  C   UNL     1      -0.611   9.818  18.035  0.00  0.00    +0.000 A 
ATOM     13  C   UNL     1       0.530   9.156  17.588  0.00  0.00    +0.000 A 
ATOM     14  C   UNL     1       1.566   8.857  18.461  0.00  0.00    +0.000 A 
ATOM     15  C   UNL     1       1.416   9.208  19.810  0.00  0.00    +0.000 A 
ATOM     16  C   UNL     1       0.253   9.874  20.285  0.00  0.00    +0.000 A 
BRANCH  16  17
ATOM     17  O   UNL     1       0.316  10.063  21.638  0.00  0.00    +0.000 OA
ATOM     18  C   UNL     1      -0.467   9.337  22.572  0.00  0.00    +0.000 C 
ENDBRANCH  16  17
BRANCH  11  19
ATOM     19  O   UNL     1      -1.834  11.001  19.754  0.00  0.00    +0.000 OA
BRANCH  19  21
ATOM     20  C   UNL     1      -3.933  12.102  19.156  0.00  0.00    +0.000 C 
ATOM     21  C   UNL     1      -2.622  11.516  18.670  0.00  0.00    +0.000 C 
ENDBRANCH  19  21
ENDBRANCH  11  19
ENDBRANCH   1  14
BRANCH   3  22
ATOM     22  C   UNL     1       4.164   6.253  17.313  0.00  0.00    +0.000 C 
BRANCH  22  23
ATOM     23  C   UNL     1       5.619   6.269  17.737  0.00  0.00    +0.000 A 
ATOM     24  C   UNL     1       6.492   7.236  17.214  0.00  0.00    +0.000 A 
ATOM     25  C   UNL     1       7.780   7.387  17.725  0.00  0.00    +0.000 A 
ATOM     26  C   UNL     1       8.220   6.565  18.762  0.00  0.00    +0.000 A 
ATOM     27  C   UNL     1       7.377   5.576  19.269  0.00  0.00    +0.000 A 
ATOM     28  C   UNL     1       6.084   5.427  18.757  0.00  0.00    +0.000 A 
ENDBRANCH  22  23
ENDBRANCH   3  22
TORSDOF 7
ENDMDL
