MODEL 1
REMARK VINA RESULT:      -7.6      0.000      0.000
REMARK  Name = 
REMARK  8 active torsions:
REMARK  status: ('A' for Active; 'I' for Inactive)
REMARK    1  A    between atoms: C_1  and  N_2
REMARK    2  A    between atoms: N_2  and  C_3
REMARK    3  A    between atoms: N_2  and  C_4
REMARK    4  A    between atoms: C_4  and  C_5
REMARK    5  A    between atoms: C_5  and  C_6
REMARK    6  A    between atoms: C_10  and  N_11
REMARK    7  A    between atoms: N_11  and  S_12
REMARK    8  A    between atoms: S_12  and  C_15
REMARK                            x       y       z     vdW  Elec       q    Type
REMARK                         _______ _______ _______ _____ _____    ______ ____
ROOT
ATOM      1  C   UNL     1       2.874   5.746  19.285  0.00  0.00    +0.000 A 
ATOM      2  C   UNL     1       2.630   7.041  18.809  0.00  0.00    +0.000 A 
ATOM      3  C   UNL     1       3.287   7.513  17.670  0.00  0.00    +0.000 A 
ATOM      4  C   UNL     1       4.207   6.703  17.003  0.00  0.00    +0.000 A 
ATOM      5  C   UNL     1       4.466   5.422  17.481  0.00  0.00    +0.000 A 
ATOM      6  C   UNL     1       3.794   4.938  18.602  0.00  0.00    +0.000 A 
ENDROOT
BRANCH   5   7
ATOM      7  N   UNL     1       5.394   4.580  16.826  0.00  0.00    +0.000 N 
ATOM      8  H   UNL     1       5.099   3.689  16.435  0.00  0.00    +0.000 HD
BRANCH   7   9
ATOM      9  S   UNL     1       6.872   5.177  16.312  0.00  0.00    +0.000 S 
ATOM     10  O   UNL     1       6.773   6.620  16.409  0.00  0.00    +0.000 OA
ATOM     11  O   UNL     1       7.942   4.460  16.970  0.00  0.00    +0.000 OA
BRANCH   9  12
ATOM     12  C   UNL     1       6.884   4.753  14.587  0.00  0.00    +0.000 A 
ATOM     13  C   UNL     1       7.823   5.331  13.727  0.00  0.00    +0.000 A 
ATOM     14  C   UNL     1       7.802   5.006  12.371  0.00  0.00    +0.000 A 
ATOM     15  C   UNL     1       6.856   4.103  11.880  0.00  0.00    +0.000 A 
ATOM     16  C   UNL     1       5.934   3.511  12.747  0.00  0.00    +0.000 A 
ATOM     17  C   UNL     1       5.954   3.825  14.105  0.00  0.00    +0.000 A 
ENDBRANCH   9  12
ENDBRANCH   7   9
ENDBRANCH   5   7
BRANCH   1  18
ATOM     18  C   UNL     1       2.181   5.220  20.521  0.00  0.00    +0.000 C 
BRANCH  18  19
ATOM     19  C   UNL     1       1.011   4.276  20.190  0.00  0.00    +0.000 C 
BRANCH  19  21
ATOM     20  C   UNL     1       1.567   2.071  19.404  0.00  0.00    +0.000 C 
ATOM     21  N   UNL     1       1.235   2.870  20.589  0.00  0.00    +0.000 NA
ATOM     22  C   UNL     1       2.303   2.736  21.581  0.00  0.00    +0.000 C 
ENDBRANCH  19  21
ENDBRANCH  18  19
ENDBRANCH   1  18
TORSDOF 6
ENDMDL
MODEL 2
REMARK VINA RESULT:      -7.5      2.683      6.743
REMARK  Name = 
REMARK  8 active torsions:
REMARK  status: ('A' for Active; 'I' for Inactive)
REMARK    1  A    between atoms: C_1  and  N_2
REMARK    2  A    between atoms: N_2  and  C_3
REMARK    3  A    between atoms: N_2  and  C_4
REMARK    4  A    between atoms: C_4  and  C_5
REMARK    5  A    between atoms: C_5  and  C_6
REMARK    6  A    between atoms: C_10  and  N_11
REMARK    7  A    between atoms: N_11  and  S_12
REMARK    8  A    between atoms: S_12  and  C_15
REMARK                            x       y       z     vdW  Elec       q    Type
REMARK                         _______ _______ _______ _____ _____    ______ ____
ROOT
ATOM      1  C   UNL     1       6.782   5.105  16.241  0.00  0.00    +0.000 A 
ATOM      2  C   UNL     1       7.311   6.217  16.911  0.00  0.00    +0.000 A 
ATOM      3  C   UNL     1       7.121   6.372  18.287  0.00  0.00    +0.000 A 
ATOM      4  C   UNL     1       6.387   5.427  19.006  0.00  0.00    +0.000 A 
ATOM      5  C   UNL     1       5.846   4.330  18.343  0.00  0.00    +0.000 A 
ATOM      6  C   UNL     1       6.055   4.158  16.975  0.00  0.00    +0.000 A 
ENDROOT
BRANCH   5   7
ATOM      7  N   UNL     1       5.097   3.358  19.045  0.00  0.00    +0.000 N 
ATOM      8  H   UNL     1       5.492   2.884  19.853  0.00  0.00    +0.000 HD
BRANCH   7   9
ATOM      9  S   UNL     1       3.437   3.252  18.845  0.00  0.00    +0.000 S 
ATOM     10  O   UNL     1       3.226   2.906  17.454  0.00  0.00    +0.000 OA
ATOM     11  O   UNL     1       2.870   2.448  19.905  0.00  0.00    +0.000 OA
BRANCH   9  12
ATOM     12  C   UNL     1       2.912   4.935  19.067  0.00  0.00    +0.000 A 
ATOM     13  C   UNL     1       2.481   5.377  20.322  0.00  0.00    +0.000 A 
ATOM     14  C   UNL     1       2.048   6.694  20.473  0.00  0.00    +0.000 A 
ATOM     15  C   UNL     1       2.055   7.564  19.381  0.00  0.00    +0.000 A 
ATOM     16  C   UNL     1       2.508   7.126  18.136  0.00  0.00    +0.000 A 
ATOM     17  C   UNL     1       2.950   5.813  17.978  0.00  0.00    +0.000 A 
ENDBRANCH   9  12
ENDBRANCH   7   9
ENDBRANCH   5   7
BRANCH   1  18
ATOM     18  C   UNL     1       6.968   4.926  14.752  0.00  0.00    +0.000 C 
BRANCH  18  19
ATOM     19  C   UNL     1       5.869   4.053  14.118  0.00  0.00    +0.000 C 
BRANCH  19  21
ATOM     20  C   UNL     1       5.009   3.339  11.989  0.00  0.00    +0.000 C 
ATOM     21  N   UNL     1       6.223   3.496  12.797  0.00  0.00    +0.000 NA
ATOM     22  C   UNL     1       7.180   4.337  12.076  0.00  0.00    +0.000 C 
ENDBRANCH  19  21
ENDBRANCH  18  19
ENDBRANCH   1  18
TORSDOF 6
ENDMDL
MODEL 3
REMARK VINA RESULT:      -7.4      3.816      6.087
REMARK  Name = 
REMARK  8 active torsions:
REMARK  status: ('A' for Active; 'I' for Inactive)
REMARK    1  A    between atoms: C_1  and  N_2
REMARK    2  A    between atoms: N_2  and  C_3
REMARK    3  A    between atoms: N_2  and  C_4
REMARK    4  A    between atoms: C_4  and  C_5
REMARK    5  A    between atoms: C_5  and  C_6
REMARK    6  A    between atoms: C_10  and  N_11
REMARK    7  A    between atoms: N_11  and  S_12
REMARK    8  A    between atoms: S_12  and  C_15
REMARK                            x       y       z     vdW  Elec       q    Type
REMARK                         _______ _______ _______ _____ _____    ______ ____
ROOT
ATOM      1  C   UNL     1       4.082   6.511  17.758  0.00  0.00    +0.000 A 
ATOM      2  C   UNL     1       3.289   7.646  17.540  0.00  0.00    +0.000 A 
ATOM      3  C   UNL     1       2.326   8.028  18.477  0.00  0.00    +0.000 A 
ATOM      4  C   UNL     1       2.132   7.272  19.634  0.00  0.00    +0.000 A 
ATOM      5  C   UNL     1       2.904   6.135  19.848  0.00  0.00    +0.000 A 
ATOM      6  C   UNL     1       3.884   5.765  18.928  0.00  0.00    +0.000 A 
ENDROOT
BRANCH   5   7
ATOM      7  N   UNL     1       2.728   5.350  21.010  0.00  0.00    +0.000 N 
ATOM      8  H   UNL     1       2.963   5.721  21.927  0.00  0.00    +0.000 HD
BRANCH   7   9
ATOM      9  S   UNL     1       1.765   3.980  20.975  0.00  0.00    +0.000 S 
ATOM     10  O   UNL     1       1.949   3.332  22.258  0.00  0.00    +0.000 OA
ATOM     11  O   UNL     1       0.443   4.327  20.500  0.00  0.00    +0.000 OA
BRANCH   9  12
ATOM     12  C   UNL     1       2.563   2.976  19.745  0.00  0.00    +0.000 A 
ATOM     13  C   UNL     1       3.790   2.367  20.023  0.00  0.00    +0.000 A 
ATOM     14  C   UNL     1       4.415   1.603  19.036  0.00  0.00    +0.000 A 
ATOM     15  C   UNL     1       3.812   1.441  17.788  0.00  0.00    +0.000 A 
ATOM     16  C   UNL     1       2.575   2.032  17.523  0.00  0.00    +0.000 A 
ATOM     17  C   UNL     1       1.941   2.791  18.505  0.00  0.00    +0.000 A 
ENDBRANCH   9  12
ENDBRANCH   7   9
ENDBRANCH   5   7
BRANCH   1  18
ATOM     18  C   UNL     1       5.123   6.075  16.752  0.00  0.00    +0.000 C 
BRANCH  18  19
ATOM     19  C   UNL     1       6.470   6.796  16.942  0.00  0.00    +0.000 C 
BRANCH  19  21
ATOM     20  C   UNL     1       7.662   5.994  18.871  0.00  0.00    +0.000 C 
ATOM     21  N   UNL     1       7.565   5.920  17.409  0.00  0.00    +0.000 NA
ATOM     22  C   UNL     1       7.375   4.526  17.005  0.00  0.00    +0.000 C 
ENDBRANCH  19  21
ENDBRANCH  18  19
ENDBRANCH   1  18
TORSDOF 6
ENDMDL
MODEL 4
REMARK VINA RESULT:      -7.3      3.383      5.977
REMARK  Name = 
REMARK  8 active torsions:
REMARK  status: ('A' for Active; 'I' for Inactive)
REMARK    1  A    between atoms: C_1  and  N_2
REMARK    2  A    between atoms: N_2  and  C_3
REMARK    3  A    between atoms: N_2  and  C_4
REMARK    4  A    between atoms: C_4  and  C_5
REMARK    5  A    between atoms: C_5  and  C_6
REMARK    6  A    between atoms: C_10  and  N_11
REMARK    7  A    between atoms: N_11  and  S_12
REMARK    8  A    between atoms: S_12  and  C_15
REMARK                            x       y       z     vdW  Elec       q    Type
REMARK                         _______ _______ _______ _____ _____    ______ ____
ROOT
ATOM      1  C   UNL     1       3.739   6.719  17.739  0.00  0.00    +0.000 A 
ATOM      2  C   UNL     1       2.962   7.883  17.685  0.00  0.00    +0.000 A 
ATOM      3  C   UNL     1       2.113   8.219  18.742  0.00  0.00    +0.000 A 
ATOM      4  C   UNL     1       2.018   7.388  19.859  0.00  0.00    +0.000 A 
ATOM      5  C   UNL     1       2.775   6.221  19.911  0.00  0.00    +0.000 A 
ATOM      6  C   UNL     1       3.642   5.895  18.870  0.00  0.00    +0.000 A 
ENDROOT
BRANCH   5   7
ATOM      7  N   UNL     1       2.698   5.359  21.029  0.00  0.00    +0.000 N 
ATOM      8  H   UNL     1       3.005   5.672  21.947  0.00  0.00    +0.000 HD
BRANCH   7   9
ATOM      9  S   UNL     1       1.742   3.984  20.981  0.00  0.00    +0.000 S 
ATOM     10  O   UNL     1       1.934   3.322  22.256  0.00  0.00    +0.000 OA
ATOM     11  O   UNL     1       0.417   4.329  20.514  0.00  0.00    +0.000 OA
BRANCH   9  12
ATOM     12  C   UNL     1       2.542   3.000  19.737  0.00  0.00    +0.000 A 
ATOM     13  C   UNL     1       3.781   2.407  19.999  0.00  0.00    +0.000 A 
ATOM     14  C   UNL     1       4.407   1.658  19.002  0.00  0.00    +0.000 A 
ATOM     15  C   UNL     1       3.794   1.495  17.758  0.00  0.00    +0.000 A 
ATOM     16  C   UNL     1       2.546   2.069  17.509  0.00  0.00    +0.000 A 
ATOM     17  C   UNL     1       1.911   2.813  18.502  0.00  0.00    +0.000 A 
ENDBRANCH   9  12
ENDBRANCH   7   9
ENDBRANCH   5   7
BRANCH   1  18
ATOM     18  C   UNL     1       4.655   6.332  16.601  0.00  0.00    +0.000 C 
BRANCH  18  19
ATOM     19  C   UNL     1       5.055   4.846  16.639  0.00  0.00    +0.000 C 
BRANCH  19  21
ATOM     20  C   UNL     1       7.020   4.662  15.265  0.00  0.00    +0.000 C 
ATOM     21  N   UNL     1       6.513   4.610  16.641  0.00  0.00    +0.000 NA
ATOM     22  C   UNL     1       7.234   5.584  17.462  0.00  0.00    +0.000 C 
ENDBRANCH  19  21
ENDBRANCH  18  19
ENDBRANCH   1  18
TORSDOF 6
ENDMDL
MODEL 5
REMARK VINA RESULT:      -7.3      2.943      4.370
REMARK  Name = 
REMARK  8 active torsions:
REMARK  status: ('A' for Active; 'I' for Inactive)
REMARK    1  A    between atoms: C_1  and  N_2
REMARK    2  A    between atoms: N_2  and  C_3
REMARK    3  A    between atoms: N_2  and  C_4
REMARK    4  A    between atoms: C_4  and  C_5
REMARK    5  A    between atoms: C_5  and  C_6
REMARK    6  A    between atoms: C_10  and  N_11
REMARK    7  A    between atoms: N_11  and  S_12
REMARK    8  A    between atoms: S_12  and  C_15
REMARK                            x       y       z     vdW  Elec       q    Type
REMARK                         _______ _______ _______ _____ _____    ______ ____
ROOT
ATOM      1  C   UNL     1       2.309   4.142  19.965  0.00  0.00    +0.000 A 
ATOM      2  C   UNL     1       1.275   3.281  19.575  0.00  0.00    +0.000 A 
ATOM      3  C   UNL     1       1.477   2.347  18.555  0.00  0.00    +0.000 A 
ATOM      4  C   UNL     1       2.708   2.275  17.902  0.00  0.00    +0.000 A 
ATOM      5  C   UNL     1       3.733   3.140  18.273  0.00  0.00    +0.000 A 
ATOM      6  C   UNL     1       3.545   4.055  19.307  0.00  0.00    +0.000 A 
ENDROOT
BRANCH   5   7
ATOM      7  N   UNL     1       4.990   3.090  17.628  0.00  0.00    +0.000 N 
ATOM      8  H   UNL     1       5.568   2.255  17.681  0.00  0.00    +0.000 HD
BRANCH   7   9
ATOM      9  S   UNL     1       5.383   4.204  16.440  0.00  0.00    +0.000 S 
ATOM     10  O   UNL     1       6.170   3.481  15.461  0.00  0.00    +0.000 OA
ATOM     11  O   UNL     1       4.198   4.935  16.048  0.00  0.00    +0.000 OA
BRANCH   9  12
ATOM     12  C   UNL     1       6.476   5.314  17.296  0.00  0.00    +0.000 A 
ATOM     13  C   UNL     1       7.176   4.879  18.425  0.00  0.00    +0.000 A 
ATOM     14  C   UNL     1       8.010   5.771  19.100  0.00  0.00    +0.000 A 
ATOM     15  C   UNL     1       8.150   7.083  18.643  0.00  0.00    +0.000 A 
ATOM     16  C   UNL     1       7.467   7.506  17.501  0.00  0.00    +0.000 A 
ATOM     17  C   UNL     1       6.637   6.619  16.817  0.00  0.00    +0.000 A 
ENDBRANCH   9  12
ENDBRANCH   7   9
ENDBRANCH   5   7
BRANCH   1  18
ATOM     18  C   UNL     1       2.108   5.166  21.058  0.00  0.00    +0.000 C 
BRANCH  18  19
ATOM     19  C   UNL     1       1.208   6.336  20.618  0.00  0.00    +0.000 C 
BRANCH  19  21
ATOM     20  C   UNL     1       2.269   7.682  18.930  0.00  0.00    +0.000 C 
ATOM     21  N   UNL     1       1.935   7.595  20.356  0.00  0.00    +0.000 NA
ATOM     22  C   UNL     1       1.162   8.776  20.746  0.00  0.00    +0.000 C 
ENDBRANCH  19  21
ENDBRANCH  18  19
ENDBRANCH   1  18
TORSDOF 6
ENDMDL
MODEL 6
REMARK VINA RESULT:      -7.2      1.026      1.279
REMARK  Name = 
REMARK  8 active torsions:
REMARK  status: ('A' for Active; 'I' for Inactive)
REMARK    1  A    between atoms: C_1  and  N_2
REMARK    2  A    between atoms: N_2  and  C_3
REMARK    3  A    between atoms: N_2  and  C_4
REMARK    4  A    between atoms: C_4  and  C_5
REMARK    5  A    between atoms: C_5  and  C_6
REMARK    6  A    between atoms: C_10  and  N_11
REMARK    7  A    between atoms: N_11  and  S_12
REMARK    8  A    between atoms: S_12  and  C_15
REMARK                            x       y       z     vdW  Elec       q    Type
REMARK                         _______ _______ _______ _____ _____    ______ ____
ROOT
ATOM      1  C   UNL     1       2.594   4.795  18.009  0.00  0.00    +0.000 A 
ATOM      2  C   UNL     1       2.148   5.852  18.814  0.00  0.00    +0.000 A 
ATOM      3  C   UNL     1       2.715   7.123  18.692  0.00  0.00    +0.000 A 
ATOM      4  C   UNL     1       3.744   7.349  17.777  0.00  0.00    +0.000 A 
ATOM      5  C   UNL     1       4.202   6.299  16.987  0.00  0.00    +0.000 A 
ATOM      6  C   UNL     1       3.622   5.036  17.087  0.00  0.00    +0.000 A 
ENDROOT
BRANCH   5   7
ATOM      7  N   UNL     1       5.244   6.499  16.053  0.00  0.00    +0.000 N 
ATOM      8  H   UNL     1       5.284   7.348  15.495  0.00  0.00    +0.000 HD
BRANCH   7   9
ATOM      9  S   UNL     1       6.639   5.574  16.122  0.00  0.00    +0.000 S 
ATOM     10  O   UNL     1       7.731   6.514  16.284  0.00  0.00    +0.000 OA
ATOM     11  O   UNL     1       6.454   4.484  17.054  0.00  0.00    +0.000 OA
BRANCH   9  12
ATOM     12  C   UNL     1       6.743   4.905  14.480  0.00  0.00    +0.000 A 
ATOM     13  C   UNL     1       7.725   5.361  13.595  0.00  0.00    +0.000 A 
ATOM     14  C   UNL     1       7.776   4.843  12.301  0.00  0.00    +0.000 A 
ATOM     15  C   UNL     1       6.860   3.869  11.899  0.00  0.00    +0.000 A 
ATOM     16  C   UNL     1       5.896   3.399  12.793  0.00  0.00    +0.000 A 
ATOM     17  C   UNL     1       5.843   3.906  14.090  0.00  0.00    +0.000 A 
ENDBRANCH   9  12
ENDBRANCH   7   9
ENDBRANCH   5   7
BRANCH   1  18
ATOM     18  C   UNL     1       2.000   3.410  18.133  0.00  0.00    +0.000 C 
BRANCH  18  19
ATOM     19  C   UNL     1       1.280   3.191  19.476  0.00  0.00    +0.000 C 
BRANCH  19  21
ATOM     20  C   UNL     1       3.461   2.317  19.990  0.00  0.00    +0.000 C 
ATOM     21  N   UNL     1       2.101   2.514  20.502  0.00  0.00    +0.000 NA
ATOM     22  C   UNL     1       2.158   3.267  21.756  0.00  0.00    +0.000 C 
ENDBRANCH  19  21
ENDBRANCH  18  19
ENDBRANCH   1  18
TORSDOF 6
ENDMDL
MODEL 7
REMARK VINA RESULT:      -7.2      3.321      6.178
REMARK  Name = 
REMARK  8 active torsions:
REMARK  status: ('A' for Active; 'I' for Inactive)
REMARK    1  A    between atoms: C_1  and  N_2
REMARK    2  A    between atoms: N_2  and  C_3
REMARK    3  A    between atoms: N_2  and  C_4
REMARK    4  A    between atoms: C_4  and  C_5
REMARK    5  A    between atoms: C_5  and  C_6
REMARK    6  A    between atoms: C_10  and  N_11
REMARK    7  A    between atoms: N_11  and  S_12
REMARK    8  A    between atoms: S_12  and  C_15
REMARK                            x       y       z     vdW  Elec       q    Type
REMARK                         _______ _______ _______ _____ _____    ______ ____
ROOT
ATOM      1  C   UNL     1       5.236   5.837  18.162  0.00  0.00    +0.000 A 
ATOM      2  C   UNL     1       4.555   6.720  17.314  0.00  0.00    +0.000 A 
ATOM      3  C   UNL     1       3.287   7.196  17.656  0.00  0.00    +0.000 A 
ATOM      4  C   UNL     1       2.677   6.782  18.841  0.00  0.00    +0.000 A 
ATOM      5  C   UNL     1       3.342   5.892  19.680  0.00  0.00    +0.000 A 
ATOM      6  C   UNL     1       4.618   5.435  19.355  0.00  0.00    +0.000 A 
ENDROOT
BRANCH   5   7
ATOM      7  N   UNL     1       2.748   5.455  20.886  0.00  0.00    +0.000 N 
ATOM      8  H   UNL     1       2.676   6.081  21.685  0.00  0.00    +0.000 HD
BRANCH   7   9
ATOM      9  S   UNL     1       1.793   4.080  20.916  0.00  0.00    +0.000 S 
ATOM     10  O   UNL     1       2.068   3.432  22.183  0.00  0.00    +0.000 OA
ATOM     11  O   UNL     1       0.440   4.419  20.534  0.00  0.00    +0.000 OA
BRANCH   9  12
ATOM     12  C   UNL     1       2.509   3.081  19.633  0.00  0.00    +0.000 A 
ATOM     13  C   UNL     1       3.583   2.232  19.920  0.00  0.00    +0.000 A 
ATOM     14  C   UNL     1       4.150   1.474  18.896  0.00  0.00    +0.000 A 
ATOM     15  C   UNL     1       3.642   1.557  17.598  0.00  0.00    +0.000 A 
ATOM     16  C   UNL     1       2.555   2.389  17.320  0.00  0.00    +0.000 A 
ATOM     17  C   UNL     1       1.978   3.144  18.340  0.00  0.00    +0.000 A 
ENDBRANCH   9  12
ENDBRANCH   7   9
ENDBRANCH   5   7
BRANCH   1  18
ATOM     18  C   UNL     1       6.604   5.303  17.805  0.00  0.00    +0.000 C 
BRANCH  18  19
ATOM     19  C   UNL     1       7.055   5.724  16.394  0.00  0.00    +0.000 C 
BRANCH  19  21
ATOM     20  C   UNL     1       6.035   3.701  15.585  0.00  0.00    +0.000 C 
ATOM     21  N   UNL     1       7.182   4.604  15.438  0.00  0.00    +0.000 NA
ATOM     22  C   UNL     1       7.265   5.063  14.051  0.00  0.00    +0.000 C 
ENDBRANCH  19  21
ENDBRANCH  18  19
ENDBRANCH   1  18
TORSDOF 6
ENDMDL
MODEL 8
REMARK VINA RESULT:      -7.2      2.950      4.631
REMARK  Name = 
REMARK  8 active torsions:
REMARK  status: ('A' for Active; 'I' for Inactive)
REMARK    1  A    between atoms: C_1  and  N_2
REMARK    2  A    between atoms: N_2  and  C_3
REMARK    3  A    between atoms: N_2  and  C_4
REMARK    4  A    between atoms: C_4  and  C_5
REMARK    5  A    between atoms: C_5  and  C_6
REMARK    6  A    between atoms: C_10  and  N_11
REMARK    7  A    between atoms: N_11  and  S_12
REMARK    8  A    between atoms: S_12  and  C_15
REMARK                            x       y       z     vdW  Elec       q    Type
REMARK                         _______ _______ _______ _____ _____    ______ ____
ROOT
ATOM      1  C   UNL     1       2.626   5.632  18.404  0.00  0.00    +0.000 A 
ATOM      2  C   UNL     1       1.566   4.716  18.441  0.00  0.00    +0.000 A 
ATOM      3  C   UNL     1       1.712   3.442  17.886  0.00  0.00    +0.000 A 
ATOM      4  C   UNL     1       2.911   3.075  17.274  0.00  0.00    +0.000 A 
ATOM      5  C   UNL     1       3.960   3.986  17.220  0.00  0.00    +0.000 A 
ATOM      6  C   UNL     1       3.828   5.249  17.795  0.00  0.00    +0.000 A 
ENDROOT
BRANCH   5   7
ATOM      7  N   UNL     1       5.186   3.642  16.605  0.00  0.00    +0.000 N 
ATOM      8  H   UNL     1       5.450   2.667  16.484  0.00  0.00    +0.000 HD
BRANCH   7   9
ATOM      9  S   UNL     1       6.033   4.770  15.701  0.00  0.00    +0.000 S 
ATOM     10  O   UNL     1       7.022   4.020  14.955  0.00  0.00    +0.000 OA
ATOM     11  O   UNL     1       5.103   5.649  15.027  0.00  0.00    +0.000 OA
BRANCH   9  12
ATOM     12  C   UNL     1       6.890   5.701  16.948  0.00  0.00    +0.000 A 
ATOM     13  C   UNL     1       7.085   7.077  16.788  0.00  0.00    +0.000 A 
ATOM     14  C   UNL     1       7.783   7.788  17.764  0.00  0.00    +0.000 A 
ATOM     15  C   UNL     1       8.272   7.132  18.895  0.00  0.00    +0.000 A 
ATOM     16  C   UNL     1       8.054   5.763  19.062  0.00  0.00    +0.000 A 
ATOM     17  C   UNL     1       7.352   5.046  18.095  0.00  0.00    +0.000 A 
ENDBRANCH   9  12
ENDBRANCH   7   9
ENDBRANCH   5   7
BRANCH   1  18
ATOM     18  C   UNL     1       2.484   7.019  18.989  0.00  0.00    +0.000 C 
BRANCH  18  19
ATOM     19  C   UNL     1       2.242   8.095  17.914  0.00  0.00    +0.000 C 
BRANCH  19  21
ATOM     20  C   UNL     1       1.190   9.136  19.810  0.00  0.00    +0.000 C 
ATOM     21  N   UNL     1       1.387   9.215  18.358  0.00  0.00    +0.000 NA
ATOM     22  C   UNL     1       1.955  10.519  18.015  0.00  0.00    +0.000 C 
ENDBRANCH  19  21
ENDBRANCH  18  19
ENDBRANCH   1  18
TORSDOF 6
ENDMDL
MODEL 9
REMARK VINA RESULT:      -7.1      0.921      1.493
REMARK  Name = 
REMARK  8 active torsions:
REMARK  status: ('A' for Active; 'I' for Inactive)
REMARK    1  A    between atoms: C_1  and  N_2
REMARK    2  A    between atoms: N_2  and  C_3
REMARK    3  A    between atoms: N_2  and  C_4
REMARK    4  A    between atoms: C_4  and  C_5
REMARK    5  A    between atoms: C_5  and  C_6
REMARK    6  A    between atoms: C_10  and  N_11
REMARK    7  A    between atoms: N_11  and  S_12
REMARK    8  A    between atoms: S_12  and  C_15
REMARK                            x       y       z     vdW  Elec       q    Type
REMARK                         _______ _______ _______ _____ _____    ______ ____
ROOT
ATOM      1  C   UNL     1       3.247   5.852  19.192  0.00  0.00    +0.000 A 
ATOM      2  C   UNL     1       2.508   7.022  18.974  0.00  0.00    +0.000 A 
ATOM      3  C   UNL     1       2.843   7.888  17.931  0.00  0.00    +0.000 A 
ATOM      4  C   UNL     1       3.931   7.604  17.103  0.00  0.00    +0.000 A 
ATOM      5  C   UNL     1       4.679   6.452  17.325  0.00  0.00    +0.000 A 
ATOM      6  C   UNL     1       4.332   5.572  18.350  0.00  0.00    +0.000 A 
ENDROOT
BRANCH   5   7
ATOM      7  N   UNL     1       5.786   6.139  16.504  0.00  0.00    +0.000 N 
ATOM      8  H   UNL     1       6.451   6.860  16.234  0.00  0.00    +0.000 HD
BRANCH   7   9
ATOM      9  S   UNL     1       6.270   4.549  16.295  0.00  0.00    +0.000 S 
ATOM     10  O   UNL     1       7.535   4.423  16.991  0.00  0.00    +0.000 OA
ATOM     11  O   UNL     1       5.167   3.662  16.593  0.00  0.00    +0.000 OA
BRANCH   9  12
ATOM     12  C   UNL     1       6.605   4.471  14.552  0.00  0.00    +0.000 A 
ATOM     13  C   UNL     1       5.898   3.579  13.740  0.00  0.00    +0.000 A 
ATOM     14  C   UNL     1       6.191   3.513  12.377  0.00  0.00    +0.000 A 
ATOM     15  C   UNL     1       7.175   4.339  11.831  0.00  0.00    +0.000 A 
ATOM     16  C   UNL     1       7.862   5.245  12.641  0.00  0.00    +0.000 A 
ATOM     17  C   UNL     1       7.570   5.323  14.002  0.00  0.00    +0.000 A 
ENDBRANCH   9  12
ENDBRANCH   7   9
ENDBRANCH   5   7
BRANCH   1  18
ATOM     18  C   UNL     1       2.907   4.907  20.323  0.00  0.00    +0.000 C 
BRANCH  18  19
ATOM     19  C   UNL     1       1.390   4.704  20.490  0.00  0.00    +0.000 C 
BRANCH  19  21
ATOM     20  C   UNL     1       1.056   2.648  19.288  0.00  0.00    +0.000 C 
ATOM     21  N   UNL     1       0.976   3.291  20.604  0.00  0.00    +0.000 NA
ATOM     22  C   UNL     1       1.797   2.545  21.559  0.00  0.00    +0.000 C 
ENDBRANCH  19  21
ENDBRANCH  18  19
ENDBRANCH   1  18
TORSDOF 6
ENDMDL
