MODEL 1
REMARK VINA RESULT:      -8.0      0.000      0.000
REMARK  Name = 
REMARK  11 active torsions:
REMARK  status: ('A' for Active; 'I' for Inactive)
REMARK    1  A    between atoms: C_1  and  C_2
REMARK    2  A    between atoms: C_4  and  C_5
REMARK    3  A    between atoms: C_8  and  C_9
REMARK    4  A    between atoms: C_9  and  N_10
REMARK    5  A    between atoms: N_10  and  C_11
REMARK    6  A    between atoms: C_11  and  C_12
REMARK    7  A    between atoms: C_12  and  N_13
REMARK    8  A    between atoms: N_13  and  C_14
REMARK    9  A    between atoms: N_13  and  C_15
REMARK   10  A    between atoms: N_18  and  C_19
REMARK   11  A    between atoms: C_26  and  O_27
REMARK                            x       y       z     vdW  Elec       q    Type
REMARK                         _______ _______ _______ _____ _____    ______ ____
ROOT
ATOM      1  N   UNL     1       2.856   6.387  19.429  0.00  0.00    +0.000 N 
ATOM      2  C   UNL     1       3.939   5.712  18.804  0.00  0.00    +0.000 C 
ATOM      3  O   UNL     1       4.535   4.797  19.363  0.00  0.00    +0.000 OA
ATOM      4  N   UNL     1       4.253   6.120  17.538  0.00  0.00    +0.000 N 
ATOM      5  H   UNL     1       4.053   7.076  17.293  0.00  0.00    +0.000 HD
ENDROOT
BRANCH   4   6
ATOM      6  C   UNL     1       5.161   5.478  16.647  0.00  0.00    +0.000 A 
ATOM      7  C   UNL     1       4.830   4.378  15.845  0.00  0.00    +0.000 A 
ATOM      8  C   UNL     1       5.782   3.804  14.990  0.00  0.00    +0.000 A 
ATOM      9  C   UNL     1       7.070   4.329  14.918  0.00  0.00    +0.000 A 
ATOM     10  C   UNL     1       7.407   5.435  15.696  0.00  0.00    +0.000 A 
ATOM     11  C   UNL     1       6.459   6.006  16.546  0.00  0.00    +0.000 A 
ATOM     12 CL   UNL     1       6.928   7.371  17.504  0.00  0.00    +0.000 Cl
ENDBRANCH   4   6
BRANCH   1  13
ATOM     13  C   UNL     1       1.851   7.274  18.732  0.00  0.00    +0.000 C 
BRANCH  13  21
ATOM     14  C   UNL     1      -1.418  14.022  21.938  0.00  0.00    +0.000 C 
ATOM     15  C   UNL     1      -0.756  12.703  21.640  0.00  0.00    +0.000 A 
ATOM     16  C   UNL     1      -0.767  11.690  22.584  0.00  0.00    +0.000 A 
ATOM     17  C   UNL     1      -0.195  10.429  22.316  0.00  0.00    +0.000 A 
ATOM     18  C   UNL     1      -0.196   9.459  23.468  0.00  0.00    +0.000 C 
ATOM     19  C   UNL     1       0.397  10.139  21.029  0.00  0.00    +0.000 A 
ATOM     20  C   UNL     1       0.905   8.860  20.563  0.00  0.00    +0.000 A 
ATOM     21  C   UNL     1       1.518   8.674  19.291  0.00  0.00    +0.000 A 
ATOM     22  C   UNL     1       1.584   9.834  18.537  0.00  0.00    +0.000 A 
ATOM     23  N   UNL     1       1.081  11.040  18.909  0.00  0.00    +0.000 NA
ATOM     24  C   UNL     1       0.480  11.195  20.105  0.00  0.00    +0.000 A 
ATOM     25  C   UNL     1      -0.109  12.441  20.414  0.00  0.00    +0.000 A 
BRANCH  22  26
ATOM     26  O   UNL     1       2.100   9.845  17.273  0.00  0.00    +0.000 OA
ATOM     27  H   UNL     1       2.872  10.427  17.258  0.00  0.00    +0.000 HD
ENDBRANCH  22  26
ENDBRANCH  13  21
ENDBRANCH   1  13
BRANCH   1  28
ATOM     28  C   UNL     1       2.416   5.582  20.593  0.00  0.00    +0.000 C 
BRANCH  28  29
ATOM     29  C   UNL     1       1.118   4.814  20.414  0.00  0.00    +0.000 C 
BRANCH  29  30
ATOM     30  N   UNL     1       1.156   3.355  20.598  0.00  0.00    +0.000 NA
ATOM     31  C   UNL     1       1.529   2.662  19.360  0.00  0.00    +0.000 C 
ATOM     32  C   UNL     1       2.152   3.095  21.642  0.00  0.00    +0.000 C 
ENDBRANCH  29  30
ENDBRANCH  28  29
ENDBRANCH   1  28
TORSDOF 7
ENDMDL
MODEL 2
REMARK VINA RESULT:      -7.9      1.525      1.821
REMARK  Name = 
REMARK  11 active torsions:
REMARK  status: ('A' for Active; 'I' for Inactive)
REMARK    1  A    between atoms: C_1  and  C_2
REMARK    2  A    between atoms: C_4  and  C_5
REMARK    3  A    between atoms: C_8  and  C_9
REMARK    4  A    between atoms: C_9  and  N_10
REMARK    5  A    between atoms: N_10  and  C_11
REMARK    6  A    between atoms: C_11  and  C_12
REMARK    7  A    between atoms: C_12  and  N_13
REMARK    8  A    between atoms: N_13  and  C_14
REMARK    9  A    between atoms: N_13  and  C_15
REMARK   10  A    between atoms: N_18  and  C_19
REMARK   11  A    between atoms: C_26  and  O_27
REMARK                            x       y       z     vdW  Elec       q    Type
REMARK                         _______ _______ _______ _____ _____    ______ ____
ROOT
ATOM      1  N   UNL     1       2.956   4.751  18.815  0.00  0.00    +0.000 N 
ATOM      2  C   UNL     1       3.570   4.316  17.609  0.00  0.00    +0.000 C 
ATOM      3  O   UNL     1       3.019   3.518  16.859  0.00  0.00    +0.000 OA
ATOM      4  N   UNL     1       4.790   4.862  17.324  0.00  0.00    +0.000 N 
ATOM      5  H   UNL     1       5.363   5.154  18.098  0.00  0.00    +0.000 HD
ENDROOT
BRANCH   4   6
ATOM      6  C   UNL     1       5.506   4.730  16.099  0.00  0.00    +0.000 A 
ATOM      7  C   UNL     1       5.047   4.003  14.993  0.00  0.00    +0.000 A 
ATOM      8  C   UNL     1       5.811   3.925  13.820  0.00  0.00    +0.000 A 
ATOM      9  C   UNL     1       7.037   4.581  13.735  0.00  0.00    +0.000 A 
ATOM     10  C   UNL     1       7.498   5.323  14.821  0.00  0.00    +0.000 A 
ATOM     11  C   UNL     1       6.736   5.401  15.987  0.00  0.00    +0.000 A 
ATOM     12 CL   UNL     1       7.356   6.324  17.316  0.00  0.00    +0.000 Cl
ENDBRANCH   4   6
BRANCH   1  13
ATOM     13  C   UNL     1       3.370   5.954  19.630  0.00  0.00    +0.000 C 
BRANCH  13  21
ATOM     14  C   UNL     1      -1.788  12.246  19.069  0.00  0.00    +0.000 C 
ATOM     15  C   UNL     1      -0.823  11.162  19.471  0.00  0.00    +0.000 A 
ATOM     16  C   UNL     1      -0.813  10.686  20.771  0.00  0.00    +0.000 A 
ATOM     17  C   UNL     1       0.048   9.641  21.165  0.00  0.00    +0.000 A 
ATOM     18  C   UNL     1       0.017   9.294  22.630  0.00  0.00    +0.000 C 
ATOM     19  C   UNL     1       0.931   9.005  20.212  0.00  0.00    +0.000 A 
ATOM     20  C   UNL     1       1.773   7.843  20.435  0.00  0.00    +0.000 A 
ATOM     21  C   UNL     1       2.652   7.309  19.449  0.00  0.00    +0.000 A 
ATOM     22  C   UNL     1       2.626   8.007  18.253  0.00  0.00    +0.000 A 
ATOM     23  N   UNL     1       1.822   9.068  17.981  0.00  0.00    +0.000 NA
ATOM     24  C   UNL     1       0.977   9.546  18.916  0.00  0.00    +0.000 A 
ATOM     25  C   UNL     1       0.094  10.591  18.563  0.00  0.00    +0.000 A 
BRANCH  22  26
ATOM     26  O   UNL     1       3.369   7.620  17.175  0.00  0.00    +0.000 OA
ATOM     27  H   UNL     1       3.842   6.807  17.399  0.00  0.00    +0.000 HD
ENDBRANCH  22  26
ENDBRANCH  13  21
ENDBRANCH   1  13
BRANCH   1  28
ATOM     28  C   UNL     1       1.523   4.374  18.769  0.00  0.00    +0.000 C 
BRANCH  28  29
ATOM     29  C   UNL     1       0.888   4.022  20.102  0.00  0.00    +0.000 C 
BRANCH  29  30
ATOM     30  N   UNL     1       1.161   2.688  20.658  0.00  0.00    +0.000 NA
ATOM     31  C   UNL     1       1.691   1.775  19.640  0.00  0.00    +0.000 C 
ATOM     32  C   UNL     1       2.146   2.878  21.728  0.00  0.00    +0.000 C 
ENDBRANCH  29  30
ENDBRANCH  28  29
ENDBRANCH   1  28
TORSDOF 7
ENDMDL
MODEL 3
REMARK VINA RESULT:      -7.6      0.983      1.315
REMARK  Name = 
REMARK  11 active torsions:
REMARK  status: ('A' for Active; 'I' for Inactive)
REMARK    1  A    between atoms: C_1  and  C_2
REMARK    2  A    between atoms: C_4  and  C_5
REMARK    3  A    between atoms: C_8  and  C_9
REMARK    4  A    between atoms: C_9  and  N_10
REMARK    5  A    between atoms: N_10  and  C_11
REMARK    6  A    between atoms: C_11  and  C_12
REMARK    7  A    between atoms: C_12  and  N_13
REMARK    8  A    between atoms: N_13  and  C_14
REMARK    9  A    between atoms: N_13  and  C_15
REMARK   10  A    between atoms: N_18  and  C_19
REMARK   11  A    between atoms: C_26  and  O_27
REMARK                            x       y       z     vdW  Elec       q    Type
REMARK                         _______ _______ _______ _____ _____    ______ ____
ROOT
ATOM      1  N   UNL     1       2.769   6.347  19.591  0.00  0.00    +0.000 N 
ATOM      2  C   UNL     1       3.900   5.714  19.008  0.00  0.00    +0.000 C 
ATOM      3  O   UNL     1       4.492   4.804  19.578  0.00  0.00    +0.000 OA
ATOM      4  N   UNL     1       4.266   6.157  17.768  0.00  0.00    +0.000 N 
ATOM      5  H   UNL     1       4.052   7.113  17.532  0.00  0.00    +0.000 HD
ENDROOT
BRANCH   4   6
ATOM      6  C   UNL     1       5.234   5.559  16.911  0.00  0.00    +0.000 A 
ATOM      7  C   UNL     1       6.498   6.103  16.651  0.00  0.00    +0.000 A 
ATOM      8  C   UNL     1       7.397   5.449  15.796  0.00  0.00    +0.000 A 
ATOM      9  C   UNL     1       7.046   4.239  15.199  0.00  0.00    +0.000 A 
ATOM     10  C   UNL     1       5.799   3.677  15.464  0.00  0.00    +0.000 A 
ATOM     11  C   UNL     1       4.906   4.328  16.316  0.00  0.00    +0.000 A 
ATOM     12 CL   UNL     1       3.361   3.598  16.604  0.00  0.00    +0.000 Cl
ENDBRANCH   4   6
BRANCH   1  13
ATOM     13  C   UNL     1       1.776   7.222  18.861  0.00  0.00    +0.000 C 
BRANCH  13  21
ATOM     14  C   UNL     1      -1.524  14.012  21.946  0.00  0.00    +0.000 C 
ATOM     15  C   UNL     1      -0.851  12.693  21.671  0.00  0.00    +0.000 A 
ATOM     16  C   UNL     1      -0.836  11.704  22.641  0.00  0.00    +0.000 A 
ATOM     17  C   UNL     1      -0.253  10.443  22.395  0.00  0.00    +0.000 A 
ATOM     18  C   UNL     1      -0.226   9.503  23.572  0.00  0.00    +0.000 C 
ATOM     19  C   UNL     1       0.323  10.127  21.107  0.00  0.00    +0.000 A 
ATOM     20  C   UNL     1       0.839   8.843  20.667  0.00  0.00    +0.000 A 
ATOM     21  C   UNL     1       1.435   8.632  19.390  0.00  0.00    +0.000 A 
ATOM     22  C   UNL     1       1.476   9.773  18.606  0.00  0.00    +0.000 A 
ATOM     23  N   UNL     1       0.964  10.982  18.955  0.00  0.00    +0.000 NA
ATOM     24  C   UNL     1       0.380  11.160  20.156  0.00  0.00    +0.000 A 
ATOM     25  C   UNL     1      -0.220  12.408  20.442  0.00  0.00    +0.000 A 
BRANCH  22  26
ATOM     26  O   UNL     1       1.973   9.758  17.335  0.00  0.00    +0.000 OA
ATOM     27  H   UNL     1       1.236   9.836  16.713  0.00  0.00    +0.000 HD
ENDBRANCH  22  26
ENDBRANCH  13  21
ENDBRANCH   1  13
BRANCH   1  28
ATOM     28  C   UNL     1       2.293   5.505  20.715  0.00  0.00    +0.000 C 
BRANCH  28  29
ATOM     29  C   UNL     1       1.064   4.659  20.433  0.00  0.00    +0.000 C 
BRANCH  29  30
ATOM     30  N   UNL     1       1.161   3.212  20.679  0.00  0.00    +0.000 NA
ATOM     31  C   UNL     1       1.516   2.477  19.460  0.00  0.00    +0.000 C 
ATOM     32  C   UNL     1       2.200   3.032  21.698  0.00  0.00    +0.000 C 
ENDBRANCH  29  30
ENDBRANCH  28  29
ENDBRANCH   1  28
TORSDOF 7
ENDMDL
MODEL 4
REMARK VINA RESULT:      -7.3      1.238      1.620
REMARK  Name = 
REMARK  11 active torsions:
REMARK  status: ('A' for Active; 'I' for Inactive)
REMARK    1  A    between atoms: C_1  and  C_2
REMARK    2  A    between atoms: C_4  and  C_5
REMARK    3  A    between atoms: C_8  and  C_9
REMARK    4  A    between atoms: C_9  and  N_10
REMARK    5  A    between atoms: N_10  and  C_11
REMARK    6  A    between atoms: C_11  and  C_12
REMARK    7  A    between atoms: C_12  and  N_13
REMARK    8  A    between atoms: N_13  and  C_14
REMARK    9  A    between atoms: N_13  and  C_15
REMARK   10  A    between atoms: N_18  and  C_19
REMARK   11  A    between atoms: C_26  and  O_27
REMARK                            x       y       z     vdW  Elec       q    Type
REMARK                         _______ _______ _______ _____ _____    ______ ____
ROOT
ATOM      1  N   UNL     1       3.610   5.135  19.304  0.00  0.00    +0.000 N 
ATOM      2  C   UNL     1       4.670   4.805  18.416  0.00  0.00    +0.000 C 
ATOM      3  O   UNL     1       5.557   4.022  18.736  0.00  0.00    +0.000 OA
ATOM      4  N   UNL     1       4.622   5.387  17.180  0.00  0.00    +0.000 N 
ATOM      5  H   UNL     1       4.166   6.281  17.102  0.00  0.00    +0.000 HD
ENDROOT
BRANCH   4   6
ATOM      6  C   UNL     1       5.453   5.069  16.066  0.00  0.00    +0.000 A 
ATOM      7  C   UNL     1       5.074   4.220  15.019  0.00  0.00    +0.000 A 
ATOM      8  C   UNL     1       5.951   3.960  13.956  0.00  0.00    +0.000 A 
ATOM      9  C   UNL     1       7.210   4.554  13.922  0.00  0.00    +0.000 A 
ATOM     10  C   UNL     1       7.593   5.417  14.948  0.00  0.00    +0.000 A 
ATOM     11  C   UNL     1       6.720   5.675  16.004  0.00  0.00    +0.000 A 
ATOM     12 CL   UNL     1       7.245   6.742  17.264  0.00  0.00    +0.000 Cl
ENDBRANCH   4   6
BRANCH   1  13
ATOM     13  C   UNL     1       2.311   5.802  18.917  0.00  0.00    +0.000 C 
BRANCH  13  21
ATOM     14  C   UNL     1      -0.258  13.456  20.061  0.00  0.00    +0.000 C 
ATOM     15  C   UNL     1       0.239  12.038  20.158  0.00  0.00    +0.000 A 
ATOM     16  C   UNL     1       0.009  11.296  21.305  0.00  0.00    +0.000 A 
ATOM     17  C   UNL     1       0.423   9.952  21.406  0.00  0.00    +0.000 A 
ATOM     18  C   UNL     1       0.191   9.302  22.744  0.00  0.00    +0.000 C 
ATOM     19  C   UNL     1       1.076   9.289  20.299  0.00  0.00    +0.000 A 
ATOM     20  C   UNL     1       1.441   7.886  20.206  0.00  0.00    +0.000 A 
ATOM     21  C   UNL     1       2.128   7.325  19.091  0.00  0.00    +0.000 A 
ATOM     22  C   UNL     1       2.416   8.248  18.100  0.00  0.00    +0.000 A 
ATOM     23  N   UNL     1       2.053   9.558  18.120  0.00  0.00    +0.000 NA
ATOM     24  C   UNL     1       1.381  10.069  19.170  0.00  0.00    +0.000 A 
ATOM     25  C   UNL     1       0.945  11.411  19.109  0.00  0.00    +0.000 A 
BRANCH  22  26
ATOM     26  O   UNL     1       3.033   7.890  16.937  0.00  0.00    +0.000 OA
ATOM     27  H   UNL     1       3.793   7.330  17.148  0.00  0.00    +0.000 HD
ENDBRANCH  22  26
ENDBRANCH  13  21
ENDBRANCH   1  13
BRANCH   1  28
ATOM     28  C   UNL     1       3.607   4.147  20.410  0.00  0.00    +0.000 C 
BRANCH  28  29
ATOM     29  C   UNL     1       3.284   2.716  20.018  0.00  0.00    +0.000 C 
BRANCH  29  30
ATOM     30  N   UNL     1       1.903   2.249  20.216  0.00  0.00    +0.000 NA
ATOM     31  C   UNL     1       1.204   3.040  21.234  0.00  0.00    +0.000 C 
ATOM     32  C   UNL     1       1.230   2.383  18.920  0.00  0.00    +0.000 C 
ENDBRANCH  29  30
ENDBRANCH  28  29
ENDBRANCH   1  28
TORSDOF 7
ENDMDL
MODEL 5
REMARK VINA RESULT:      -7.3      3.506      8.502
REMARK  Name = 
REMARK  11 active torsions:
REMARK  status: ('A' for Active; 'I' for Inactive)
REMARK    1  A    between atoms: C_1  and  C_2
REMARK    2  A    between atoms: C_4  and  C_5
REMARK    3  A    between atoms: C_8  and  C_9
REMARK    4  A    between atoms: C_9  and  N_10
REMARK    5  A    between atoms: N_10  and  C_11
REMARK    6  A    between atoms: C_11  and  C_12
REMARK    7  A    between atoms: C_12  and  N_13
REMARK    8  A    between atoms: N_13  and  C_14
REMARK    9  A    between atoms: N_13  and  C_15
REMARK   10  A    between atoms: N_18  and  C_19
REMARK   11  A    between atoms: C_26  and  O_27
REMARK                            x       y       z     vdW  Elec       q    Type
REMARK                         _______ _______ _______ _____ _____    ______ ____
ROOT
ATOM      1  N   UNL     1      -0.124  11.282  19.056  0.00  0.00    +0.000 N 
ATOM      2  C   UNL     1       0.260  12.628  18.806  0.00  0.00    +0.000 C 
ATOM      3  O   UNL     1      -0.543  13.460  18.398  0.00  0.00    +0.000 OA
ATOM      4  N   UNL     1       1.562  12.943  19.078  0.00  0.00    +0.000 N 
ATOM      5  H   UNL     1       2.245  12.208  19.003  0.00  0.00    +0.000 HD
ENDROOT
BRANCH   4   6
ATOM      6  C   UNL     1       2.127  14.251  19.090  0.00  0.00    +0.000 A 
ATOM      7  C   UNL     1       2.771  14.840  17.994  0.00  0.00    +0.000 A 
ATOM      8  C   UNL     1       3.299  16.136  18.087  0.00  0.00    +0.000 A 
ATOM      9  C   UNL     1       3.180  16.861  19.270  0.00  0.00    +0.000 A 
ATOM     10  C   UNL     1       2.526  16.294  20.363  0.00  0.00    +0.000 A 
ATOM     11  C   UNL     1       2.000  15.005  20.269  0.00  0.00    +0.000 A 
ATOM     12 CL   UNL     1       1.208  14.337  21.657  0.00  0.00    +0.000 Cl
ENDBRANCH   4   6
BRANCH   1  13
ATOM     13  C   UNL     1       0.666  10.276  19.860  0.00  0.00    +0.000 C 
BRANCH  13  21
ATOM     14  C   UNL     1       5.538   4.158  17.551  0.00  0.00    +0.000 C 
ATOM     15  C   UNL     1       4.468   5.063  18.102  0.00  0.00    +0.000 A 
ATOM     16  C   UNL     1       3.730   4.674  19.208  0.00  0.00    +0.000 A 
ATOM     17  C   UNL     1       2.754   5.520  19.774  0.00  0.00    +0.000 A 
ATOM     18  C   UNL     1       1.966   4.928  20.912  0.00  0.00    +0.000 C 
ATOM     19  C   UNL     1       2.510   6.840  19.235  0.00  0.00    +0.000 A 
ATOM     20  C   UNL     1       1.637   7.864  19.782  0.00  0.00    +0.000 A 
ATOM     21  C   UNL     1       1.420   9.126  19.157  0.00  0.00    +0.000 A 
ATOM     22  C   UNL     1       2.122   9.283  17.974  0.00  0.00    +0.000 A 
ATOM     23  N   UNL     1       2.985   8.375  17.449  0.00  0.00    +0.000 NA
ATOM     24  C   UNL     1       3.201   7.196  18.064  0.00  0.00    +0.000 A 
ATOM     25  C   UNL     1       4.174   6.320  17.533  0.00  0.00    +0.000 A 
BRANCH  22  26
ATOM     26  O   UNL     1       2.073  10.442  17.254  0.00  0.00    +0.000 OA
ATOM     27  H   UNL     1       2.938  10.592  16.849  0.00  0.00    +0.000 HD
ENDBRANCH  22  26
ENDBRANCH  13  21
ENDBRANCH   1  13
BRANCH   1  28
ATOM     28  C   UNL     1      -1.605  11.219  19.083  0.00  0.00    +0.000 C 
BRANCH  28  29
ATOM     29  C   UNL     1      -2.255  10.454  17.944  0.00  0.00    +0.000 C 
BRANCH  29  30
ATOM     30  N   UNL     1      -2.812  11.233  16.828  0.00  0.00    +0.000 NA
ATOM     31  C   UNL     1      -2.745  10.493  15.563  0.00  0.00    +0.000 C 
ATOM     32  C   UNL     1      -4.210  11.513  17.175  0.00  0.00    +0.000 C 
ENDBRANCH  29  30
ENDBRANCH  28  29
ENDBRANCH   1  28
TORSDOF 7
ENDMDL
MODEL 6
REMARK VINA RESULT:      -7.2      3.161      9.246
REMARK  Name = 
REMARK  11 active torsions:
REMARK  status: ('A' for Active; 'I' for Inactive)
REMARK    1  A    between atoms: C_1  and  C_2
REMARK    2  A    between atoms: C_4  and  C_5
REMARK    3  A    between atoms: C_8  and  C_9
REMARK    4  A    between atoms: C_9  and  N_10
REMARK    5  A    between atoms: N_10  and  C_11
REMARK    6  A    between atoms: C_11  and  C_12
REMARK    7  A    between atoms: C_12  and  N_13
REMARK    8  A    between atoms: N_13  and  C_14
REMARK    9  A    between atoms: N_13  and  C_15
REMARK   10  A    between atoms: N_18  and  C_19
REMARK   11  A    between atoms: C_26  and  O_27
REMARK                            x       y       z     vdW  Elec       q    Type
REMARK                         _______ _______ _______ _____ _____    ______ ____
ROOT
ATOM      1  N   UNL     1      -0.370  10.989  19.716  0.00  0.00    +0.000 N 
ATOM      2  C   UNL     1      -0.962  12.124  20.335  0.00  0.00    +0.000 C 
ATOM      3  O   UNL     1      -2.112  12.467  20.083  0.00  0.00    +0.000 OA
ATOM      4  N   UNL     1      -0.187  12.785  21.246  0.00  0.00    +0.000 N 
ATOM      5  H   UNL     1       0.811  12.748  21.124  0.00  0.00    +0.000 HD
ENDROOT
BRANCH   4   6
ATOM      6  C   UNL     1      -0.619  13.821  22.125  0.00  0.00    +0.000 A 
ATOM      7  C   UNL     1      -1.247  13.597  23.356  0.00  0.00    +0.000 A 
ATOM      8  C   UNL     1      -1.639  14.673  24.166  0.00  0.00    +0.000 A 
ATOM      9  C   UNL     1      -1.398  15.983  23.759  0.00  0.00    +0.000 A 
ATOM     10  C   UNL     1      -0.756  16.220  22.545  0.00  0.00    +0.000 A 
ATOM     11  C   UNL     1      -0.366  15.149  21.741  0.00  0.00    +0.000 A 
ATOM     12 CL   UNL     1       0.415  15.493  20.233  0.00  0.00    +0.000 Cl
ENDBRANCH   4   6
BRANCH   1  13
ATOM     13  C   UNL     1       0.881  10.284  20.183  0.00  0.00    +0.000 C 
BRANCH  13  21
ATOM     14  C   UNL     1       5.186   4.106  17.052  0.00  0.00    +0.000 C 
ATOM     15  C   UNL     1       4.233   5.023  17.772  0.00  0.00    +0.000 A 
ATOM     16  C   UNL     1       3.646   4.622  18.961  0.00  0.00    +0.000 A 
ATOM     17  C   UNL     1       2.786   5.477  19.681  0.00  0.00    +0.000 A 
ATOM     18  C   UNL     1       2.147   4.873  20.903  0.00  0.00    +0.000 C 
ATOM     19  C   UNL     1       2.510   6.819  19.216  0.00  0.00    +0.000 A 
ATOM     20  C   UNL     1       1.756   7.850  19.906  0.00  0.00    +0.000 A 
ATOM     21  C   UNL     1       1.492   9.135  19.352  0.00  0.00    +0.000 A 
ATOM     22  C   UNL     1       2.026   9.308  18.085  0.00  0.00    +0.000 A 
ATOM     23  N   UNL     1       2.778   8.393  17.420  0.00  0.00    +0.000 NA
ATOM     24  C   UNL     1       3.040   7.190  17.969  0.00  0.00    +0.000 A 
ATOM     25  C   UNL     1       3.901   6.304  17.283  0.00  0.00    +0.000 A 
BRANCH  22  26
ATOM     26  O   UNL     1       1.913  10.489  17.409  0.00  0.00    +0.000 OA
ATOM     27  H   UNL     1       2.797  10.859  17.281  0.00  0.00    +0.000 HD
ENDBRANCH  22  26
ENDBRANCH  13  21
ENDBRANCH   1  13
BRANCH   1  28
ATOM     28  C   UNL     1      -1.447  10.193  19.079  0.00  0.00    +0.000 C 
BRANCH  28  29
ATOM     29  C   UNL     1      -1.565  10.327  17.571  0.00  0.00    +0.000 C 
BRANCH  29  30
ATOM     30  N   UNL     1      -2.850   9.968  16.952  0.00  0.00    +0.000 NA
ATOM     31  C   UNL     1      -3.975  10.647  17.605  0.00  0.00    +0.000 C 
ATOM     32  C   UNL     1      -2.761  10.377  15.546  0.00  0.00    +0.000 C 
ENDBRANCH  29  30
ENDBRANCH  28  29
ENDBRANCH   1  28
TORSDOF 7
ENDMDL
MODEL 7
REMARK VINA RESULT:      -7.1      3.640      9.291
REMARK  Name = 
REMARK  11 active torsions:
REMARK  status: ('A' for Active; 'I' for Inactive)
REMARK    1  A    between atoms: C_1  and  C_2
REMARK    2  A    between atoms: C_4  and  C_5
REMARK    3  A    between atoms: C_8  and  C_9
REMARK    4  A    between atoms: C_9  and  N_10
REMARK    5  A    between atoms: N_10  and  C_11
REMARK    6  A    between atoms: C_11  and  C_12
REMARK    7  A    between atoms: C_12  and  N_13
REMARK    8  A    between atoms: N_13  and  C_14
REMARK    9  A    between atoms: N_13  and  C_15
REMARK   10  A    between atoms: N_18  and  C_19
REMARK   11  A    between atoms: C_26  and  O_27
REMARK                            x       y       z     vdW  Elec       q    Type
REMARK                         _______ _______ _______ _____ _____    ______ ____
ROOT
ATOM      1  N   UNL     1       0.606  11.104  19.230  0.00  0.00    +0.000 N 
ATOM      2  C   UNL     1      -0.712  11.634  19.284  0.00  0.00    +0.000 C 
ATOM      3  O   UNL     1      -0.967  12.662  19.903  0.00  0.00    +0.000 OA
ATOM      4  N   UNL     1      -1.665  10.951  18.581  0.00  0.00    +0.000 N 
ATOM      5  H   UNL     1      -1.530   9.962  18.453  0.00  0.00    +0.000 HD
ENDROOT
BRANCH   4   6
ATOM      6  C   UNL     1      -2.998  11.385  18.329  0.00  0.00    +0.000 A 
ATOM      7  C   UNL     1      -3.828  11.978  19.289  0.00  0.00    +0.000 A 
ATOM      8  C   UNL     1      -5.130  12.381  18.960  0.00  0.00    +0.000 A 
ATOM      9  C   UNL     1      -5.614  12.206  17.665  0.00  0.00    +0.000 A 
ATOM     10  C   UNL     1      -4.793  11.634  16.695  0.00  0.00    +0.000 A 
ATOM     11  C   UNL     1      -3.498  11.234  17.024  0.00  0.00    +0.000 A 
ATOM     12 CL   UNL     1      -2.519  10.515  15.788  0.00  0.00    +0.000 Cl
ENDBRANCH   4   6
BRANCH   1  13
ATOM     13  C   UNL     1       1.099  10.067  18.249  0.00  0.00    +0.000 C 
BRANCH  13  21
ATOM     14  C   UNL     1       4.376   2.704  19.496  0.00  0.00    +0.000 C 
ATOM     15  C   UNL     1       4.026   4.114  19.099  0.00  0.00    +0.000 A 
ATOM     16  C   UNL     1       4.535   4.655  17.930  0.00  0.00    +0.000 A 
ATOM     17  C   UNL     1       4.188   5.956  17.511  0.00  0.00    +0.000 A 
ATOM     18  C   UNL     1       4.891   6.446  16.272  0.00  0.00    +0.000 C 
ATOM     19  C   UNL     1       3.261   6.762  18.274  0.00  0.00    +0.000 A 
ATOM     20  C   UNL     1       2.713   8.056  17.907  0.00  0.00    +0.000 A 
ATOM     21  C   UNL     1       1.837   8.805  18.745  0.00  0.00    +0.000 A 
ATOM     22  C   UNL     1       1.558   8.179  19.948  0.00  0.00    +0.000 A 
ATOM     23  N   UNL     1       2.006   6.950  20.315  0.00  0.00    +0.000 NA
ATOM     24  C   UNL     1       2.813   6.242  19.501  0.00  0.00    +0.000 A 
ATOM     25  C   UNL     1       3.183   4.932  19.881  0.00  0.00    +0.000 A 
BRANCH  22  26
ATOM     26  O   UNL     1       0.704   8.723  20.864  0.00  0.00    +0.000 OA
ATOM     27  H   UNL     1       0.944   8.399  21.743  0.00  0.00    +0.000 HD
ENDBRANCH  22  26
ENDBRANCH  13  21
ENDBRANCH   1  13
BRANCH   1  28
ATOM     28  C   UNL     1       1.546  12.149  19.701  0.00  0.00    +0.000 C 
BRANCH  28  29
ATOM     29  C   UNL     1       2.248  12.945  18.616  0.00  0.00    +0.000 C 
BRANCH  29  30
ATOM     30  N   UNL     1       2.837  14.241  18.991  0.00  0.00    +0.000 NA
ATOM     31  C   UNL     1       4.073  14.510  18.248  0.00  0.00    +0.000 C 
ATOM     32  C   UNL     1       1.829  15.260  18.680  0.00  0.00    +0.000 C 
ENDBRANCH  29  30
ENDBRANCH  28  29
ENDBRANCH   1  28
TORSDOF 7
ENDMDL
MODEL 8
REMARK VINA RESULT:      -7.1      3.190      9.220
REMARK  Name = 
REMARK  11 active torsions:
REMARK  status: ('A' for Active; 'I' for Inactive)
REMARK    1  A    between atoms: C_1  and  C_2
REMARK    2  A    between atoms: C_4  and  C_5
REMARK    3  A    between atoms: C_8  and  C_9
REMARK    4  A    between atoms: C_9  and  N_10
REMARK    5  A    between atoms: N_10  and  C_11
REMARK    6  A    between atoms: C_11  and  C_12
REMARK    7  A    between atoms: C_12  and  N_13
REMARK    8  A    between atoms: N_13  and  C_14
REMARK    9  A    between atoms: N_13  and  C_15
REMARK   10  A    between atoms: N_18  and  C_19
REMARK   11  A    between atoms: C_26  and  O_27
REMARK                            x       y       z     vdW  Elec       q    Type
REMARK                         _______ _______ _______ _____ _____    ______ ____
ROOT
ATOM      1  N   UNL     1      -0.314  10.725  19.599  0.00  0.00    +0.000 N 
ATOM      2  C   UNL     1      -0.793  11.945  20.149  0.00  0.00    +0.000 C 
ATOM      3  O   UNL     1      -1.884  12.408  19.834  0.00  0.00    +0.000 OA
ATOM      4  N   UNL     1       0.017  12.551  21.068  0.00  0.00    +0.000 N 
ATOM      5  H   UNL     1       1.009  12.393  20.991  0.00  0.00    +0.000 HD
ENDROOT
BRANCH   4   6
ATOM      6  C   UNL     1      -0.324  13.665  21.888  0.00  0.00    +0.000 A 
ATOM      7  C   UNL     1       0.074  14.983  21.630  0.00  0.00    +0.000 A 
ATOM      8  C   UNL     1      -0.307  16.026  22.486  0.00  0.00    +0.000 A 
ATOM      9  C   UNL     1      -1.098  15.766  23.603  0.00  0.00    +0.000 A 
ATOM     10  C   UNL     1      -1.517  14.462  23.861  0.00  0.00    +0.000 A 
ATOM     11  C   UNL     1      -1.138  13.425  23.008  0.00  0.00    +0.000 A 
ATOM     12 CL   UNL     1      -1.671  11.819  23.378  0.00  0.00    +0.000 Cl
ENDBRANCH   4   6
BRANCH   1  13
ATOM     13  C   UNL     1       0.827   9.900  20.146  0.00  0.00    +0.000 C 
BRANCH  13  21
ATOM     14  C   UNL     1       5.696   4.335  16.708  0.00  0.00    +0.000 C 
ATOM     15  C   UNL     1       4.655   5.117  17.465  0.00  0.00    +0.000 A 
ATOM     16  C   UNL     1       4.078   4.585  18.606  0.00  0.00    +0.000 A 
ATOM     17  C   UNL     1       3.134   5.313  19.360  0.00  0.00    +0.000 A 
ATOM     18  C   UNL     1       2.522   4.573  20.519  0.00  0.00    +0.000 C 
ATOM     19  C   UNL     1       2.758   6.658  18.983  0.00  0.00    +0.000 A 
ATOM     20  C   UNL     1       1.906   7.572  19.723  0.00  0.00    +0.000 A 
ATOM     21  C   UNL     1       1.549   8.868  19.253  0.00  0.00    +0.000 A 
ATOM     22  C   UNL     1       2.093   9.174  18.017  0.00  0.00    +0.000 A 
ATOM     23  N   UNL     1       2.932   8.374  17.310  0.00  0.00    +0.000 NA
ATOM     24  C   UNL     1       3.282   7.160  17.780  0.00  0.00    +0.000 A 
ATOM     25  C   UNL     1       4.228   6.399  17.057  0.00  0.00    +0.000 A 
BRANCH  22  26
ATOM     26  O   UNL     1       1.897  10.388  17.422  0.00  0.00    +0.000 OA
ATOM     27  H   UNL     1       2.667  10.594  16.875  0.00  0.00    +0.000 HD
ENDBRANCH  22  26
ENDBRANCH  13  21
ENDBRANCH   1  13
BRANCH   1  28
ATOM     28  C   UNL     1      -1.451  10.033  18.945  0.00  0.00    +0.000 C 
BRANCH  28  29
ATOM     29  C   UNL     1      -1.515  10.149  17.433  0.00  0.00    +0.000 C 
BRANCH  29  30
ATOM     30  N   UNL     1      -2.830   9.999  16.791  0.00  0.00    +0.000 NA
ATOM     31  C   UNL     1      -3.915  10.461  17.664  0.00  0.00    +0.000 C 
ATOM     32  C   UNL     1      -2.788  10.805  15.567  0.00  0.00    +0.000 C 
ENDBRANCH  29  30
ENDBRANCH  28  29
ENDBRANCH   1  28
TORSDOF 7
ENDMDL
MODEL 9
REMARK VINA RESULT:      -7.0      3.159      8.586
REMARK  Name = 
REMARK  11 active torsions:
REMARK  status: ('A' for Active; 'I' for Inactive)
REMARK    1  A    between atoms: C_1  and  C_2
REMARK    2  A    between atoms: C_4  and  C_5
REMARK    3  A    between atoms: C_8  and  C_9
REMARK    4  A    between atoms: C_9  and  N_10
REMARK    5  A    between atoms: N_10  and  C_11
REMARK    6  A    between atoms: C_11  and  C_12
REMARK    7  A    between atoms: C_12  and  N_13
REMARK    8  A    between atoms: N_13  and  C_14
REMARK    9  A    between atoms: N_13  and  C_15
REMARK   10  A    between atoms: N_18  and  C_19
REMARK   11  A    between atoms: C_26  and  O_27
REMARK                            x       y       z     vdW  Elec       q    Type
REMARK                         _______ _______ _______ _____ _____    ______ ____
ROOT
ATOM      1  N   UNL     1      -0.035  11.225  19.479  0.00  0.00    +0.000 N 
ATOM      2  C   UNL     1       0.263  12.612  19.573  0.00  0.00    +0.000 C 
ATOM      3  O   UNL     1      -0.538  13.467  19.214  0.00  0.00    +0.000 OA
ATOM      4  N   UNL     1       1.476  12.931  20.115  0.00  0.00    +0.000 N 
ATOM      5  H   UNL     1       2.225  12.266  20.008  0.00  0.00    +0.000 HD
ENDROOT
BRANCH   4   6
ATOM      6  C   UNL     1       1.917  14.235  20.485  0.00  0.00    +0.000 A 
ATOM      7  C   UNL     1       1.572  14.871  21.683  0.00  0.00    +0.000 A 
ATOM      8  C   UNL     1       2.052  16.156  21.975  0.00  0.00    +0.000 A 
ATOM      9  C   UNL     1       2.889  16.815  21.077  0.00  0.00    +0.000 A 
ATOM     10  C   UNL     1       3.256  16.186  19.889  0.00  0.00    +0.000 A 
ATOM     11  C   UNL     1       2.779  14.907  19.600  0.00  0.00    +0.000 A 
ATOM     12 CL   UNL     1       3.250  14.170  18.105  0.00  0.00    +0.000 Cl
ENDBRANCH   4   6
BRANCH   1  13
ATOM     13  C   UNL     1       0.708  10.114  20.183  0.00  0.00    +0.000 C 
BRANCH  13  21
ATOM     14  C   UNL     1       5.401   4.147  17.205  0.00  0.00    +0.000 C 
ATOM     15  C   UNL     1       4.383   5.018  17.893  0.00  0.00    +0.000 A 
ATOM     16  C   UNL     1       3.778   4.590  19.063  0.00  0.00    +0.000 A 
ATOM     17  C   UNL     1       2.855   5.404  19.753  0.00  0.00    +0.000 A 
ATOM     18  C   UNL     1       2.207   4.771  20.955  0.00  0.00    +0.000 C 
ATOM     19  C   UNL     1       2.530   6.730  19.277  0.00  0.00    +0.000 A 
ATOM     20  C   UNL     1       1.706   7.725  19.940  0.00  0.00    +0.000 A 
ATOM     21  C   UNL     1       1.399   8.996  19.374  0.00  0.00    +0.000 A 
ATOM     22  C   UNL     1       1.964   9.193  18.125  0.00  0.00    +0.000 A 
ATOM     23  N   UNL     1       2.780   8.314  17.486  0.00  0.00    +0.000 NA
ATOM     24  C   UNL     1       3.082   7.126  18.046  0.00  0.00    +0.000 A 
ATOM     25  C   UNL     1       4.006   6.281  17.390  0.00  0.00    +0.000 A 
BRANCH  22  26
ATOM     26  O   UNL     1       1.817  10.366  17.443  0.00  0.00    +0.000 OA
ATOM     27  H   UNL     1       2.646  10.568  16.990  0.00  0.00    +0.000 HD
ENDBRANCH  22  26
ENDBRANCH  13  21
ENDBRANCH   1  13
BRANCH   1  28
ATOM     28  C   UNL     1      -1.492  11.078  19.246  0.00  0.00    +0.000 C 
BRANCH  28  29
ATOM     29  C   UNL     1      -1.889  10.371  17.963  0.00  0.00    +0.000 C 
BRANCH  29  30
ATOM     30  N   UNL     1      -2.568  11.166  16.927  0.00  0.00    +0.000 NA
ATOM     31  C   UNL     1      -2.670  10.432  15.661  0.00  0.00    +0.000 C 
ATOM     32  C   UNL     1      -3.906  11.468  17.446  0.00  0.00    +0.000 C 
ENDBRANCH  29  30
ENDBRANCH  28  29
ENDBRANCH   1  28
TORSDOF 7
ENDMDL
