MODEL 1
REMARK VINA RESULT:      -8.3      0.000      0.000
REMARK  Name = 
REMARK  14 active torsions:
REMARK  status: ('A' for Active; 'I' for Inactive)
REMARK    1  A    between atoms: C_1  and  C_2
REMARK    2  A    between atoms: C_2  and  C_3
REMARK    3  A    between atoms: C_5  and  C_6
REMARK    4  A    between atoms: C_6  and  C_7
REMARK    5  A    between atoms: C_9  and  O_10
REMARK    6  A    between atoms: C_12  and  O_13
REMARK    7  A    between atoms: O_13  and  C_14
REMARK    8  A    between atoms: C_14  and  C_15
REMARK    9  A    between atoms: C_15  and  O_16
REMARK   10  A    between atoms: C_15  and  C_17
REMARK   11  A    between atoms: C_17  and  O_18
REMARK   12  A    between atoms: O_18  and  C_19
REMARK   13  A    between atoms: C_23  and  O_24
REMARK   14  A    between atoms: C_25  and  N_26
REMARK                            x       y       z     vdW  Elec       q    Type
REMARK                         _______ _______ _______ _____ _____    ______ ____
ROOT
ATOM      1  C   UNL     1       8.612   8.405  18.084  0.00  0.00    +0.000 C 
ENDROOT
BRANCH   1   2
ATOM      2  O   UNL     1       8.648   7.506  19.201  0.00  0.00    +0.000 OA
ATOM      3  H   UNL     1       9.220   6.752  18.969  0.00  0.00    +0.000 HD
ENDBRANCH   1   2
BRANCH   1   4
ATOM      4  C   UNL     1       8.560   9.867  18.532  0.00  0.00    +0.000 C 
BRANCH   4   5
ATOM      5  O   UNL     1       9.846  10.330  18.907  0.00  0.00    +0.000 OA
BRANCH   5  11
ATOM      6  C   UNL     1       9.925  12.741  19.639  0.00  0.00    +0.000 A 
ATOM      7  C   UNL     1      10.365  14.027  19.248  0.00  0.00    +0.000 A 
ATOM      8  C   UNL     1      11.014  14.266  18.025  0.00  0.00    +0.000 A 
ATOM      9  C   UNL     1      11.220  13.188  17.181  0.00  0.00    +0.000 A 
ATOM     10  C   UNL     1      10.789  11.907  17.537  0.00  0.00    +0.000 A 
ATOM     11  C   UNL     1      10.137  11.659  18.761  0.00  0.00    +0.000 A 
BRANCH   8  12
ATOM     12  C   UNL     1      11.488  15.637  17.642  0.00  0.00    +0.000 C 
ATOM     13  C   UNL     1      12.333  16.479  18.558  0.00  0.00    +0.000 C 
ATOM     14  O   UNL     1      11.166  16.070  16.529  0.00  0.00    +0.000 OA
ENDBRANCH   8  12
BRANCH   6  16
ATOM     15  C   UNL     1       9.661  13.953  21.826  0.00  0.00    +0.000 C 
ATOM     16  C   UNL     1       9.340  12.690  21.039  0.00  0.00    +0.000 C 
ENDBRANCH   6  16
BRANCH   9  17
ATOM     17  O   UNL     1      11.852  13.289  15.964  0.00  0.00    +0.000 OA
ATOM     18  H   UNL     1      12.092  12.380  15.674  0.00  0.00    +0.000 HD
ENDBRANCH   9  17
ENDBRANCH   5  11
ENDBRANCH   4   5
ENDBRANCH   1   4
BRANCH   1  19
ATOM     19  C   UNL     1       7.354   8.077  17.277  0.00  0.00    +0.000 C 
BRANCH  19  20
ATOM     20  O   UNL     1       7.504   6.856  16.543  0.00  0.00    +0.000 OA
BRANCH  20  21
ATOM     21  C   UNL     1       6.573   5.894  16.836  0.00  0.00    +0.000 A 
ATOM     22  C   UNL     1       5.790   5.436  15.767  0.00  0.00    +0.000 A 
ATOM     23  C   UNL     1       4.705   4.571  15.988  0.00  0.00    +0.000 A 
ATOM     24  C   UNL     1       4.451   4.105  17.279  0.00  0.00    +0.000 A 
ATOM     25  C   UNL     1       3.208   3.462  17.748  0.00  0.00    +0.000 A 
ATOM     26  C   UNL     1       3.021   3.272  19.071  0.00  0.00    +0.000 A 
ATOM     27  C   UNL     1       4.306   2.847  19.669  0.00  0.00    +0.000 A 
ATOM     28  O   UNL     1       4.458   1.754  20.201  0.00  0.00    +0.000 OA
ATOM     29  O   UNL     1       5.327   3.775  19.537  0.00  0.00    +0.000 OA
ATOM     30  C   UNL     1       5.373   4.417  18.285  0.00  0.00    +0.000 A 
ATOM     31  C   UNL     1       6.375   5.353  18.101  0.00  0.00    +0.000 A 
BRANCH  26  32
ATOM     32  N   UNL     1       2.638   4.479  19.827  0.00  0.00    +0.000 N 
ATOM     33  O   UNL     1       2.613   4.363  21.061  0.00  0.00    +0.000 OA
ATOM     34  O   UNL     1       2.403   5.536  19.222  0.00  0.00    +0.000 OA
ENDBRANCH  26  32
BRANCH  25  35
ATOM     35  O   UNL     1       2.352   2.895  16.822  0.00  0.00    +0.000 OA
ATOM     36  H   UNL     1       1.690   3.554  16.546  0.00  0.00    +0.000 HD
ENDBRANCH  25  35
ENDBRANCH  20  21
ENDBRANCH  19  20
ENDBRANCH   1  19
TORSDOF 12
ENDMDL
MODEL 2
REMARK VINA RESULT:      -8.0      7.723     10.208
REMARK  Name = 
REMARK  14 active torsions:
REMARK  status: ('A' for Active; 'I' for Inactive)
REMARK    1  A    between atoms: C_1  and  C_2
REMARK    2  A    between atoms: C_2  and  C_3
REMARK    3  A    between atoms: C_5  and  C_6
REMARK    4  A    between atoms: C_6  and  C_7
REMARK    5  A    between atoms: C_9  and  O_10
REMARK    6  A    between atoms: C_12  and  O_13
REMARK    7  A    between atoms: O_13  and  C_14
REMARK    8  A    between atoms: C_14  and  C_15
REMARK    9  A    between atoms: C_15  and  O_16
REMARK   10  A    between atoms: C_15  and  C_17
REMARK   11  A    between atoms: C_17  and  O_18
REMARK   12  A    between atoms: O_18  and  C_19
REMARK   13  A    between atoms: C_23  and  O_24
REMARK   14  A    between atoms: C_25  and  N_26
REMARK                            x       y       z     vdW  Elec       q    Type
REMARK                         _______ _______ _______ _____ _____    ______ ____
ROOT
ATOM      1  C   UNL     1       1.099   9.711  21.919  0.00  0.00    +0.000 C 
ENDROOT
BRANCH   1   2
ATOM      2  O   UNL     1       2.170   9.287  22.775  0.00  0.00    +0.000 OA
ATOM      3  H   UNL     1       1.828   9.224  23.684  0.00  0.00    +0.000 HD
ENDBRANCH   1   2
BRANCH   1   4
ATOM      4  C   UNL     1      -0.176  10.011  22.709  0.00  0.00    +0.000 C 
BRANCH   4   5
ATOM      5  O   UNL     1      -0.377  11.407  22.842  0.00  0.00    +0.000 OA
BRANCH   5  11
ATOM      6  C   UNL     1      -2.014  12.470  21.246  0.00  0.00    +0.000 A 
ATOM      7  C   UNL     1      -3.348  12.922  21.131  0.00  0.00    +0.000 A 
ATOM      8  C   UNL     1      -4.265  12.854  22.193  0.00  0.00    +0.000 A 
ATOM      9  C   UNL     1      -3.826  12.320  23.393  0.00  0.00    +0.000 A 
ATOM     10  C   UNL     1      -2.510  11.872  23.538  0.00  0.00    +0.000 A 
ATOM     11  C   UNL     1      -1.585  11.938  22.479  0.00  0.00    +0.000 A 
BRANCH   8  12
ATOM     12  C   UNL     1      -5.681  13.324  22.040  0.00  0.00    +0.000 C 
ATOM     13  C   UNL     1      -6.797  12.396  21.642  0.00  0.00    +0.000 C 
ATOM     14  O   UNL     1      -5.921  14.518  22.258  0.00  0.00    +0.000 OA
ENDBRANCH   8  12
BRANCH   6  16
ATOM     15  C   UNL     1      -1.173  11.193  19.250  0.00  0.00    +0.000 C 
ATOM     16  C   UNL     1      -1.224  12.544  19.950  0.00  0.00    +0.000 C 
ENDBRANCH   6  16
BRANCH   9  17
ATOM     17  O   UNL     1      -4.628  12.189  24.502  0.00  0.00    +0.000 OA
ATOM     18  H   UNL     1      -4.621  11.241  24.766  0.00  0.00    +0.000 HD
ENDBRANCH   9  17
ENDBRANCH   5  11
ENDBRANCH   4   5
ENDBRANCH   1   4
BRANCH   1  19
ATOM     19  C   UNL     1       0.829   8.574  20.932  0.00  0.00    +0.000 C 
BRANCH  19  20
ATOM     20  O   UNL     1       1.438   8.826  19.660  0.00  0.00    +0.000 OA
BRANCH  20  21
ATOM     21  C   UNL     1       2.215   7.802  19.184  0.00  0.00    +0.000 A 
ATOM     22  C   UNL     1       2.901   8.043  17.985  0.00  0.00    +0.000 A 
ATOM     23  C   UNL     1       3.596   7.011  17.333  0.00  0.00    +0.000 A 
ATOM     24  C   UNL     1       3.663   5.749  17.925  0.00  0.00    +0.000 A 
ATOM     25  C   UNL     1       4.064   4.492  17.262  0.00  0.00    +0.000 A 
ATOM     26  C   UNL     1       3.864   3.318  17.896  0.00  0.00    +0.000 A 
ATOM     27  C   UNL     1       4.189   3.497  19.328  0.00  0.00    +0.000 A 
ATOM     28  O   UNL     1       5.096   2.888  19.880  0.00  0.00    +0.000 OA
ATOM     29  O   UNL     1       3.404   4.441  19.973  0.00  0.00    +0.000 OA
ATOM     30  C   UNL     1       3.143   5.598  19.215  0.00  0.00    +0.000 A 
ATOM     31  C   UNL     1       2.366   6.572  19.815  0.00  0.00    +0.000 A 
BRANCH  26  32
ATOM     32  N   UNL     1       2.470   2.834  17.887  0.00  0.00    +0.000 N 
ATOM     33  O   UNL     1       2.227   1.861  18.614  0.00  0.00    +0.000 OA
ATOM     34  O   UNL     1       1.618   3.424  17.204  0.00  0.00    +0.000 OA
ENDBRANCH  26  32
BRANCH  25  35
ATOM     35  O   UNL     1       4.810   4.553  16.099  0.00  0.00    +0.000 OA
ATOM     36  H   UNL     1       4.297   4.168  15.365  0.00  0.00    +0.000 HD
ENDBRANCH  25  35
ENDBRANCH  20  21
ENDBRANCH  19  20
ENDBRANCH   1  19
TORSDOF 12
ENDMDL
MODEL 3
REMARK VINA RESULT:      -8.0      2.839     10.941
REMARK  Name = 
REMARK  14 active torsions:
REMARK  status: ('A' for Active; 'I' for Inactive)
REMARK    1  A    between atoms: C_1  and  C_2
REMARK    2  A    between atoms: C_2  and  C_3
REMARK    3  A    between atoms: C_5  and  C_6
REMARK    4  A    between atoms: C_6  and  C_7
REMARK    5  A    between atoms: C_9  and  O_10
REMARK    6  A    between atoms: C_12  and  O_13
REMARK    7  A    between atoms: O_13  and  C_14
REMARK    8  A    between atoms: C_14  and  C_15
REMARK    9  A    between atoms: C_15  and  O_16
REMARK   10  A    between atoms: C_15  and  C_17
REMARK   11  A    between atoms: C_17  and  O_18
REMARK   12  A    between atoms: O_18  and  C_19
REMARK   13  A    between atoms: C_23  and  O_24
REMARK   14  A    between atoms: C_25  and  N_26
REMARK                            x       y       z     vdW  Elec       q    Type
REMARK                         _______ _______ _______ _____ _____    ______ ____
ROOT
ATOM      1  C   UNL     1       7.512   7.518  17.289  0.00  0.00    +0.000 C 
ENDROOT
BRANCH   1   2
ATOM      2  O   UNL     1       6.130   7.596  16.912  0.00  0.00    +0.000 OA
ATOM      3  H   UNL     1       6.067   8.106  16.084  0.00  0.00    +0.000 HD
ENDBRANCH   1   2
BRANCH   1   4
ATOM      4  C   UNL     1       7.714   6.659  18.538  0.00  0.00    +0.000 C 
BRANCH   4   5
ATOM      5  O   UNL     1       7.468   5.292  18.262  0.00  0.00    +0.000 OA
BRANCH   5  11
ATOM      6  C   UNL     1       5.618   4.236  16.914  0.00  0.00    +0.000 A 
ATOM      7  C   UNL     1       4.248   3.890  16.953  0.00  0.00    +0.000 A 
ATOM      8  C   UNL     1       3.430   4.158  18.064  0.00  0.00    +0.000 A 
ATOM      9  C   UNL     1       4.006   4.789  19.153  0.00  0.00    +0.000 A 
ATOM     10  C   UNL     1       5.356   5.150  19.140  0.00  0.00    +0.000 A 
ATOM     11  C   UNL     1       6.182   4.886  18.031  0.00  0.00    +0.000 A 
BRANCH   8  12
ATOM     12  C   UNL     1       1.983   3.763  18.087  0.00  0.00    +0.000 C 
ATOM     13  C   UNL     1       1.468   2.654  18.962  0.00  0.00    +0.000 C 
ATOM     14  O   UNL     1       1.202   4.387  17.359  0.00  0.00    +0.000 OA
ENDBRANCH   8  12
BRANCH   6  16
ATOM     15  C   UNL     1       6.799   4.938  14.809  0.00  0.00    +0.000 C 
ATOM     16  C   UNL     1       6.337   3.765  15.662  0.00  0.00    +0.000 C 
ENDBRANCH   6  16
BRANCH   9  17
ATOM     17  O   UNL     1       3.316   5.096  20.302  0.00  0.00    +0.000 OA
ATOM     18  H   UNL     1       3.055   6.043  20.251  0.00  0.00    +0.000 HD
ENDBRANCH   9  17
ENDBRANCH   5  11
ENDBRANCH   4   5
ENDBRANCH   1   4
BRANCH   1  19
ATOM     19  C   UNL     1       7.987   8.945  17.571  0.00  0.00    +0.000 C 
BRANCH  19  20
ATOM     20  O   UNL     1       8.742   9.017  18.786  0.00  0.00    +0.000 OA
BRANCH  20  21
ATOM     21  C   UNL     1       9.247  10.259  19.073  0.00  0.00    +0.000 A 
ATOM     22  C   UNL     1       9.553  10.513  20.418  0.00  0.00    +0.000 A 
ATOM     23  C   UNL     1       9.925  11.800  20.841  0.00  0.00    +0.000 A 
ATOM     24  C   UNL     1      10.061  12.820  19.897  0.00  0.00    +0.000 A 
ATOM     25  C   UNL     1      10.132  14.267  20.178  0.00  0.00    +0.000 A 
ATOM     26  C   UNL     1      10.035  15.143  19.156  0.00  0.00    +0.000 A 
ATOM     27  C   UNL     1      10.795  14.608  18.005  0.00  0.00    +0.000 A 
ATOM     28  O   UNL     1      11.772  15.178  17.536  0.00  0.00    +0.000 OA
ATOM     29  O   UNL     1      10.328  13.390  17.536  0.00  0.00    +0.000 OA
ATOM     30  C   UNL     1       9.948  12.483  18.544  0.00  0.00    +0.000 A 
ATOM     31  C   UNL     1       9.477  11.251  18.127  0.00  0.00    +0.000 A 
BRANCH  26  32
ATOM     32  N   UNL     1       8.668  15.349  18.639  0.00  0.00    +0.000 N 
ATOM     33  O   UNL     1       7.745  14.981  19.381  0.00  0.00    +0.000 OA
ATOM     34  O   UNL     1       8.502  15.897  17.539  0.00  0.00    +0.000 OA
ENDBRANCH  26  32
BRANCH  25  35
ATOM     35  O   UNL     1      10.491  14.691  21.444  0.00  0.00    +0.000 OA
ATOM     36  H   UNL     1      10.642  13.915  22.015  0.00  0.00    +0.000 HD
ENDBRANCH  25  35
ENDBRANCH  20  21
ENDBRANCH  19  20
ENDBRANCH   1  19
TORSDOF 12
ENDMDL
MODEL 4
REMARK VINA RESULT:      -7.9      6.659     10.321
REMARK  Name = 
REMARK  14 active torsions:
REMARK  status: ('A' for Active; 'I' for Inactive)
REMARK    1  A    between atoms: C_1  and  C_2
REMARK    2  A    between atoms: C_2  and  C_3
REMARK    3  A    between atoms: C_5  and  C_6
REMARK    4  A    between atoms: C_6  and  C_7
REMARK    5  A    between atoms: C_9  and  O_10
REMARK    6  A    between atoms: C_12  and  O_13
REMARK    7  A    between atoms: O_13  and  C_14
REMARK    8  A    between atoms: C_14  and  C_15
REMARK    9  A    between atoms: C_15  and  O_16
REMARK   10  A    between atoms: C_15  and  C_17
REMARK   11  A    between atoms: C_17  and  O_18
REMARK   12  A    between atoms: O_18  and  C_19
REMARK   13  A    between atoms: C_23  and  O_24
REMARK   14  A    between atoms: C_25  and  N_26
REMARK                            x       y       z     vdW  Elec       q    Type
REMARK                         _______ _______ _______ _____ _____    ______ ____
ROOT
ATOM      1  C   UNL     1       2.560   6.970  19.764  0.00  0.00    +0.000 C 
ENDROOT
BRANCH   1   2
ATOM      2  O   UNL     1       2.216   7.482  18.468  0.00  0.00    +0.000 OA
ATOM      3  H   UNL     1       2.558   6.865  17.796  0.00  0.00    +0.000 HD
ENDBRANCH   1   2
BRANCH   1   4
ATOM      4  C   UNL     1       2.768   5.455  19.742  0.00  0.00    +0.000 C 
BRANCH   4   5
ATOM      5  O   UNL     1       4.146   5.131  19.686  0.00  0.00    +0.000 OA
BRANCH   5  11
ATOM      6  C   UNL     1       4.578   3.714  17.646  0.00  0.00    +0.000 A 
ATOM      7  C   UNL     1       5.252   3.699  16.403  0.00  0.00    +0.000 A 
ATOM      8  C   UNL     1       6.037   4.774  15.954  0.00  0.00    +0.000 A 
ATOM      9  C   UNL     1       6.146   5.883  16.777  0.00  0.00    +0.000 A 
ATOM     10  C   UNL     1       5.498   5.923  18.014  0.00  0.00    +0.000 A 
ATOM     11  C   UNL     1       4.710   4.849  18.472  0.00  0.00    +0.000 A 
BRANCH   8  12
ATOM     12  C   UNL     1       6.727   4.741  14.622  0.00  0.00    +0.000 C 
ATOM     13  C   UNL     1       6.217   3.913  13.475  0.00  0.00    +0.000 C 
ATOM     14  O   UNL     1       7.745   5.428  14.481  0.00  0.00    +0.000 OA
ENDBRANCH   8  12
BRANCH   6  16
ATOM     15  C   UNL     1       2.250   2.773  17.542  0.00  0.00    +0.000 C 
ATOM     16  C   UNL     1       3.706   2.495  17.889  0.00  0.00    +0.000 C 
ENDBRANCH   6  16
BRANCH   9  17
ATOM     17  O   UNL     1       6.875   7.001  16.447  0.00  0.00    +0.000 OA
ATOM     18  H   UNL     1       7.726   6.960  16.939  0.00  0.00    +0.000 HD
ENDBRANCH   9  17
ENDBRANCH   5  11
ENDBRANCH   4   5
ENDBRANCH   1   4
BRANCH   1  19
ATOM     19  C   UNL     1       1.405   7.310  20.708  0.00  0.00    +0.000 C 
BRANCH  19  20
ATOM     20  O   UNL     1       1.668   8.504  21.454  0.00  0.00    +0.000 OA
BRANCH  20  21
ATOM     21  C   UNL     1       0.681   9.452  21.384  0.00  0.00    +0.000 A 
ATOM     22  C   UNL     1       0.345   9.910  20.102  0.00  0.00    +0.000 A 
ATOM     23  C   UNL     1      -0.538  10.990  19.932  0.00  0.00    +0.000 A 
ATOM     24  C   UNL     1      -1.143  11.564  21.051  0.00  0.00    +0.000 A 
ATOM     25  C   UNL     1      -1.831  12.869  21.100  0.00  0.00    +0.000 A 
ATOM     26  C   UNL     1      -2.167  13.394  22.297  0.00  0.00    +0.000 A 
ATOM     27  C   UNL     1      -2.658  12.303  23.167  0.00  0.00    +0.000 A 
ATOM     28  O   UNL     1      -3.802  12.267  23.600  0.00  0.00    +0.000 OA
ATOM     29  O   UNL     1      -1.721  11.310  23.412  0.00  0.00    +0.000 OA
ATOM     30  C   UNL     1      -0.945  10.952  22.293  0.00  0.00    +0.000 A 
ATOM     31  C   UNL     1       0.003   9.963  22.485  0.00  0.00    +0.000 A 
BRANCH  26  32
ATOM     32  N   UNL     1      -1.050  13.998  23.048  0.00  0.00    +0.000 N 
ATOM     33  O   UNL     1      -0.026  14.246  22.395  0.00  0.00    +0.000 OA
ATOM     34  O   UNL     1      -1.188  14.259  24.253  0.00  0.00    +0.000 OA
ENDBRANCH  26  32
BRANCH  25  35
ATOM     35  O   UNL     1      -2.292  13.432  19.924  0.00  0.00    +0.000 OA
ATOM     36  H   UNL     1      -1.935  12.936  19.165  0.00  0.00    +0.000 HD
ENDBRANCH  25  35
ENDBRANCH  20  21
ENDBRANCH  19  20
ENDBRANCH   1  19
TORSDOF 12
ENDMDL
MODEL 5
REMARK VINA RESULT:      -7.9      7.585     10.501
REMARK  Name = 
REMARK  14 active torsions:
REMARK  status: ('A' for Active; 'I' for Inactive)
REMARK    1  A    between atoms: C_1  and  C_2
REMARK    2  A    between atoms: C_2  and  C_3
REMARK    3  A    between atoms: C_5  and  C_6
REMARK    4  A    between atoms: C_6  and  C_7
REMARK    5  A    between atoms: C_9  and  O_10
REMARK    6  A    between atoms: C_12  and  O_13
REMARK    7  A    between atoms: O_13  and  C_14
REMARK    8  A    between atoms: C_14  and  C_15
REMARK    9  A    between atoms: C_15  and  O_16
REMARK   10  A    between atoms: C_15  and  C_17
REMARK   11  A    between atoms: C_17  and  O_18
REMARK   12  A    between atoms: O_18  and  C_19
REMARK   13  A    between atoms: C_23  and  O_24
REMARK   14  A    between atoms: C_25  and  N_26
REMARK                            x       y       z     vdW  Elec       q    Type
REMARK                         _______ _______ _______ _____ _____    ______ ____
ROOT
ATOM      1  C   UNL     1       0.796  10.253  19.232  0.00  0.00    +0.000 C 
ENDROOT
BRANCH   1   2
ATOM      2  O   UNL     1       0.473  10.527  20.604  0.00  0.00    +0.000 OA
ATOM      3  H   UNL     1       1.252  10.320  21.149  0.00  0.00    +0.000 HD
ENDBRANCH   1   2
BRANCH   1   4
ATOM      4  C   UNL     1      -0.453  10.212  18.350  0.00  0.00    +0.000 C 
BRANCH   4   5
ATOM      5  O   UNL     1      -0.997  11.508  18.176  0.00  0.00    +0.000 OA
BRANCH   5  11
ATOM      6  C   UNL     1      -2.923  12.248  19.625  0.00  0.00    +0.000 A 
ATOM      7  C   UNL     1      -4.329  12.390  19.649  0.00  0.00    +0.000 A 
ATOM      8  C   UNL     1      -5.145  12.032  18.563  0.00  0.00    +0.000 A 
ATOM      9  C   UNL     1      -4.530  11.518  17.434  0.00  0.00    +0.000 A 
ATOM     10  C   UNL     1      -3.143  11.359  17.384  0.00  0.00    +0.000 A 
ATOM     11  C   UNL     1      -2.318  11.715  18.468  0.00  0.00    +0.000 A 
BRANCH   8  12
ATOM     12  C   UNL     1      -6.634  12.209  18.607  0.00  0.00    +0.000 C 
ATOM     13  C   UNL     1      -7.458  11.790  19.794  0.00  0.00    +0.000 C 
ATOM     14  O   UNL     1      -7.184  12.725  17.626  0.00  0.00    +0.000 OA
ENDBRANCH   8  12
BRANCH   6  16
ATOM     15  C   UNL     1      -3.091  12.625  22.104  0.00  0.00    +0.000 C 
ATOM     16  C   UNL     1      -2.227  12.789  20.862  0.00  0.00    +0.000 C 
ENDBRANCH   6  16
BRANCH   9  17
ATOM     17  O   UNL     1      -5.216  11.141  16.303  0.00  0.00    +0.000 OA
ATOM     18  H   UNL     1      -5.313  11.936  15.732  0.00  0.00    +0.000 HD
ENDBRANCH   9  17
ENDBRANCH   5  11
ENDBRANCH   4   5
ENDBRANCH   1   4
BRANCH   1  19
ATOM     19  C   UNL     1       1.492   8.892  19.192  0.00  0.00    +0.000 C 
BRANCH  19  20
ATOM     20  O   UNL     1       1.990   8.594  17.883  0.00  0.00    +0.000 OA
BRANCH  20  21
ATOM     21  C   UNL     1       2.866   7.541  17.830  0.00  0.00    +0.000 A 
ATOM     22  C   UNL     1       2.404   6.318  18.337  0.00  0.00    +0.000 A 
ATOM     23  C   UNL     1       3.271   5.221  18.474  0.00  0.00    +0.000 A 
ATOM     24  C   UNL     1       4.591   5.331  18.032  0.00  0.00    +0.000 A 
ATOM     25  C   UNL     1       5.705   4.423  18.370  0.00  0.00    +0.000 A 
ATOM     26  C   UNL     1       6.967   4.782  18.055  0.00  0.00    +0.000 A 
ATOM     27  C   UNL     1       6.955   5.419  16.721  0.00  0.00    +0.000 A 
ATOM     28  O   UNL     1       7.548   4.948  15.758  0.00  0.00    +0.000 OA
ATOM     29  O   UNL     1       6.182   6.568  16.649  0.00  0.00    +0.000 OA
ATOM     30  C   UNL     1       4.960   6.493  17.346  0.00  0.00    +0.000 A 
ATOM     31  C   UNL     1       4.151   7.614  17.304  0.00  0.00    +0.000 A 
BRANCH  26  32
ATOM     32  N   UNL     1       7.569   5.792  18.946  0.00  0.00    +0.000 N 
ATOM     33  O   UNL     1       7.489   5.562  20.162  0.00  0.00    +0.000 OA
ATOM     34  O   UNL     1       8.146   6.777  18.460  0.00  0.00    +0.000 OA
ENDBRANCH  26  32
BRANCH  25  35
ATOM     35  O   UNL     1       5.421   3.147  18.821  0.00  0.00    +0.000 OA
ATOM     36  H   UNL     1       5.116   3.191  19.746  0.00  0.00    +0.000 HD
ENDBRANCH  25  35
ENDBRANCH  20  21
ENDBRANCH  19  20
ENDBRANCH   1  19
TORSDOF 12
ENDMDL
MODEL 6
REMARK VINA RESULT:      -7.9      2.872     10.959
REMARK  Name = 
REMARK  14 active torsions:
REMARK  status: ('A' for Active; 'I' for Inactive)
REMARK    1  A    between atoms: C_1  and  C_2
REMARK    2  A    between atoms: C_2  and  C_3
REMARK    3  A    between atoms: C_5  and  C_6
REMARK    4  A    between atoms: C_6  and  C_7
REMARK    5  A    between atoms: C_9  and  O_10
REMARK    6  A    between atoms: C_12  and  O_13
REMARK    7  A    between atoms: O_13  and  C_14
REMARK    8  A    between atoms: C_14  and  C_15
REMARK    9  A    between atoms: C_15  and  O_16
REMARK   10  A    between atoms: C_15  and  C_17
REMARK   11  A    between atoms: C_17  and  O_18
REMARK   12  A    between atoms: O_18  and  C_19
REMARK   13  A    between atoms: C_23  and  O_24
REMARK   14  A    between atoms: C_25  and  N_26
REMARK                            x       y       z     vdW  Elec       q    Type
REMARK                         _______ _______ _______ _____ _____    ______ ____
ROOT
ATOM      1  C   UNL     1       7.449   7.507  17.995  0.00  0.00    +0.000 C 
ENDROOT
BRANCH   1   2
ATOM      2  O   UNL     1       8.199   6.652  18.870  0.00  0.00    +0.000 OA
ATOM      3  H   UNL     1       7.761   5.783  18.898  0.00  0.00    +0.000 HD
ENDBRANCH   1   2
BRANCH   1   4
ATOM      4  C   UNL     1       7.302   6.902  16.597  0.00  0.00    +0.000 C 
BRANCH   4   5
ATOM      5  O   UNL     1       5.959   6.967  16.153  0.00  0.00    +0.000 OA
BRANCH   5  11
ATOM      6  C   UNL     1       4.965   4.668  16.443  0.00  0.00    +0.000 A 
ATOM      7  C   UNL     1       3.942   3.955  17.109  0.00  0.00    +0.000 A 
ATOM      8  C   UNL     1       3.021   4.578  17.968  0.00  0.00    +0.000 A 
ATOM      9  C   UNL     1       3.135   5.945  18.156  0.00  0.00    +0.000 A 
ATOM     10  C   UNL     1       4.131   6.677  17.504  0.00  0.00    +0.000 A 
ATOM     11  C   UNL     1       5.057   6.061  16.641  0.00  0.00    +0.000 A 
BRANCH   8  12
ATOM     12  C   UNL     1       1.956   3.796  18.678  0.00  0.00    +0.000 C 
ATOM     13  C   UNL     1       1.637   2.370  18.322  0.00  0.00    +0.000 C 
ATOM     14  O   UNL     1       1.333   4.359  19.586  0.00  0.00    +0.000 OA
ENDBRANCH   8  12
BRANCH   6  16
ATOM     15  C   UNL     1       5.791   4.053  14.149  0.00  0.00    +0.000 C 
ATOM     16  C   UNL     1       5.910   3.788  15.644  0.00  0.00    +0.000 C 
ENDBRANCH   6  16
BRANCH   9  17
ATOM     17  O   UNL     1       2.303   6.668  18.979  0.00  0.00    +0.000 OA
ATOM     18  H   UNL     1       2.720   7.546  19.129  0.00  0.00    +0.000 HD
ENDBRANCH   9  17
ENDBRANCH   5  11
ENDBRANCH   4   5
ENDBRANCH   1   4
BRANCH   1  19
ATOM     19  C   UNL     1       8.205   8.833  17.897  0.00  0.00    +0.000 C 
BRANCH  19  20
ATOM     20  O   UNL     1       8.974   9.089  19.078  0.00  0.00    +0.000 OA
BRANCH  20  21
ATOM     21  C   UNL     1       9.353  10.396  19.242  0.00  0.00    +0.000 A 
ATOM     22  C   UNL     1       9.791  10.763  20.523  0.00  0.00    +0.000 A 
ATOM     23  C   UNL     1      10.051  12.107  20.837  0.00  0.00    +0.000 A 
ATOM     24  C   UNL     1       9.941  13.078  19.840  0.00  0.00    +0.000 A 
ATOM     25  C   UNL     1       9.867  14.538  20.046  0.00  0.00    +0.000 A 
ATOM     26  C   UNL     1       9.535  15.335  19.009  0.00  0.00    +0.000 A 
ATOM     27  C   UNL     1      10.206  14.826  17.793  0.00  0.00    +0.000 A 
ATOM     28  O   UNL     1      11.039  15.477  17.175  0.00  0.00    +0.000 OA
ATOM     29  O   UNL     1       9.838  13.536  17.442  0.00  0.00    +0.000 OA
ATOM     30  C   UNL     1       9.703  12.652  18.529  0.00  0.00    +0.000 A 
ATOM     31  C   UNL     1       9.339  11.351  18.232  0.00  0.00    +0.000 A 
BRANCH  26  32
ATOM     32  N   UNL     1       8.100  15.348  18.667  0.00  0.00    +0.000 N 
ATOM     33  O   UNL     1       7.320  15.043  19.581  0.00  0.00    +0.000 OA
ATOM     34  O   UNL     1       7.741  15.690  17.529  0.00  0.00    +0.000 OA
ENDBRANCH  26  32
BRANCH  25  35
ATOM     35  O   UNL     1      10.326  15.075  21.235  0.00  0.00    +0.000 OA
ATOM     36  H   UNL     1      10.506  16.025  21.113  0.00  0.00    +0.000 HD
ENDBRANCH  25  35
ENDBRANCH  20  21
ENDBRANCH  19  20
ENDBRANCH   1  19
TORSDOF 12
ENDMDL
MODEL 7
REMARK VINA RESULT:      -7.9      7.501     10.653
REMARK  Name = 
REMARK  14 active torsions:
REMARK  status: ('A' for Active; 'I' for Inactive)
REMARK    1  A    between atoms: C_1  and  C_2
REMARK    2  A    between atoms: C_2  and  C_3
REMARK    3  A    between atoms: C_5  and  C_6
REMARK    4  A    between atoms: C_6  and  C_7
REMARK    5  A    between atoms: C_9  and  O_10
REMARK    6  A    between atoms: C_12  and  O_13
REMARK    7  A    between atoms: O_13  and  C_14
REMARK    8  A    between atoms: C_14  and  C_15
REMARK    9  A    between atoms: C_15  and  O_16
REMARK   10  A    between atoms: C_15  and  C_17
REMARK   11  A    between atoms: C_17  and  O_18
REMARK   12  A    between atoms: O_18  and  C_19
REMARK   13  A    between atoms: C_23  and  O_24
REMARK   14  A    between atoms: C_25  and  N_26
REMARK                            x       y       z     vdW  Elec       q    Type
REMARK                         _______ _______ _______ _____ _____    ______ ____
ROOT
ATOM      1  C   UNL     1       0.603   9.926  18.358  0.00  0.00    +0.000 C 
ENDROOT
BRANCH   1   2
ATOM      2  O   UNL     1       1.521  10.884  17.811  0.00  0.00    +0.000 OA
ATOM      3  H   UNL     1       1.363  10.945  16.852  0.00  0.00    +0.000 HD
ENDBRANCH   1   2
BRANCH   1   4
ATOM      4  C   UNL     1      -0.323  10.556  19.400  0.00  0.00    +0.000 C 
BRANCH   4   5
ATOM      5  O   UNL     1      -0.932  11.732  18.897  0.00  0.00    +0.000 OA
BRANCH   5  11
ATOM      6  C   UNL     1      -3.034  11.191  17.616  0.00  0.00    +0.000 A 
ATOM      7  C   UNL     1      -4.443  11.304  17.657  0.00  0.00    +0.000 A 
ATOM      8  C   UNL     1      -5.122  11.925  18.718  0.00  0.00    +0.000 A 
ATOM      9  C   UNL     1      -4.365  12.444  19.755  0.00  0.00    +0.000 A 
ATOM     10  C   UNL     1      -2.971  12.355  19.737  0.00  0.00    +0.000 A 
ATOM     11  C   UNL     1      -2.282  11.735  18.677  0.00  0.00    +0.000 A 
BRANCH   8  12
ATOM     12  C   UNL     1      -6.619  12.015  18.747  0.00  0.00    +0.000 C 
ATOM     13  C   UNL     1      -7.395  12.806  17.730  0.00  0.00    +0.000 C 
ATOM     14  O   UNL     1      -7.218  11.406  19.642  0.00  0.00    +0.000 OA
ENDBRANCH   8  12
BRANCH   6  16
ATOM     15  C   UNL     1      -3.220  10.789  15.141  0.00  0.00    +0.000 C 
ATOM     16  C   UNL     1      -2.514  10.396  16.431  0.00  0.00    +0.000 C 
ENDBRANCH   6  16
BRANCH   9  17
ATOM     17  O   UNL     1      -4.911  13.066  20.853  0.00  0.00    +0.000 OA
ATOM     18  H   UNL     1      -5.874  12.863  20.864  0.00  0.00    +0.000 HD
ENDBRANCH   9  17
ENDBRANCH   5  11
ENDBRANCH   4   5
ENDBRANCH   1   4
BRANCH   1  19
ATOM     19  C   UNL     1       1.435   8.825  19.018  0.00  0.00    +0.000 C 
BRANCH  19  20
ATOM     20  O   UNL     1       2.758   8.766  18.471  0.00  0.00    +0.000 OA
BRANCH  20  21
ATOM     21  C   UNL     1       3.132   7.530  18.010  0.00  0.00    +0.000 A 
ATOM     22  C   UNL     1       2.473   6.428  18.574  0.00  0.00    +0.000 A 
ATOM     23  C   UNL     1       2.889   5.117  18.289  0.00  0.00    +0.000 A 
ATOM     24  C   UNL     1       3.925   4.910  17.376  0.00  0.00    +0.000 A 
ATOM     25  C   UNL     1       4.692   3.662  17.192  0.00  0.00    +0.000 A 
ATOM     26  C   UNL     1       5.809   3.678  16.436  0.00  0.00    +0.000 A 
ATOM     27  C   UNL     1       5.565   4.538  15.257  0.00  0.00    +0.000 A 
ATOM     28  O   UNL     1       5.586   4.109  14.111  0.00  0.00    +0.000 OA
ATOM     29  O   UNL     1       5.271   5.857  15.569  0.00  0.00    +0.000 OA
ATOM     30  C   UNL     1       4.421   6.018  16.680  0.00  0.00    +0.000 A 
ATOM     31  C   UNL     1       4.096   7.315  17.032  0.00  0.00    +0.000 A 
BRANCH  26  32
ATOM     32  N   UNL     1       6.995   4.266  17.088  0.00  0.00    +0.000 N 
ATOM     33  O   UNL     1       7.903   4.641  16.332  0.00  0.00    +0.000 OA
ATOM     34  O   UNL     1       7.019   4.393  18.322  0.00  0.00    +0.000 OA
ENDBRANCH  26  32
BRANCH  25  35
ATOM     35  O   UNL     1       4.150   2.467  17.631  0.00  0.00    +0.000 OA
ATOM     36  H   UNL     1       3.251   2.367  17.268  0.00  0.00    +0.000 HD
ENDBRANCH  25  35
ENDBRANCH  20  21
ENDBRANCH  19  20
ENDBRANCH   1  19
TORSDOF 12
ENDMDL
MODEL 8
REMARK VINA RESULT:      -7.8      7.082     10.318
REMARK  Name = 
REMARK  14 active torsions:
REMARK  status: ('A' for Active; 'I' for Inactive)
REMARK    1  A    between atoms: C_1  and  C_2
REMARK    2  A    between atoms: C_2  and  C_3
REMARK    3  A    between atoms: C_5  and  C_6
REMARK    4  A    between atoms: C_6  and  C_7
REMARK    5  A    between atoms: C_9  and  O_10
REMARK    6  A    between atoms: C_12  and  O_13
REMARK    7  A    between atoms: O_13  and  C_14
REMARK    8  A    between atoms: C_14  and  C_15
REMARK    9  A    between atoms: C_15  and  O_16
REMARK   10  A    between atoms: C_15  and  C_17
REMARK   11  A    between atoms: C_17  and  O_18
REMARK   12  A    between atoms: O_18  and  C_19
REMARK   13  A    between atoms: C_23  and  O_24
REMARK   14  A    between atoms: C_25  and  N_26
REMARK                            x       y       z     vdW  Elec       q    Type
REMARK                         _______ _______ _______ _____ _____    ______ ____
ROOT
ATOM      1  C   UNL     1       0.752   9.935  20.676  0.00  0.00    +0.000 C 
ENDROOT
BRANCH   1   2
ATOM      2  O   UNL     1      -0.342   9.312  21.366  0.00  0.00    +0.000 OA
ATOM      3  H   UNL     1      -0.838  10.003  21.839  0.00  0.00    +0.000 HD
ENDBRANCH   1   2
BRANCH   1   4
ATOM      4  C   UNL     1       0.311  11.195  19.930  0.00  0.00    +0.000 C 
BRANCH   4   5
ATOM      5  O   UNL     1      -0.282  10.870  18.686  0.00  0.00    +0.000 OA
BRANCH   5  11
ATOM      6  C   UNL     1      -2.500  10.668  17.505  0.00  0.00    +0.000 A 
ATOM      7  C   UNL     1      -3.858  11.055  17.576  0.00  0.00    +0.000 A 
ATOM      8  C   UNL     1      -4.361  11.865  18.609  0.00  0.00    +0.000 A 
ATOM      9  C   UNL     1      -3.476  12.292  19.584  0.00  0.00    +0.000 A 
ATOM     10  C   UNL     1      -2.127  11.932  19.535  0.00  0.00    +0.000 A 
ATOM     11  C   UNL     1      -1.615  11.122  18.503  0.00  0.00    +0.000 A 
BRANCH   8  12
ATOM     12  C   UNL     1      -5.810  12.247  18.672  0.00  0.00    +0.000 C 
ATOM     13  C   UNL     1      -6.910  11.284  18.317  0.00  0.00    +0.000 C 
ATOM     14  O   UNL     1      -6.090  13.395  19.036  0.00  0.00    +0.000 OA
ENDBRANCH   8  12
BRANCH   6  16
ATOM     15  C   UNL     1      -3.019  10.031  15.129  0.00  0.00    +0.000 C 
ATOM     16  C   UNL     1      -2.192   9.712  16.366  0.00  0.00    +0.000 C 
ENDBRANCH   6  16
BRANCH   9  17
ATOM     17  O   UNL     1      -3.846  13.078  20.650  0.00  0.00    +0.000 OA
ATOM     18  H   UNL     1      -3.728  12.547  21.470  0.00  0.00    +0.000 HD
ENDBRANCH   9  17
ENDBRANCH   5  11
ENDBRANCH   4   5
ENDBRANCH   1   4
BRANCH   1  19
ATOM     19  C   UNL     1       1.296   8.916  19.674  0.00  0.00    +0.000 C 
BRANCH  19  20
ATOM     20  O   UNL     1       1.886   7.790  20.335  0.00  0.00    +0.000 OA
BRANCH  20  21
ATOM     21  C   UNL     1       2.448   6.863  19.496  0.00  0.00    +0.000 A 
ATOM     22  C   UNL     1       2.003   5.541  19.639  0.00  0.00    +0.000 A 
ATOM     23  C   UNL     1       2.625   4.492  18.940  0.00  0.00    +0.000 A 
ATOM     24  C   UNL     1       3.650   4.783  18.038  0.00  0.00    +0.000 A 
ATOM     25  C   UNL     1       4.609   3.818  17.465  0.00  0.00    +0.000 A 
ATOM     26  C   UNL     1       5.682   4.277  16.788  0.00  0.00    +0.000 A 
ATOM     27  C   UNL     1       5.258   5.427  15.961  0.00  0.00    +0.000 A 
ATOM     28  O   UNL     1       5.312   5.418  14.737  0.00  0.00    +0.000 OA
ATOM     29  O   UNL     1       4.756   6.495  16.690  0.00  0.00    +0.000 OA
ATOM     30  C   UNL     1       3.928   6.127  17.768  0.00  0.00    +0.000 A 
ATOM     31  C   UNL     1       3.401   7.156  18.527  0.00  0.00    +0.000 A 
BRANCH  26  32
ATOM     32  N   UNL     1       6.773   4.804  17.630  0.00  0.00    +0.000 N 
ATOM     33  O   UNL     1       6.783   4.422  18.809  0.00  0.00    +0.000 OA
ATOM     34  O   UNL     1       7.628   5.552  17.132  0.00  0.00    +0.000 OA
ENDBRANCH  26  32
BRANCH  25  35
ATOM     35  O   UNL     1       4.291   2.472  17.463  0.00  0.00    +0.000 OA
ATOM     36  H   UNL     1       4.082   2.190  16.554  0.00  0.00    +0.000 HD
ENDBRANCH  25  35
ENDBRANCH  20  21
ENDBRANCH  19  20
ENDBRANCH   1  19
TORSDOF 12
ENDMDL
MODEL 9
REMARK VINA RESULT:      -7.8      7.393     10.656
REMARK  Name = 
REMARK  14 active torsions:
REMARK  status: ('A' for Active; 'I' for Inactive)
REMARK    1  A    between atoms: C_1  and  C_2
REMARK    2  A    between atoms: C_2  and  C_3
REMARK    3  A    between atoms: C_5  and  C_6
REMARK    4  A    between atoms: C_6  and  C_7
REMARK    5  A    between atoms: C_9  and  O_10
REMARK    6  A    between atoms: C_12  and  O_13
REMARK    7  A    between atoms: O_13  and  C_14
REMARK    8  A    between atoms: C_14  and  C_15
REMARK    9  A    between atoms: C_15  and  O_16
REMARK   10  A    between atoms: C_15  and  C_17
REMARK   11  A    between atoms: C_17  and  O_18
REMARK   12  A    between atoms: O_18  and  C_19
REMARK   13  A    between atoms: C_23  and  O_24
REMARK   14  A    between atoms: C_25  and  N_26
REMARK                            x       y       z     vdW  Elec       q    Type
REMARK                         _______ _______ _______ _____ _____    ______ ____
ROOT
ATOM      1  C   UNL     1       0.415  10.060  19.773  0.00  0.00    +0.000 C 
ENDROOT
BRANCH   1   2
ATOM      2  O   UNL     1      -0.562   9.516  20.674  0.00  0.00    +0.000 OA
ATOM      3  H   UNL     1      -0.384   9.866  21.565  0.00  0.00    +0.000 HD
ENDBRANCH   1   2
BRANCH   1   4
ATOM      4  C   UNL     1      -0.202  10.437  18.425  0.00  0.00    +0.000 C 
BRANCH   4   5
ATOM      5  O   UNL     1      -0.828  11.706  18.488  0.00  0.00    +0.000 OA
BRANCH   5  11
ATOM      6  C   UNL     1      -3.042  11.498  17.301  0.00  0.00    +0.000 A 
ATOM      7  C   UNL     1      -4.438  11.617  17.486  0.00  0.00    +0.000 A 
ATOM      8  C   UNL     1      -5.011  11.989  18.713  0.00  0.00    +0.000 A 
ATOM      9  C   UNL     1      -4.157  12.250  19.772  0.00  0.00    +0.000 A 
ATOM     10  C   UNL     1      -2.772  12.149  19.617  0.00  0.00    +0.000 A 
ATOM     11  C   UNL     1      -2.191  11.776  18.390  0.00  0.00    +0.000 A 
BRANCH   8  12
ATOM     12  C   UNL     1      -6.497  12.090  18.889  0.00  0.00    +0.000 C 
ATOM     13  C   UNL     1      -7.362  12.896  17.958  0.00  0.00    +0.000 C 
ATOM     14  O   UNL     1      -7.011  11.478  19.833  0.00  0.00    +0.000 OA
ENDBRANCH   8  12
BRANCH   6  16
ATOM     15  C   UNL     1      -2.858   9.484  15.808  0.00  0.00    +0.000 C 
ATOM     16  C   UNL     1      -2.643  10.986  15.928  0.00  0.00    +0.000 C 
ENDBRANCH   6  16
BRANCH   9  17
ATOM     17  O   UNL     1      -4.594  12.612  21.025  0.00  0.00    +0.000 OA
ATOM     18  H   UNL     1      -4.430  13.577  21.131  0.00  0.00    +0.000 HD
ENDBRANCH   9  17
ENDBRANCH   5  11
ENDBRANCH   4   5
ENDBRANCH   1   4
BRANCH   1  19
ATOM     19  C   UNL     1       1.484   8.986  19.561  0.00  0.00    +0.000 C 
BRANCH  19  20
ATOM     20  O   UNL     1       1.594   8.620  18.180  0.00  0.00    +0.000 OA
BRANCH  20  21
ATOM     21  C   UNL     1       2.493   7.618  17.924  0.00  0.00    +0.000 A 
ATOM     22  C   UNL     1       2.039   6.306  18.126  0.00  0.00    +0.000 A 
ATOM     23  C   UNL     1       2.924   5.217  18.045  0.00  0.00    +0.000 A 
ATOM     24  C   UNL     1       4.255   5.441  17.688  0.00  0.00    +0.000 A 
ATOM     25  C   UNL     1       5.375   4.494  17.854  0.00  0.00    +0.000 A 
ATOM     26  C   UNL     1       6.640   4.930  17.675  0.00  0.00    +0.000 A 
ATOM     27  C   UNL     1       6.659   5.851  16.518  0.00  0.00    +0.000 A 
ATOM     28  O   UNL     1       7.293   5.617  15.497  0.00  0.00    +0.000 OA
ATOM     29  O   UNL     1       5.865   6.977  16.678  0.00  0.00    +0.000 OA
ATOM     30  C   UNL     1       4.623   6.732  17.295  0.00  0.00    +0.000 A 
ATOM     31  C   UNL     1       3.793   7.823  17.476  0.00  0.00    +0.000 A 
BRANCH  26  32
ATOM     32  N   UNL     1       7.191   5.720  18.792  0.00  0.00    +0.000 N 
ATOM     33  O   UNL     1       7.962   6.640  18.480  0.00  0.00    +0.000 OA
ATOM     34  O   UNL     1       6.844   5.467  19.956  0.00  0.00    +0.000 OA
ENDBRANCH  26  32
BRANCH  25  35
ATOM     35  O   UNL     1       5.103   3.146  17.996  0.00  0.00    +0.000 OA
ATOM     36  H   UNL     1       4.387   3.027  18.647  0.00  0.00    +0.000 HD
ENDBRANCH  25  35
ENDBRANCH  20  21
ENDBRANCH  19  20
ENDBRANCH   1  19
TORSDOF 12
ENDMDL
