MODEL 1
REMARK VINA RESULT:      -8.5      0.000      0.000
REMARK  Name = 
REMARK  10 active torsions:
REMARK  status: ('A' for Active; 'I' for Inactive)
REMARK    1  A    between atoms: C_1  and  C_2
REMARK    2  A    between atoms: C_4  and  C_5
REMARK    3  A    between atoms: C_5  and  N_6
REMARK    4  A    between atoms: N_9  and  C_10
REMARK    5  A    between atoms: C_10  and  C_11
REMARK    6  A    between atoms: C_10  and  C_12
REMARK    7  A    between atoms: C_17  and  C_18
REMARK    8  A    between atoms: C_21  and  C_22
REMARK    9  A    between atoms: N_24  and  C_25
REMARK   10  A    between atoms: C_30  and  N_31
REMARK                            x       y       z     vdW  Elec       q    Type
REMARK                         _______ _______ _______ _____ _____    ______ ____
ROOT
ATOM      1  C   UNL     1       0.932   9.309  20.157  0.00  0.00    +0.000 A 
ATOM      2  C   UNL     1       1.248   9.433  18.797  0.00  0.00    +0.000 A 
ATOM      3  C   UNL     1       1.973   8.440  18.133  0.00  0.00    +0.000 A 
ATOM      4  C   UNL     1       2.410   7.300  18.825  0.00  0.00    +0.000 A 
ATOM      5  C   UNL     1       2.103   7.141  20.159  0.00  0.00    +0.000 A 
ATOM      6  C   UNL     1       1.326   8.113  20.792  0.00  0.00    +0.000 A 
ENDROOT
BRANCH   1  13
ATOM      7  C   UNL     1       0.379  12.147  19.036  0.00  0.00    +0.000 C 
ATOM      8  C   UNL     1       0.075  11.693  20.435  0.00  0.00    +0.000 A 
ATOM      9  C   UNL     1      -0.451  12.645  21.314  0.00  0.00    +0.000 A 
ATOM     10  C   UNL     1      -1.077  12.261  22.497  0.00  0.00    +0.000 A 
ATOM     11  C   UNL     1      -0.987  10.919  22.832  0.00  0.00    +0.000 A 
ATOM     12  N   UNL     1      -0.341   9.988  22.083  0.00  0.00    +0.000 NA
ATOM     13  C   UNL     1       0.200  10.373  20.894  0.00  0.00    +0.000 A 
BRANCH  10  14
ATOM     14  C   UNL     1      -1.837  13.259  23.353  0.00  0.00    +0.000 C 
BRANCH  14  15
ATOM     15  N   UNL     1      -3.258  12.910  23.507  0.00  0.00    +0.000 NA
ATOM     16  C   UNL     1      -4.010  13.756  24.452  0.00  0.00    +0.000 C 
ATOM     17  C   UNL     1      -4.859  14.896  23.846  0.00  0.00    +0.000 C 
ATOM     18  N   UNL     1      -5.713  14.506  22.701  0.00  0.00    +0.000 NA
ATOM     19  C   UNL     1      -4.820  13.864  21.711  0.00  0.00    +0.000 C 
ATOM     20  C   UNL     1      -3.980  12.685  22.249  0.00  0.00    +0.000 C 
BRANCH  18  21
ATOM     21  C   UNL     1      -6.885  13.676  23.081  0.00  0.00    +0.000 C 
ATOM     22  C   UNL     1      -7.759  14.354  24.155  0.00  0.00    +0.000 C 
ATOM     23  C   UNL     1      -7.807  13.404  21.877  0.00  0.00    +0.000 C 
ENDBRANCH  18  21
ENDBRANCH  14  15
ENDBRANCH  10  14
ENDBRANCH   1  13
BRANCH   4  24
ATOM     24  C   UNL     1       3.278   6.334  18.097  0.00  0.00    +0.000 C 
ATOM     25  O   UNL     1       2.809   5.208  17.932  0.00  0.00    +0.000 OA
ATOM     26  N   UNL     1       4.530   6.776  17.717  0.00  0.00    +0.000 N 
ATOM     27  H   UNL     1       4.902   7.601  18.148  0.00  0.00    +0.000 HD
BRANCH  26  28
ATOM     28  C   UNL     1       5.435   5.996  16.931  0.00  0.00    +0.000 A 
ATOM     29  C   UNL     1       5.304   5.931  15.538  0.00  0.00    +0.000 A 
ATOM     30  C   UNL     1       6.124   5.117  14.763  0.00  0.00    +0.000 A 
ATOM     31  C   UNL     1       7.102   4.353  15.377  0.00  0.00    +0.000 A 
ATOM     32  C   UNL     1       7.266   4.418  16.765  0.00  0.00    +0.000 A 
ATOM     33  C   UNL     1       6.477   5.277  17.557  0.00  0.00    +0.000 A 
BRANCH  33  34
ATOM     34  N   UNL     1       6.612   5.194  18.958  0.00  0.00    +0.000 N 
ATOM     35  H   UNL     1       6.521   6.095  19.422  0.00  0.00    +0.000 HD
ATOM     36  H   UNL     1       6.021   4.497  19.392  0.00  0.00    +0.000 HD
ENDBRANCH  33  34
ENDBRANCH  26  28
ENDBRANCH   4  24
TORSDOF 7
ENDMDL
MODEL 2
REMARK VINA RESULT:      -8.3      1.188      1.904
REMARK  Name = 
REMARK  10 active torsions:
REMARK  status: ('A' for Active; 'I' for Inactive)
REMARK    1  A    between atoms: C_1  and  C_2
REMARK    2  A    between atoms: C_4  and  C_5
REMARK    3  A    between atoms: C_5  and  N_6
REMARK    4  A    between atoms: N_9  and  C_10
REMARK    5  A    between atoms: C_10  and  C_11
REMARK    6  A    between atoms: C_10  and  C_12
REMARK    7  A    between atoms: C_17  and  C_18
REMARK    8  A    between atoms: C_21  and  C_22
REMARK    9  A    between atoms: N_24  and  C_25
REMARK   10  A    between atoms: C_30  and  N_31
REMARK                            x       y       z     vdW  Elec       q    Type
REMARK                         _______ _______ _______ _____ _____    ______ ____
ROOT
ATOM      1  C   UNL     1       0.900   9.768  20.402  0.00  0.00    +0.000 A 
ATOM      2  C   UNL     1       1.120   9.860  19.020  0.00  0.00    +0.000 A 
ATOM      3  C   UNL     1       1.690   8.801  18.310  0.00  0.00    +0.000 A 
ATOM      4  C   UNL     1       2.068   7.624  18.974  0.00  0.00    +0.000 A 
ATOM      5  C   UNL     1       1.853   7.496  20.329  0.00  0.00    +0.000 A 
ATOM      6  C   UNL     1       1.226   8.539  21.013  0.00  0.00    +0.000 A 
ENDROOT
BRANCH   1  13
ATOM      7  C   UNL     1      -0.280   9.493  23.256  0.00  0.00    +0.000 C 
ATOM      8  C   UNL     1      -0.320  10.739  22.417  0.00  0.00    +0.000 A 
ATOM      9  C   UNL     1      -0.989  11.844  22.949  0.00  0.00    +0.000 A 
ATOM     10  C   UNL     1      -0.796  13.121  22.428  0.00  0.00    +0.000 A 
ATOM     11  C   UNL     1      -0.057  13.200  21.257  0.00  0.00    +0.000 A 
ATOM     12  N   UNL     1       0.475  12.127  20.617  0.00  0.00    +0.000 NA
ATOM     13  C   UNL     1       0.335  10.897  21.186  0.00  0.00    +0.000 A 
BRANCH  10  14
ATOM     14  C   UNL     1      -1.345  14.355  23.123  0.00  0.00    +0.000 C 
BRANCH  14  15
ATOM     15  N   UNL     1      -2.797  14.510  22.942  0.00  0.00    +0.000 NA
ATOM     16  C   UNL     1      -3.330  13.971  21.678  0.00  0.00    +0.000 C 
ATOM     17  C   UNL     1      -3.980  12.570  21.734  0.00  0.00    +0.000 C 
ATOM     18  N   UNL     1      -4.946  12.367  22.837  0.00  0.00    +0.000 NA
ATOM     19  C   UNL     1      -4.239  12.726  24.086  0.00  0.00    +0.000 C 
ATOM     20  C   UNL     1      -3.609  14.135  24.106  0.00  0.00    +0.000 C 
BRANCH  18  21
ATOM     21  C   UNL     1      -6.233  13.086  22.647  0.00  0.00    +0.000 C 
ATOM     22  C   UNL     1      -7.011  12.579  21.416  0.00  0.00    +0.000 C 
ATOM     23  C   UNL     1      -7.170  12.910  23.858  0.00  0.00    +0.000 C 
ENDBRANCH  18  21
ENDBRANCH  14  15
ENDBRANCH  10  14
ENDBRANCH   1  13
BRANCH   4  24
ATOM     24  C   UNL     1       2.779   6.578  18.188  0.00  0.00    +0.000 C 
ATOM     25  O   UNL     1       2.132   5.562  17.937  0.00  0.00    +0.000 OA
ATOM     26  N   UNL     1       4.096   6.828  17.855  0.00  0.00    +0.000 N 
ATOM     27  H   UNL     1       4.591   7.547  18.348  0.00  0.00    +0.000 HD
BRANCH  26  28
ATOM     28  C   UNL     1       4.875   5.964  17.025  0.00  0.00    +0.000 A 
ATOM     29  C   UNL     1       5.132   6.291  15.687  0.00  0.00    +0.000 A 
ATOM     30  C   UNL     1       5.820   5.427  14.842  0.00  0.00    +0.000 A 
ATOM     31  C   UNL     1       6.273   4.213  15.329  0.00  0.00    +0.000 A 
ATOM     32  C   UNL     1       6.047   3.873  16.668  0.00  0.00    +0.000 A 
ATOM     33  C   UNL     1       5.396   4.761  17.549  0.00  0.00    +0.000 A 
BRANCH  33  34
ATOM     34  N   UNL     1       5.093   4.298  18.846  0.00  0.00    +0.000 N 
ATOM     35  H   UNL     1       5.184   3.288  18.940  0.00  0.00    +0.000 HD
ATOM     36  H   UNL     1       5.586   4.780  19.586  0.00  0.00    +0.000 HD
ENDBRANCH  33  34
ENDBRANCH  26  28
ENDBRANCH   4  24
TORSDOF 7
ENDMDL
MODEL 3
REMARK VINA RESULT:      -8.1      0.954      1.546
REMARK  Name = 
REMARK  10 active torsions:
REMARK  status: ('A' for Active; 'I' for Inactive)
REMARK    1  A    between atoms: C_1  and  C_2
REMARK    2  A    between atoms: C_4  and  C_5
REMARK    3  A    between atoms: C_5  and  N_6
REMARK    4  A    between atoms: N_9  and  C_10
REMARK    5  A    between atoms: C_10  and  C_11
REMARK    6  A    between atoms: C_10  and  C_12
REMARK    7  A    between atoms: C_17  and  C_18
REMARK    8  A    between atoms: C_21  and  C_22
REMARK    9  A    between atoms: N_24  and  C_25
REMARK   10  A    between atoms: C_30  and  N_31
REMARK                            x       y       z     vdW  Elec       q    Type
REMARK                         _______ _______ _______ _____ _____    ______ ____
ROOT
ATOM      1  C   UNL     1       1.019   9.367  20.077  0.00  0.00    +0.000 A 
ATOM      2  C   UNL     1       1.373   9.444  18.722  0.00  0.00    +0.000 A 
ATOM      3  C   UNL     1       2.106   8.422  18.112  0.00  0.00    +0.000 A 
ATOM      4  C   UNL     1       2.514   7.302  18.852  0.00  0.00    +0.000 A 
ATOM      5  C   UNL     1       2.170   7.191  20.182  0.00  0.00    +0.000 A 
ATOM      6  C   UNL     1       1.385   8.189  20.761  0.00  0.00    +0.000 A 
ENDROOT
BRANCH   1  13
ATOM      7  C   UNL     1       0.120   9.280  23.043  0.00  0.00    +0.000 C 
ATOM      8  C   UNL     1      -0.244  10.354  22.057  0.00  0.00    +0.000 A 
ATOM      9  C   UNL     1      -1.099  11.366  22.504  0.00  0.00    +0.000 A 
ATOM     10  C   UNL     1      -1.221  12.564  21.806  0.00  0.00    +0.000 A 
ATOM     11  C   UNL     1      -0.596  12.619  20.569  0.00  0.00    +0.000 A 
ATOM     12  N   UNL     1       0.110  11.595  20.024  0.00  0.00    +0.000 NA
ATOM     13  C   UNL     1       0.278  10.460  20.759  0.00  0.00    +0.000 A 
BRANCH  10  14
ATOM     14  C   UNL     1      -1.975  13.748  22.385  0.00  0.00    +0.000 C 
BRANCH  14  15
ATOM     15  N   UNL     1      -3.406  13.731  22.045  0.00  0.00    +0.000 NA
ATOM     16  C   UNL     1      -4.221  12.776  22.817  0.00  0.00    +0.000 C 
ATOM     17  C   UNL     1      -5.012  13.342  24.017  0.00  0.00    +0.000 C 
ATOM     18  N   UNL     1      -5.780  14.576  23.740  0.00  0.00    +0.000 NA
ATOM     19  C   UNL     1      -4.821  15.549  23.172  0.00  0.00    +0.000 C 
ATOM     20  C   UNL     1      -4.033  15.055  21.939  0.00  0.00    +0.000 C 
BRANCH  18  21
ATOM     21  C   UNL     1      -6.985  14.359  22.898  0.00  0.00    +0.000 C 
ATOM     22  C   UNL     1      -7.917  13.276  23.477  0.00  0.00    +0.000 C 
ATOM     23  C   UNL     1      -7.832  15.639  22.769  0.00  0.00    +0.000 C 
ENDBRANCH  18  21
ENDBRANCH  14  15
ENDBRANCH  10  14
ENDBRANCH   1  13
BRANCH   4  24
ATOM     24  C   UNL     1       3.393   6.306  18.180  0.00  0.00    +0.000 C 
ATOM     25  O   UNL     1       3.080   5.126  18.331  0.00  0.00    +0.000 OA
ATOM     26  N   UNL     1       4.487   6.794  17.493  0.00  0.00    +0.000 N 
ATOM     27  H   UNL     1       4.793   7.731  17.675  0.00  0.00    +0.000 HD
BRANCH  26  28
ATOM     28  C   UNL     1       5.364   5.970  16.721  0.00  0.00    +0.000 A 
ATOM     29  C   UNL     1       5.221   5.872  15.331  0.00  0.00    +0.000 A 
ATOM     30  C   UNL     1       6.012   5.016  14.572  0.00  0.00    +0.000 A 
ATOM     31  C   UNL     1       6.973   4.241  15.199  0.00  0.00    +0.000 A 
ATOM     32  C   UNL     1       7.149   4.337  16.584  0.00  0.00    +0.000 A 
ATOM     33  C   UNL     1       6.389   5.238  17.358  0.00  0.00    +0.000 A 
BRANCH  33  34
ATOM     34  N   UNL     1       6.533   5.186  18.760  0.00  0.00    +0.000 N 
ATOM     35  H   UNL     1       6.340   6.077  19.214  0.00  0.00    +0.000 HD
ATOM     36  H   UNL     1       6.024   4.432  19.203  0.00  0.00    +0.000 HD
ENDBRANCH  33  34
ENDBRANCH  26  28
ENDBRANCH   4  24
TORSDOF 7
ENDMDL
MODEL 4
REMARK VINA RESULT:      -8.1      0.970      1.017
REMARK  Name = 
REMARK  10 active torsions:
REMARK  status: ('A' for Active; 'I' for Inactive)
REMARK    1  A    between atoms: C_1  and  C_2
REMARK    2  A    between atoms: C_4  and  C_5
REMARK    3  A    between atoms: C_5  and  N_6
REMARK    4  A    between atoms: N_9  and  C_10
REMARK    5  A    between atoms: C_10  and  C_11
REMARK    6  A    between atoms: C_10  and  C_12
REMARK    7  A    between atoms: C_17  and  C_18
REMARK    8  A    between atoms: C_21  and  C_22
REMARK    9  A    between atoms: N_24  and  C_25
REMARK   10  A    between atoms: C_30  and  N_31
REMARK                            x       y       z     vdW  Elec       q    Type
REMARK                         _______ _______ _______ _____ _____    ______ ____
ROOT
ATOM      1  C   UNL     1       1.265   8.769  19.894  0.00  0.00    +0.000 A 
ATOM      2  C   UNL     1       1.719   9.019  18.592  0.00  0.00    +0.000 A 
ATOM      3  C   UNL     1       2.522   8.094  17.919  0.00  0.00    +0.000 A 
ATOM      4  C   UNL     1       2.900   6.896  18.546  0.00  0.00    +0.000 A 
ATOM      5  C   UNL     1       2.458   6.614  19.821  0.00  0.00    +0.000 A 
ATOM      6  C   UNL     1       1.607   7.520  20.455  0.00  0.00    +0.000 A 
ENDROOT
BRANCH   1  13
ATOM      7  C   UNL     1       0.003  11.307  18.636  0.00  0.00    +0.000 C 
ATOM      8  C   UNL     1      -0.004  10.969  20.100  0.00  0.00    +0.000 A 
ATOM      9  C   UNL     1      -0.580  11.902  20.966  0.00  0.00    +0.000 A 
ATOM     10  C   UNL     1      -0.945  11.549  22.263  0.00  0.00    +0.000 A 
ATOM     11  C   UNL     1      -0.541  10.295  22.693  0.00  0.00    +0.000 A 
ATOM     12  N   UNL     1       0.166   9.418  21.934  0.00  0.00    +0.000 NA
ATOM     13  C   UNL     1       0.446   9.756  20.644  0.00  0.00    +0.000 A 
BRANCH  10  14
ATOM     14  C   UNL     1      -1.761  12.482  23.141  0.00  0.00    +0.000 C 
BRANCH  14  15
ATOM     15  N   UNL     1      -3.200  12.175  23.113  0.00  0.00    +0.000 NA
ATOM     16  C   UNL     1      -3.942  12.549  24.330  0.00  0.00    +0.000 C 
ATOM     17  C   UNL     1      -4.723  13.882  24.292  0.00  0.00    +0.000 C 
ATOM     18  N   UNL     1      -5.558  14.089  23.088  0.00  0.00    +0.000 NA
ATOM     19  C   UNL     1      -4.665  13.910  21.922  0.00  0.00    +0.000 C 
ATOM     20  C   UNL     1      -3.893  12.573  21.882  0.00  0.00    +0.000 C 
BRANCH  18  21
ATOM     21  C   UNL     1      -6.776  13.239  23.048  0.00  0.00    +0.000 C 
ATOM     22  C   UNL     1      -7.757  13.568  24.191  0.00  0.00    +0.000 C 
ATOM     23  C   UNL     1      -7.559  13.423  21.734  0.00  0.00    +0.000 C 
ENDBRANCH  18  21
ENDBRANCH  14  15
ENDBRANCH  10  14
ENDBRANCH   1  13
BRANCH   4  24
ATOM     24  C   UNL     1       3.852   6.005  17.828  0.00  0.00    +0.000 C 
ATOM     25  O   UNL     1       4.017   4.888  18.318  0.00  0.00    +0.000 OA
ATOM     26  N   UNL     1       4.484   6.525  16.715  0.00  0.00    +0.000 N 
ATOM     27  H   UNL     1       4.486   7.519  16.582  0.00  0.00    +0.000 HD
BRANCH  26  28
ATOM     28  C   UNL     1       5.348   5.760  15.872  0.00  0.00    +0.000 A 
ATOM     29  C   UNL     1       4.825   4.891  14.905  0.00  0.00    +0.000 A 
ATOM     30  C   UNL     1       5.646   4.081  14.129  0.00  0.00    +0.000 A 
ATOM     31  C   UNL     1       7.019   4.133  14.305  0.00  0.00    +0.000 A 
ATOM     32  C   UNL     1       7.566   5.009  15.249  0.00  0.00    +0.000 A 
ATOM     33  C   UNL     1       6.750   5.873  16.007  0.00  0.00    +0.000 A 
BRANCH  33  34
ATOM     34  N   UNL     1       7.360   6.633  17.025  0.00  0.00    +0.000 N 
ATOM     35  H   UNL     1       7.843   6.060  17.715  0.00  0.00    +0.000 HD
ATOM     36  H   UNL     1       7.955   7.379  16.688  0.00  0.00    +0.000 HD
ENDBRANCH  33  34
ENDBRANCH  26  28
ENDBRANCH   4  24
TORSDOF 7
ENDMDL
MODEL 5
REMARK VINA RESULT:      -8.0      7.791     11.301
REMARK  Name = 
REMARK  10 active torsions:
REMARK  status: ('A' for Active; 'I' for Inactive)
REMARK    1  A    between atoms: C_1  and  C_2
REMARK    2  A    between atoms: C_4  and  C_5
REMARK    3  A    between atoms: C_5  and  N_6
REMARK    4  A    between atoms: N_9  and  C_10
REMARK    5  A    between atoms: C_10  and  C_11
REMARK    6  A    between atoms: C_10  and  C_12
REMARK    7  A    between atoms: C_17  and  C_18
REMARK    8  A    between atoms: C_21  and  C_22
REMARK    9  A    between atoms: N_24  and  C_25
REMARK   10  A    between atoms: C_30  and  N_31
REMARK                            x       y       z     vdW  Elec       q    Type
REMARK                         _______ _______ _______ _____ _____    ______ ____
ROOT
ATOM      1  C   UNL     1       7.872   8.587  17.921  0.00  0.00    +0.000 A 
ATOM      2  C   UNL     1       7.562   9.785  17.264  0.00  0.00    +0.000 A 
ATOM      3  C   UNL     1       8.203  10.979  17.604  0.00  0.00    +0.000 A 
ATOM      4  C   UNL     1       9.165  11.001  18.626  0.00  0.00    +0.000 A 
ATOM      5  C   UNL     1       9.502   9.836  19.282  0.00  0.00    +0.000 A 
ATOM      6  C   UNL     1       8.897   8.641  18.888  0.00  0.00    +0.000 A 
ENDROOT
BRANCH   1  13
ATOM      7  C   UNL     1       8.127   5.993  19.600  0.00  0.00    +0.000 C 
ATOM      8  C   UNL     1       7.401   6.110  18.290  0.00  0.00    +0.000 A 
ATOM      9  C   UNL     1       6.842   4.941  17.765  0.00  0.00    +0.000 A 
ATOM     10  C   UNL     1       5.876   4.994  16.763  0.00  0.00    +0.000 A 
ATOM     11  C   UNL     1       5.643   6.240  16.202  0.00  0.00    +0.000 A 
ATOM     12  N   UNL     1       6.286   7.377  16.573  0.00  0.00    +0.000 NA
ATOM     13  C   UNL     1       7.172   7.313  17.606  0.00  0.00    +0.000 A 
BRANCH  10  14
ATOM     14  C   UNL     1       5.108   3.756  16.333  0.00  0.00    +0.000 C 
BRANCH  14  15
ATOM     15  N   UNL     1       3.865   3.565  17.097  0.00  0.00    +0.000 NA
ATOM     16  C   UNL     1       3.858   2.397  17.996  0.00  0.00    +0.000 C 
ATOM     17  C   UNL     1       4.159   2.662  19.489  0.00  0.00    +0.000 C 
ATOM     18  N   UNL     1       3.412   3.789  20.091  0.00  0.00    +0.000 NA
ATOM     19  C   UNL     1       3.666   4.968  19.233  0.00  0.00    +0.000 C 
ATOM     20  C   UNL     1       3.339   4.776  17.736  0.00  0.00    +0.000 C 
BRANCH  18  21
ATOM     21  C   UNL     1       1.970   3.506  20.310  0.00  0.00    +0.000 C 
ATOM     22  C   UNL     1       1.728   2.627  21.554  0.00  0.00    +0.000 C 
ATOM     23  C   UNL     1       1.159   4.798  20.525  0.00  0.00    +0.000 C 
ENDBRANCH  18  21
ENDBRANCH  14  15
ENDBRANCH  10  14
ENDBRANCH   1  13
BRANCH   4  24
ATOM     24  C   UNL     1       9.727  12.320  19.026  0.00  0.00    +0.000 C 
ATOM     25  O   UNL     1      10.370  12.334  20.074  0.00  0.00    +0.000 OA
ATOM     26  N   UNL     1       9.441  13.398  18.212  0.00  0.00    +0.000 N 
ATOM     27  H   UNL     1       8.687  13.321  17.556  0.00  0.00    +0.000 HD
BRANCH  26  28
ATOM     28  C   UNL     1       9.988  14.703  18.414  0.00  0.00    +0.000 A 
ATOM     29  C   UNL     1       9.625  15.470  19.529  0.00  0.00    +0.000 A 
ATOM     30  C   UNL     1      10.084  16.771  19.703  0.00  0.00    +0.000 A 
ATOM     31  C   UNL     1      10.928  17.329  18.757  0.00  0.00    +0.000 A 
ATOM     32  C   UNL     1      11.322  16.575  17.646  0.00  0.00    +0.000 A 
ATOM     33  C   UNL     1      10.905  15.238  17.483  0.00  0.00    +0.000 A 
BRANCH  33  34
ATOM     34  N   UNL     1      11.238  14.586  16.278  0.00  0.00    +0.000 N 
ATOM     35  H   UNL     1      11.572  13.634  16.418  0.00  0.00    +0.000 HD
ATOM     36  H   UNL     1      10.512  14.619  15.573  0.00  0.00    +0.000 HD
ENDBRANCH  33  34
ENDBRANCH  26  28
ENDBRANCH   4  24
TORSDOF 7
ENDMDL
MODEL 6
REMARK VINA RESULT:      -8.0      2.409      3.150
REMARK  Name = 
REMARK  10 active torsions:
REMARK  status: ('A' for Active; 'I' for Inactive)
REMARK    1  A    between atoms: C_1  and  C_2
REMARK    2  A    between atoms: C_4  and  C_5
REMARK    3  A    between atoms: C_5  and  N_6
REMARK    4  A    between atoms: N_9  and  C_10
REMARK    5  A    between atoms: C_10  and  C_11
REMARK    6  A    between atoms: C_10  and  C_12
REMARK    7  A    between atoms: C_17  and  C_18
REMARK    8  A    between atoms: C_21  and  C_22
REMARK    9  A    between atoms: N_24  and  C_25
REMARK   10  A    between atoms: C_30  and  N_31
REMARK                            x       y       z     vdW  Elec       q    Type
REMARK                         _______ _______ _______ _____ _____    ______ ____
ROOT
ATOM      1  C   UNL     1       0.817  10.197  19.468  0.00  0.00    +0.000 A 
ATOM      2  C   UNL     1       1.021   9.212  20.444  0.00  0.00    +0.000 A 
ATOM      3  C   UNL     1       1.730   8.044  20.151  0.00  0.00    +0.000 A 
ATOM      4  C   UNL     1       2.242   7.831  18.862  0.00  0.00    +0.000 A 
ATOM      5  C   UNL     1       2.071   8.787  17.884  0.00  0.00    +0.000 A 
ATOM      6  C   UNL     1       1.415   9.975  18.210  0.00  0.00    +0.000 A 
ENDROOT
BRANCH   1  13
ATOM      7  C   UNL     1      -2.069  10.688  18.448  0.00  0.00    +0.000 C 
ATOM      8  C   UNL     1      -1.220  11.698  19.165  0.00  0.00    +0.000 A 
ATOM      9  C   UNL     1      -1.759  12.976  19.338  0.00  0.00    +0.000 A 
ATOM     10  C   UNL     1      -1.220  13.863  20.266  0.00  0.00    +0.000 A 
ATOM     11  C   UNL     1      -0.029  13.478  20.864  0.00  0.00    +0.000 A 
ATOM     12  N   UNL     1       0.614  12.312  20.600  0.00  0.00    +0.000 NA
ATOM     13  C   UNL     1       0.030  11.427  19.744  0.00  0.00    +0.000 A 
BRANCH  10  14
ATOM     14  C   UNL     1      -1.917  15.166  20.618  0.00  0.00    +0.000 C 
BRANCH  14  15
ATOM     15  N   UNL     1      -2.873  15.019  21.726  0.00  0.00    +0.000 NA
ATOM     16  C   UNL     1      -4.281  14.860  21.319  0.00  0.00    +0.000 C 
ATOM     17  C   UNL     1      -4.842  13.420  21.289  0.00  0.00    +0.000 C 
ATOM     18  N   UNL     1      -4.551  12.605  22.489  0.00  0.00    +0.000 NA
ATOM     19  C   UNL     1      -3.084  12.648  22.681  0.00  0.00    +0.000 C 
ATOM     20  C   UNL     1      -2.472  14.064  22.766  0.00  0.00    +0.000 C 
BRANCH  18  21
ATOM     21  C   UNL     1      -5.326  13.007  23.691  0.00  0.00    +0.000 C 
ATOM     22  C   UNL     1      -6.816  12.627  23.582  0.00  0.00    +0.000 C 
ATOM     23  C   UNL     1      -4.795  12.327  24.968  0.00  0.00    +0.000 C 
ENDBRANCH  18  21
ENDBRANCH  14  15
ENDBRANCH  10  14
ENDBRANCH   1  13
BRANCH   4  24
ATOM     24  C   UNL     1       2.884   6.518  18.576  0.00  0.00    +0.000 C 
ATOM     25  O   UNL     1       3.997   6.567  18.055  0.00  0.00    +0.000 OA
ATOM     26  N   UNL     1       2.159   5.383  18.881  0.00  0.00    +0.000 N 
ATOM     27  H   UNL     1       1.171   5.468  19.033  0.00  0.00    +0.000 HD
BRANCH  26  28
ATOM     28  C   UNL     1       2.679   4.058  18.752  0.00  0.00    +0.000 A 
ATOM     29  C   UNL     1       2.971   3.520  17.492  0.00  0.00    +0.000 A 
ATOM     30  C   UNL     1       3.404   2.207  17.340  0.00  0.00    +0.000 A 
ATOM     31  C   UNL     1       3.559   1.406  18.459  0.00  0.00    +0.000 A 
ATOM     32  C   UNL     1       3.294   1.928  19.730  0.00  0.00    +0.000 A 
ATOM     33  C   UNL     1       2.905   3.272  19.903  0.00  0.00    +0.000 A 
BRANCH  33  34
ATOM     34  N   UNL     1       2.533   3.689  21.198  0.00  0.00    +0.000 N 
ATOM     35  H   UNL     1       3.282   4.169  21.693  0.00  0.00    +0.000 HD
ATOM     36  H   UNL     1       1.672   4.220  21.233  0.00  0.00    +0.000 HD
ENDBRANCH  33  34
ENDBRANCH  26  28
ENDBRANCH   4  24
TORSDOF 7
ENDMDL
MODEL 7
REMARK VINA RESULT:      -8.0      1.308      1.968
REMARK  Name = 
REMARK  10 active torsions:
REMARK  status: ('A' for Active; 'I' for Inactive)
REMARK    1  A    between atoms: C_1  and  C_2
REMARK    2  A    between atoms: C_4  and  C_5
REMARK    3  A    between atoms: C_5  and  N_6
REMARK    4  A    between atoms: N_9  and  C_10
REMARK    5  A    between atoms: C_10  and  C_11
REMARK    6  A    between atoms: C_10  and  C_12
REMARK    7  A    between atoms: C_17  and  C_18
REMARK    8  A    between atoms: C_21  and  C_22
REMARK    9  A    between atoms: N_24  and  C_25
REMARK   10  A    between atoms: C_30  and  N_31
REMARK                            x       y       z     vdW  Elec       q    Type
REMARK                         _______ _______ _______ _____ _____    ______ ____
ROOT
ATOM      1  C   UNL     1       0.664   9.305  20.308  0.00  0.00    +0.000 A 
ATOM      2  C   UNL     1       1.109   8.096  20.860  0.00  0.00    +0.000 A 
ATOM      3  C   UNL     1       1.960   7.248  20.146  0.00  0.00    +0.000 A 
ATOM      4  C   UNL     1       2.374   7.588  18.849  0.00  0.00    +0.000 A 
ATOM      5  C   UNL     1       1.965   8.777  18.282  0.00  0.00    +0.000 A 
ATOM      6  C   UNL     1       1.166   9.641  19.033  0.00  0.00    +0.000 A 
ENDROOT
BRANCH   1  13
ATOM      7  C   UNL     1      -1.226  11.336  18.923  0.00  0.00    +0.000 C 
ATOM      8  C   UNL     1      -1.024  11.211  20.406  0.00  0.00    +0.000 A 
ATOM      9  C   UNL     1      -1.706  12.120  21.221  0.00  0.00    +0.000 A 
ATOM     10  C   UNL     1      -1.864  11.885  22.584  0.00  0.00    +0.000 A 
ATOM     11  C   UNL     1      -1.162  10.809  23.106  0.00  0.00    +0.000 A 
ATOM     12  N   UNL     1      -0.356   9.997  22.375  0.00  0.00    +0.000 NA
ATOM     13  C   UNL     1      -0.275  10.202  21.031  0.00  0.00    +0.000 A 
BRANCH  10  14
ATOM     14  C   UNL     1      -2.777  12.747  23.439  0.00  0.00    +0.000 C 
BRANCH  14  15
ATOM     15  N   UNL     1      -3.269  13.935  22.724  0.00  0.00    +0.000 NA
ATOM     16  C   UNL     1      -4.726  13.973  22.505  0.00  0.00    +0.000 C 
ATOM     17  C   UNL     1      -5.560  14.822  23.491  0.00  0.00    +0.000 C 
ATOM     18  N   UNL     1      -5.036  16.182  23.750  0.00  0.00    +0.000 NA
ATOM     19  C   UNL     1      -3.630  16.016  24.179  0.00  0.00    +0.000 C 
ATOM     20  C   UNL     1      -2.735  15.214  23.208  0.00  0.00    +0.000 C 
BRANCH  18  21
ATOM     21  C   UNL     1      -5.210  17.120  22.611  0.00  0.00    +0.000 C 
ATOM     22  C   UNL     1      -6.533  16.884  21.855  0.00  0.00    +0.000 C 
ATOM     23  C   UNL     1      -5.231  18.588  23.077  0.00  0.00    +0.000 C 
ENDBRANCH  18  21
ENDBRANCH  14  15
ENDBRANCH  10  14
ENDBRANCH   1  13
BRANCH   4  24
ATOM     24  C   UNL     1       3.181   6.593  18.092  0.00  0.00    +0.000 C 
ATOM     25  O   UNL     1       2.607   5.544  17.803  0.00  0.00    +0.000 OA
ATOM     26  N   UNL     1       4.496   6.921  17.825  0.00  0.00    +0.000 N 
ATOM     27  H   UNL     1       4.924   7.662  18.347  0.00  0.00    +0.000 HD
BRANCH  26  28
ATOM     28  C   UNL     1       5.363   6.110  17.029  0.00  0.00    +0.000 A 
ATOM     29  C   UNL     1       5.189   6.019  15.642  0.00  0.00    +0.000 A 
ATOM     30  C   UNL     1       5.972   5.176  14.860  0.00  0.00    +0.000 A 
ATOM     31  C   UNL     1       6.956   4.408  15.460  0.00  0.00    +0.000 A 
ATOM     32  C   UNL     1       7.163   4.498  16.841  0.00  0.00    +0.000 A 
ATOM     33  C   UNL     1       6.412   5.387  17.638  0.00  0.00    +0.000 A 
BRANCH  33  34
ATOM     34  N   UNL     1       6.589   5.329  19.036  0.00  0.00    +0.000 N 
ATOM     35  H   UNL     1       7.487   4.933  19.308  0.00  0.00    +0.000 HD
ATOM     36  H   UNL     1       6.416   6.205  19.513  0.00  0.00    +0.000 HD
ENDBRANCH  33  34
ENDBRANCH  26  28
ENDBRANCH   4  24
TORSDOF 7
ENDMDL
MODEL 8
REMARK VINA RESULT:      -7.9      1.563      2.106
REMARK  Name = 
REMARK  10 active torsions:
REMARK  status: ('A' for Active; 'I' for Inactive)
REMARK    1  A    between atoms: C_1  and  C_2
REMARK    2  A    between atoms: C_4  and  C_5
REMARK    3  A    between atoms: C_5  and  N_6
REMARK    4  A    between atoms: N_9  and  C_10
REMARK    5  A    between atoms: C_10  and  C_11
REMARK    6  A    between atoms: C_10  and  C_12
REMARK    7  A    between atoms: C_17  and  C_18
REMARK    8  A    between atoms: C_21  and  C_22
REMARK    9  A    between atoms: N_24  and  C_25
REMARK   10  A    between atoms: C_30  and  N_31
REMARK                            x       y       z     vdW  Elec       q    Type
REMARK                         _______ _______ _______ _____ _____    ______ ____
ROOT
ATOM      1  C   UNL     1       0.791  10.263  19.453  0.00  0.00    +0.000 A 
ATOM      2  C   UNL     1       1.364  10.107  18.183  0.00  0.00    +0.000 A 
ATOM      3  C   UNL     1       2.102   8.965  17.862  0.00  0.00    +0.000 A 
ATOM      4  C   UNL     1       2.293   7.953  18.815  0.00  0.00    +0.000 A 
ATOM      5  C   UNL     1       1.730   8.069  20.068  0.00  0.00    +0.000 A 
ATOM      6  C   UNL     1       0.945   9.187  20.353  0.00  0.00    +0.000 A 
ENDROOT
BRANCH   1  13
ATOM      7  C   UNL     1      -2.107  10.885  18.542  0.00  0.00    +0.000 C 
ATOM      8  C   UNL     1      -1.217  11.824  19.304  0.00  0.00    +0.000 A 
ATOM      9  C   UNL     1      -1.722  13.099  19.577  0.00  0.00    +0.000 A 
ATOM     10  C   UNL     1      -1.141  13.909  20.549  0.00  0.00    +0.000 A 
ATOM     11  C   UNL     1       0.055  13.458  21.089  0.00  0.00    +0.000 A 
ATOM     12  N   UNL     1       0.664  12.298  20.730  0.00  0.00    +0.000 NA
ATOM     13  C   UNL     1       0.039  11.487  19.832  0.00  0.00    +0.000 A 
BRANCH  10  14
ATOM     14  C   UNL     1      -1.798  15.199  21.006  0.00  0.00    +0.000 C 
BRANCH  14  15
ATOM     15  N   UNL     1      -2.779  14.988  22.082  0.00  0.00    +0.000 NA
ATOM     16  C   UNL     1      -4.189  15.000  21.653  0.00  0.00    +0.000 C 
ATOM     17  C   UNL     1      -4.865  13.628  21.431  0.00  0.00    +0.000 C 
ATOM     18  N   UNL     1      -4.659  12.642  22.515  0.00  0.00    +0.000 NA
ATOM     19  C   UNL     1      -3.197  12.539  22.716  0.00  0.00    +0.000 C 
ATOM     20  C   UNL     1      -2.473  13.875  22.989  0.00  0.00    +0.000 C 
BRANCH  18  21
ATOM     21  C   UNL     1      -5.416  12.947  23.757  0.00  0.00    +0.000 C 
ATOM     22  C   UNL     1      -6.885  12.484  23.675  0.00  0.00    +0.000 C 
ATOM     23  C   UNL     1      -4.806  12.245  24.985  0.00  0.00    +0.000 C 
ENDBRANCH  18  21
ENDBRANCH  14  15
ENDBRANCH  10  14
ENDBRANCH   1  13
BRANCH   4  24
ATOM     24  C   UNL     1       3.186   6.817  18.456  0.00  0.00    +0.000 C 
ATOM     25  O   UNL     1       3.093   5.816  19.165  0.00  0.00    +0.000 OA
ATOM     26  N   UNL     1       4.053   7.008  17.398  0.00  0.00    +0.000 N 
ATOM     27  H   UNL     1       4.235   7.943  17.086  0.00  0.00    +0.000 HD
BRANCH  26  28
ATOM     28  C   UNL     1       4.899   5.980  16.878  0.00  0.00    +0.000 A 
ATOM     29  C   UNL     1       4.378   4.725  16.535  0.00  0.00    +0.000 A 
ATOM     30  C   UNL     1       5.196   3.687  16.103  0.00  0.00    +0.000 A 
ATOM     31  C   UNL     1       6.562   3.893  15.999  0.00  0.00    +0.000 A 
ATOM     32  C   UNL     1       7.102   5.144  16.315  0.00  0.00    +0.000 A 
ATOM     33  C   UNL     1       6.280   6.220  16.705  0.00  0.00    +0.000 A 
BRANCH  33  34
ATOM     34  N   UNL     1       6.907   7.410  17.130  0.00  0.00    +0.000 N 
ATOM     35  H   UNL     1       7.615   7.741  16.478  0.00  0.00    +0.000 HD
ATOM     36  H   UNL     1       6.266   8.151  17.382  0.00  0.00    +0.000 HD
ENDBRANCH  33  34
ENDBRANCH  26  28
ENDBRANCH   4  24
TORSDOF 7
ENDMDL
MODEL 9
REMARK VINA RESULT:      -7.9      2.038      3.313
REMARK  Name = 
REMARK  10 active torsions:
REMARK  status: ('A' for Active; 'I' for Inactive)
REMARK    1  A    between atoms: C_1  and  C_2
REMARK    2  A    between atoms: C_4  and  C_5
REMARK    3  A    between atoms: C_5  and  N_6
REMARK    4  A    between atoms: N_9  and  C_10
REMARK    5  A    between atoms: C_10  and  C_11
REMARK    6  A    between atoms: C_10  and  C_12
REMARK    7  A    between atoms: C_17  and  C_18
REMARK    8  A    between atoms: C_21  and  C_22
REMARK    9  A    between atoms: N_24  and  C_25
REMARK   10  A    between atoms: C_30  and  N_31
REMARK                            x       y       z     vdW  Elec       q    Type
REMARK                         _______ _______ _______ _____ _____    ______ ____
ROOT
ATOM      1  C   UNL     1       0.711   9.541  20.295  0.00  0.00    +0.000 A 
ATOM      2  C   UNL     1       1.129   8.332  20.869  0.00  0.00    +0.000 A 
ATOM      3  C   UNL     1       1.932   7.438  20.158  0.00  0.00    +0.000 A 
ATOM      4  C   UNL     1       2.326   7.729  18.842  0.00  0.00    +0.000 A 
ATOM      5  C   UNL     1       1.943   8.916  18.254  0.00  0.00    +0.000 A 
ATOM      6  C   UNL     1       1.192   9.826  19.000  0.00  0.00    +0.000 A 
ENDROOT
BRANCH   1  13
ATOM      7  C   UNL     1       0.208   9.480  23.354  0.00  0.00    +0.000 C 
ATOM      8  C   UNL     1      -0.507  10.367  22.375  0.00  0.00    +0.000 A 
ATOM      9  C   UNL     1      -1.515  11.192  22.882  0.00  0.00    +0.000 A 
ATOM     10  C   UNL     1      -1.992  12.276  22.150  0.00  0.00    +0.000 A 
ATOM     11  C   UNL     1      -1.546  12.376  20.840  0.00  0.00    +0.000 A 
ATOM     12  N   UNL     1      -0.689  11.498  20.257  0.00  0.00    +0.000 NA
ATOM     13  C   UNL     1      -0.179  10.488  21.016  0.00  0.00    +0.000 A 
BRANCH  10  14
ATOM     14  C   UNL     1      -2.927  13.302  22.766  0.00  0.00    +0.000 C 
BRANCH  14  15
ATOM     15  N   UNL     1      -2.263  14.146  23.771  0.00  0.00    +0.000 NA
ATOM     16  C   UNL     1      -1.022  14.800  23.317  0.00  0.00    +0.000 C 
ATOM     17  C   UNL     1      -1.133  16.273  22.864  0.00  0.00    +0.000 C 
ATOM     18  N   UNL     1      -1.883  17.159  23.782  0.00  0.00    +0.000 NA
ATOM     19  C   UNL     1      -3.201  16.522  23.999  0.00  0.00    +0.000 C 
ATOM     20  C   UNL     1      -3.152  15.061  24.497  0.00  0.00    +0.000 C 
BRANCH  18  21
ATOM     21  C   UNL     1      -1.156  17.477  25.039  0.00  0.00    +0.000 C 
ATOM     22  C   UNL     1       0.186  18.188  24.775  0.00  0.00    +0.000 C 
ATOM     23  C   UNL     1      -1.972  18.411  25.952  0.00  0.00    +0.000 C 
ENDBRANCH  18  21
ENDBRANCH  14  15
ENDBRANCH  10  14
ENDBRANCH   1  13
BRANCH   4  24
ATOM     24  C   UNL     1       3.080   6.687  18.094  0.00  0.00    +0.000 C 
ATOM     25  O   UNL     1       2.465   5.651  17.848  0.00  0.00    +0.000 OA
ATOM     26  N   UNL     1       4.398   6.964  17.785  0.00  0.00    +0.000 N 
ATOM     27  H   UNL     1       4.863   7.704  18.275  0.00  0.00    +0.000 HD
BRANCH  26  28
ATOM     28  C   UNL     1       5.217   6.104  16.990  0.00  0.00    +0.000 A 
ATOM     29  C   UNL     1       5.108   6.096  15.593  0.00  0.00    +0.000 A 
ATOM     30  C   UNL     1       5.839   5.212  14.807  0.00  0.00    +0.000 A 
ATOM     31  C   UNL     1       6.704   4.316  15.413  0.00  0.00    +0.000 A 
ATOM     32  C   UNL     1       6.846   4.319  16.805  0.00  0.00    +0.000 A 
ATOM     33  C   UNL     1       6.150   5.244  17.610  0.00  0.00    +0.000 A 
BRANCH  33  34
ATOM     34  N   UNL     1       6.246   5.103  19.009  0.00  0.00    +0.000 N 
ATOM     35  H   UNL     1       7.195   4.914  19.327  0.00  0.00    +0.000 HD
ATOM     36  H   UNL     1       5.828   5.861  19.534  0.00  0.00    +0.000 HD
ENDBRANCH  33  34
ENDBRANCH  26  28
ENDBRANCH   4  24
TORSDOF 7
ENDMDL
