MODEL 1
REMARK VINA RESULT:      -8.4      0.000      0.000
REMARK  Name = 
REMARK  7 active torsions:
REMARK  status: ('A' for Active; 'I' for Inactive)
REMARK    1  A    between atoms: C_1  and  C_2
REMARK    2  A    between atoms: C_4  and  O_5
REMARK    3  A    between atoms: O_5  and  C_6
REMARK    4  A    between atoms: C_6  and  C_7
REMARK    5  A    between atoms: C_7  and  N_8
REMARK    6  A    between atoms: C_11  and  N_12
REMARK    7  A    between atoms: N_24  and  C_25
REMARK                            x       y       z     vdW  Elec       q    Type
REMARK                         _______ _______ _______ _____ _____    ______ ____
ROOT
ATOM      1  C   UNL     1       0.822   4.376  20.541  0.00  0.00    +0.000 C 
ENDROOT
BRANCH   1   2
ATOM      2  O   UNL     1       1.676   5.359  21.138  0.00  0.00    +0.000 OA
BRANCH   2   6
ATOM      3  C   UNL     1       2.807   8.766  17.732  0.00  0.00    +0.000 C 
ATOM      4  C   UNL     1       2.192   7.983  18.834  0.00  0.00    +0.000 A 
ATOM      5  C   UNL     1       2.377   6.648  19.157  0.00  0.00    +0.000 A 
ATOM      6  C   UNL     1       1.748   6.492  20.394  0.00  0.00    +0.000 A 
ATOM      7  N   UNL     1       1.222   7.627  20.844  0.00  0.00    +0.000 NA
ATOM      8  N   UNL     1       1.385   8.511  19.835  0.00  0.00    +0.000 N 
BRANCH   8   9
ATOM      9  C   UNL     1       0.736   9.774  19.932  0.00  0.00    +0.000 A 
ATOM     10  C   UNL     1       1.001  10.659  20.982  0.00  0.00    +0.000 A 
ATOM     11  C   UNL     1       0.375  11.910  21.020  0.00  0.00    +0.000 A 
ATOM     12  C   UNL     1      -0.524  12.284  20.015  0.00  0.00    +0.000 A 
ATOM     13 CL   UNL     1      -1.257  13.843  20.135  0.00  0.00    +0.000 Cl
ATOM     14  C   UNL     1      -0.786  11.408  18.958  0.00  0.00    +0.000 A 
ATOM     15 CL   UNL     1      -1.896  11.794  17.693  0.00  0.00    +0.000 Cl
ATOM     16  C   UNL     1      -0.144  10.167  18.908  0.00  0.00    +0.000 A 
ENDBRANCH   8   9
ENDBRANCH   2   6
ENDBRANCH   1   2
BRANCH   1  17
ATOM     17  C   UNL     1       1.271   2.940  20.859  0.00  0.00    +0.000 C 
BRANCH  17  18
ATOM     18  N   UNL     1       2.372   2.486  19.971  0.00  0.00    +0.000 NA
ATOM     19  C   UNL     1       2.097   2.800  18.565  0.00  0.00    +0.000 C 
ATOM     20  C   UNL     1       3.210   2.320  17.635  0.00  0.00    +0.000 C 
ATOM     21  C   UNL     1       4.588   2.855  18.045  0.00  0.00    +0.000 C 
ATOM     22  C   UNL     1       4.808   2.548  19.534  0.00  0.00    +0.000 C 
ATOM     23  C   UNL     1       3.659   3.041  20.411  0.00  0.00    +0.000 C 
BRANCH  21  24
ATOM     24  N   UNL     1       4.843   4.241  17.668  0.00  0.00    +0.000 N 
ATOM     25  C   UNL     1       4.261   4.959  16.646  0.00  0.00    +0.000 A 
ATOM     26  N   UNL     1       4.887   6.094  16.405  0.00  0.00    +0.000 NA
ATOM     27  C   UNL     1       5.927   6.114  17.286  0.00  0.00    +0.000 A 
ATOM     28  C   UNL     1       6.967   7.034  17.444  0.00  0.00    +0.000 A 
ATOM     29  C   UNL     1       7.900   6.773  18.446  0.00  0.00    +0.000 A 
ATOM     30  C   UNL     1       7.750   5.633  19.231  0.00  0.00    +0.000 A 
ATOM     31  N   UNL     1       6.776   4.697  19.102  0.00  0.00    +0.000 NA
ATOM     32  C   UNL     1       5.906   4.995  18.115  0.00  0.00    +0.000 A 
ENDBRANCH  21  24
ENDBRANCH  17  18
ENDBRANCH   1  17
TORSDOF 6
ENDMDL
MODEL 2
REMARK VINA RESULT:      -8.2      3.877      9.275
REMARK  Name = 
REMARK  7 active torsions:
REMARK  status: ('A' for Active; 'I' for Inactive)
REMARK    1  A    between atoms: C_1  and  C_2
REMARK    2  A    between atoms: C_4  and  O_5
REMARK    3  A    between atoms: O_5  and  C_6
REMARK    4  A    between atoms: C_6  and  C_7
REMARK    5  A    between atoms: C_7  and  N_8
REMARK    6  A    between atoms: C_11  and  N_12
REMARK    7  A    between atoms: N_24  and  C_25
REMARK                            x       y       z     vdW  Elec       q    Type
REMARK                         _______ _______ _______ _____ _____    ______ ____
ROOT
ATOM      1  C   UNL     1       1.587   8.299  21.163  0.00  0.00    +0.000 C 
ENDROOT
BRANCH   1   2
ATOM      2  O   UNL     1       0.886   7.065  20.967  0.00  0.00    +0.000 OA
BRANCH   2   6
ATOM      3  C   UNL     1       3.333   2.803  20.383  0.00  0.00    +0.000 C 
ATOM      4  C   UNL     1       2.739   4.154  20.220  0.00  0.00    +0.000 A 
ATOM      5  C   UNL     1       1.707   4.740  20.936  0.00  0.00    +0.000 A 
ATOM      6  C   UNL     1       1.706   6.076  20.528  0.00  0.00    +0.000 A 
ATOM      7  N   UNL     1       2.665   6.340  19.646  0.00  0.00    +0.000 NA
ATOM      8  N   UNL     1       3.218   5.139  19.364  0.00  0.00    +0.000 N 
BRANCH   8   9
ATOM      9  C   UNL     1       4.147   5.060  18.288  0.00  0.00    +0.000 A 
ATOM     10  C   UNL     1       3.933   4.220  17.191  0.00  0.00    +0.000 A 
ATOM     11  C   UNL     1       4.849   4.202  16.133  0.00  0.00    +0.000 A 
ATOM     12  C   UNL     1       5.987   5.015  16.165  0.00  0.00    +0.000 A 
ATOM     13 CL   UNL     1       7.070   4.933  14.823  0.00  0.00    +0.000 Cl
ATOM     14  C   UNL     1       6.201   5.864  17.254  0.00  0.00    +0.000 A 
ATOM     15 CL   UNL     1       7.590   6.884  17.371  0.00  0.00    +0.000 Cl
ATOM     16  C   UNL     1       5.275   5.900  18.302  0.00  0.00    +0.000 A 
ENDBRANCH   8   9
ENDBRANCH   2   6
ENDBRANCH   1   2
BRANCH   1  17
ATOM     17  C   UNL     1       1.022   9.112  22.340  0.00  0.00    +0.000 C 
BRANCH  17  18
ATOM     18  N   UNL     1       0.553  10.458  21.918  0.00  0.00    +0.000 NA
ATOM     19  C   UNL     1       0.940  10.756  20.535  0.00  0.00    +0.000 C 
ATOM     20  C   UNL     1       0.484  12.146  20.092  0.00  0.00    +0.000 C 
ATOM     21  C   UNL     1      -1.024  12.356  20.285  0.00  0.00    +0.000 C 
ATOM     22  C   UNL     1      -1.388  11.983  21.730  0.00  0.00    +0.000 C 
ATOM     23  C   UNL     1      -0.897  10.590  22.118  0.00  0.00    +0.000 C 
BRANCH  21  24
ATOM     24  N   UNL     1      -1.864  11.734  19.268  0.00  0.00    +0.000 N 
ATOM     25  C   UNL     1      -1.461  11.029  18.155  0.00  0.00    +0.000 A 
ATOM     26  N   UNL     1      -2.446  10.819  17.305  0.00  0.00    +0.000 NA
ATOM     27  C   UNL     1      -3.530  11.424  17.869  0.00  0.00    +0.000 A 
ATOM     28  C   UNL     1      -4.832  11.587  17.388  0.00  0.00    +0.000 A 
ATOM     29  C   UNL     1      -5.731  12.268  18.208  0.00  0.00    +0.000 A 
ATOM     30  C   UNL     1      -5.298  12.737  19.446  0.00  0.00    +0.000 A 
ATOM     31  N   UNL     1      -4.042  12.628  19.946  0.00  0.00    +0.000 NA
ATOM     32  C   UNL     1      -3.213  11.968  19.111  0.00  0.00    +0.000 A 
ENDBRANCH  21  24
ENDBRANCH  17  18
ENDBRANCH   1  17
TORSDOF 6
ENDMDL
MODEL 3
REMARK VINA RESULT:      -8.1      1.579      2.356
REMARK  Name = 
REMARK  7 active torsions:
REMARK  status: ('A' for Active; 'I' for Inactive)
REMARK    1  A    between atoms: C_1  and  C_2
REMARK    2  A    between atoms: C_4  and  O_5
REMARK    3  A    between atoms: O_5  and  C_6
REMARK    4  A    between atoms: C_6  and  C_7
REMARK    5  A    between atoms: C_7  and  N_8
REMARK    6  A    between atoms: C_11  and  N_12
REMARK    7  A    between atoms: N_24  and  C_25
REMARK                            x       y       z     vdW  Elec       q    Type
REMARK                         _______ _______ _______ _____ _____    ______ ____
ROOT
ATOM      1  C   UNL     1       1.614   5.728  20.954  0.00  0.00    +0.000 C 
ENDROOT
BRANCH   1   2
ATOM      2  O   UNL     1       1.899   6.874  20.142  0.00  0.00    +0.000 OA
BRANCH   2   6
ATOM      3  C   UNL     1      -0.456  10.198  22.953  0.00  0.00    +0.000 C 
ATOM      4  C   UNL     1       0.334   9.501  21.905  0.00  0.00    +0.000 A 
ATOM      5  C   UNL     1       0.878   8.227  21.933  0.00  0.00    +0.000 A 
ATOM      6  C   UNL     1       1.313   7.999  20.625  0.00  0.00    +0.000 A 
ATOM      7  N   UNL     1       1.053   9.022  19.816  0.00  0.00    +0.000 NA
ATOM      8  N   UNL     1       0.567   9.990  20.625  0.00  0.00    +0.000 N 
BRANCH   8   9
ATOM      9  C   UNL     1       0.385  11.294  20.083  0.00  0.00    +0.000 A 
ATOM     10  C   UNL     1      -0.846  11.712  19.570  0.00  0.00    +0.000 A 
ATOM     11  C   UNL     1      -0.997  13.017  19.085  0.00  0.00    +0.000 A 
ATOM     12  C   UNL     1       0.081  13.909  19.102  0.00  0.00    +0.000 A 
ATOM     13 CL   UNL     1      -0.185  15.499  18.483  0.00  0.00    +0.000 Cl
ATOM     14  C   UNL     1       1.311  13.499  19.622  0.00  0.00    +0.000 A 
ATOM     15 CL   UNL     1       2.690  14.539  19.661  0.00  0.00    +0.000 Cl
ATOM     16  C   UNL     1       1.457  12.203  20.128  0.00  0.00    +0.000 A 
ENDBRANCH   8   9
ENDBRANCH   2   6
ENDBRANCH   1   2
BRANCH   1  17
ATOM     17  C   UNL     1       1.007   4.572  20.142  0.00  0.00    +0.000 C 
BRANCH  17  18
ATOM     18  N   UNL     1       2.024   3.869  19.318  0.00  0.00    +0.000 NA
ATOM     19  C   UNL     1       1.945   4.266  17.908  0.00  0.00    +0.000 C 
ATOM     20  C   UNL     1       2.970   3.536  17.041  0.00  0.00    +0.000 C 
ATOM     21  C   UNL     1       4.402   3.700  17.565  0.00  0.00    +0.000 C 
ATOM     22  C   UNL     1       4.425   3.322  19.054  0.00  0.00    +0.000 C 
ATOM     23  C   UNL     1       3.372   4.074  19.865  0.00  0.00    +0.000 C 
BRANCH  21  24
ATOM     24  N   UNL     1       5.025   4.983  17.255  0.00  0.00    +0.000 N 
ATOM     25  C   UNL     1       4.866   5.745  16.119  0.00  0.00    +0.000 A 
ATOM     26  N   UNL     1       5.755   6.715  16.033  0.00  0.00    +0.000 NA
ATOM     27  C   UNL     1       6.536   6.573  17.142  0.00  0.00    +0.000 A 
ATOM     28  C   UNL     1       7.676   7.272  17.545  0.00  0.00    +0.000 A 
ATOM     29  C   UNL     1       8.268   6.884  18.746  0.00  0.00    +0.000 A 
ATOM     30  C   UNL     1       7.700   5.843  19.476  0.00  0.00    +0.000 A 
ATOM     31  N   UNL     1       6.611   5.117  19.117  0.00  0.00    +0.000 NA
ATOM     32  C   UNL     1       6.084   5.530  17.945  0.00  0.00    +0.000 A 
ENDBRANCH  21  24
ENDBRANCH  17  18
ENDBRANCH   1  17
TORSDOF 6
ENDMDL
MODEL 4
REMARK VINA RESULT:      -8.0      5.744      7.883
REMARK  Name = 
REMARK  7 active torsions:
REMARK  status: ('A' for Active; 'I' for Inactive)
REMARK    1  A    between atoms: C_1  and  C_2
REMARK    2  A    between atoms: C_4  and  O_5
REMARK    3  A    between atoms: O_5  and  C_6
REMARK    4  A    between atoms: C_6  and  C_7
REMARK    5  A    between atoms: C_7  and  N_8
REMARK    6  A    between atoms: C_11  and  N_12
REMARK    7  A    between atoms: N_24  and  C_25
REMARK                            x       y       z     vdW  Elec       q    Type
REMARK                         _______ _______ _______ _____ _____    ______ ____
ROOT
ATOM      1  C   UNL     1       8.263   8.695  18.153  0.00  0.00    +0.000 C 
ENDROOT
BRANCH   1   2
ATOM      2  O   UNL     1       8.890   9.442  19.203  0.00  0.00    +0.000 OA
BRANCH   2   6
ATOM      3  C   UNL     1      11.263  13.126  16.903  0.00  0.00    +0.000 C 
ATOM      4  C   UNL     1      10.322  12.296  17.698  0.00  0.00    +0.000 A 
ATOM      5  C   UNL     1      10.168  10.919  17.698  0.00  0.00    +0.000 A 
ATOM      6  C   UNL     1       9.321  10.657  18.777  0.00  0.00    +0.000 A 
ATOM      7  N   UNL     1       8.974  11.761  19.432  0.00  0.00    +0.000 NA
ATOM      8  N   UNL     1       9.485  12.775  18.700  0.00  0.00    +0.000 N 
BRANCH   8   9
ATOM      9  C   UNL     1       9.107  14.106  19.034  0.00  0.00    +0.000 A 
ATOM     10  C   UNL     1       8.159  14.812  18.287  0.00  0.00    +0.000 A 
ATOM     11  C   UNL     1       7.783  16.103  18.673  0.00  0.00    +0.000 A 
ATOM     12  C   UNL     1       8.354  16.702  19.801  0.00  0.00    +0.000 A 
ATOM     13 CL   UNL     1       7.839  18.298  20.209  0.00  0.00    +0.000 Cl
ATOM     14  C   UNL     1       9.295  15.998  20.557  0.00  0.00    +0.000 A 
ATOM     15 CL   UNL     1      10.054  16.677  21.951  0.00  0.00    +0.000 Cl
ATOM     16  C   UNL     1       9.655  14.698  20.186  0.00  0.00    +0.000 A 
ENDBRANCH   8   9
ENDBRANCH   2   6
ENDBRANCH   1   2
BRANCH   1  17
ATOM     17  C   UNL     1       8.163   7.196  18.481  0.00  0.00    +0.000 C 
BRANCH  17  18
ATOM     18  N   UNL     1       7.234   6.482  17.566  0.00  0.00    +0.000 NA
ATOM     19  C   UNL     1       6.771   5.217  18.146  0.00  0.00    +0.000 C 
ATOM     20  C   UNL     1       5.832   4.458  17.210  0.00  0.00    +0.000 C 
ATOM     21  C   UNL     1       4.639   5.311  16.760  0.00  0.00    +0.000 C 
ATOM     22  C   UNL     1       5.170   6.643  16.209  0.00  0.00    +0.000 C 
ATOM     23  C   UNL     1       6.111   7.347  17.183  0.00  0.00    +0.000 C 
BRANCH  21  24
ATOM     24  N   UNL     1       3.575   5.446  17.750  0.00  0.00    +0.000 N 
ATOM     25  C   UNL     1       3.365   6.487  18.627  0.00  0.00    +0.000 A 
ATOM     26  N   UNL     1       2.480   6.194  19.558  0.00  0.00    +0.000 NA
ATOM     27  C   UNL     1       2.109   4.908  19.295  0.00  0.00    +0.000 A 
ATOM     28  C   UNL     1       1.253   4.050  19.989  0.00  0.00    +0.000 A 
ATOM     29  C   UNL     1       1.075   2.769  19.466  0.00  0.00    +0.000 A 
ATOM     30  C   UNL     1       1.740   2.418  18.295  0.00  0.00    +0.000 A 
ATOM     31  N   UNL     1       2.600   3.204  17.598  0.00  0.00    +0.000 NA
ATOM     32  C   UNL     1       2.740   4.426  18.152  0.00  0.00    +0.000 A 
ENDBRANCH  21  24
ENDBRANCH  17  18
ENDBRANCH   1  17
TORSDOF 6
ENDMDL
MODEL 5
REMARK VINA RESULT:      -8.0      5.816      7.921
REMARK  Name = 
REMARK  7 active torsions:
REMARK  status: ('A' for Active; 'I' for Inactive)
REMARK    1  A    between atoms: C_1  and  C_2
REMARK    2  A    between atoms: C_4  and  O_5
REMARK    3  A    between atoms: O_5  and  C_6
REMARK    4  A    between atoms: C_6  and  C_7
REMARK    5  A    between atoms: C_7  and  N_8
REMARK    6  A    between atoms: C_11  and  N_12
REMARK    7  A    between atoms: N_24  and  C_25
REMARK                            x       y       z     vdW  Elec       q    Type
REMARK                         _______ _______ _______ _____ _____    ______ ____
ROOT
ATOM      1  C   UNL     1       7.792   8.951  17.989  0.00  0.00    +0.000 C 
ENDROOT
BRANCH   1   2
ATOM      2  O   UNL     1       8.957   9.675  17.577  0.00  0.00    +0.000 OA
BRANCH   2   6
ATOM      3  C   UNL     1       9.894  12.682  21.394  0.00  0.00    +0.000 C 
ATOM      4  C   UNL     1       9.686  12.087  20.049  0.00  0.00    +0.000 A 
ATOM      5  C   UNL     1       9.626  10.750  19.693  0.00  0.00    +0.000 A 
ATOM      6  C   UNL     1       9.192  10.755  18.365  0.00  0.00    +0.000 A 
ATOM      7  N   UNL     1       8.968  11.983  17.908  0.00  0.00    +0.000 NA
ATOM      8  N   UNL     1       9.388  12.804  18.896  0.00  0.00    +0.000 N 
BRANCH   8   9
ATOM      9  C   UNL     1       9.468  14.200  18.626  0.00  0.00    +0.000 A 
ATOM     10  C   UNL     1      10.561  14.758  17.956  0.00  0.00    +0.000 A 
ATOM     11  C   UNL     1      10.583  16.128  17.671  0.00  0.00    +0.000 A 
ATOM     12  C   UNL     1       9.521  16.951  18.059  0.00  0.00    +0.000 A 
ATOM     13 CL   UNL     1       9.625  18.631  17.673  0.00  0.00    +0.000 Cl
ATOM     14  C   UNL     1       8.421  16.397  18.720  0.00  0.00    +0.000 A 
ATOM     15 CL   UNL     1       7.081  17.353  19.244  0.00  0.00    +0.000 Cl
ATOM     16  C   UNL     1       8.387  15.024  18.985  0.00  0.00    +0.000 A 
ENDBRANCH   8   9
ENDBRANCH   2   6
ENDBRANCH   1   2
BRANCH   1  17
ATOM     17  C   UNL     1       8.103   7.482  18.321  0.00  0.00    +0.000 C 
BRANCH  17  18
ATOM     18  N   UNL     1       7.223   6.540  17.581  0.00  0.00    +0.000 NA
ATOM     19  C   UNL     1       6.798   5.420  18.427  0.00  0.00    +0.000 C 
ATOM     20  C   UNL     1       5.910   4.429  17.675  0.00  0.00    +0.000 C 
ATOM     21  C   UNL     1       4.694   5.106  17.030  0.00  0.00    +0.000 C 
ATOM     22  C   UNL     1       5.184   6.301  16.197  0.00  0.00    +0.000 C 
ATOM     23  C   UNL     1       6.075   7.248  16.998  0.00  0.00    +0.000 C 
BRANCH  21  24
ATOM     24  N   UNL     1       3.605   5.415  17.950  0.00  0.00    +0.000 N 
ATOM     25  C   UNL     1       3.127   6.657  18.306  0.00  0.00    +0.000 A 
ATOM     26  N   UNL     1       2.316   6.608  19.344  0.00  0.00    +0.000 NA
ATOM     27  C   UNL     1       2.274   5.291  19.694  0.00  0.00    +0.000 A 
ATOM     28  C   UNL     1       1.634   4.654  20.760  0.00  0.00    +0.000 A 
ATOM     29  C   UNL     1       1.786   3.271  20.858  0.00  0.00    +0.000 A 
ATOM     30  C   UNL     1       2.546   2.604  19.901  0.00  0.00    +0.000 A 
ATOM     31  N   UNL     1       3.207   3.177  18.864  0.00  0.00    +0.000 NA
ATOM     32  C   UNL     1       3.033   4.514  18.822  0.00  0.00    +0.000 A 
ENDBRANCH  21  24
ENDBRANCH  17  18
ENDBRANCH   1  17
TORSDOF 6
ENDMDL
MODEL 6
REMARK VINA RESULT:      -8.0      6.999      9.955
REMARK  Name = 
REMARK  7 active torsions:
REMARK  status: ('A' for Active; 'I' for Inactive)
REMARK    1  A    between atoms: C_1  and  C_2
REMARK    2  A    between atoms: C_4  and  O_5
REMARK    3  A    between atoms: O_5  and  C_6
REMARK    4  A    between atoms: C_6  and  C_7
REMARK    5  A    between atoms: C_7  and  N_8
REMARK    6  A    between atoms: C_11  and  N_12
REMARK    7  A    between atoms: N_24  and  C_25
REMARK                            x       y       z     vdW  Elec       q    Type
REMARK                         _______ _______ _______ _____ _____    ______ ____
ROOT
ATOM      1  C   UNL     1       8.276   8.933  17.780  0.00  0.00    +0.000 C 
ENDROOT
BRANCH   1   2
ATOM      2  O   UNL     1       8.113   7.642  18.380  0.00  0.00    +0.000 OA
BRANCH   2   6
ATOM      3  C   UNL     1       5.724   5.131  14.847  0.00  0.00    +0.000 C 
ATOM      4  C   UNL     1       6.221   5.684  16.133  0.00  0.00    +0.000 A 
ATOM      5  C   UNL     1       7.378   6.407  16.376  0.00  0.00    +0.000 A 
ATOM      6  C   UNL     1       7.240   6.865  17.689  0.00  0.00    +0.000 A 
ATOM      7  N   UNL     1       6.089   6.492  18.240  0.00  0.00    +0.000 NA
ATOM      8  N   UNL     1       5.520   5.667  17.334  0.00  0.00    +0.000 N 
BRANCH   8   9
ATOM      9  C   UNL     1       4.361   4.936  17.720  0.00  0.00    +0.000 A 
ATOM     10  C   UNL     1       3.111   5.549  17.842  0.00  0.00    +0.000 A 
ATOM     11  C   UNL     1       1.987   4.788  18.183  0.00  0.00    +0.000 A 
ATOM     12  C   UNL     1       2.104   3.412  18.410  0.00  0.00    +0.000 A 
ATOM     13 CL   UNL     1       0.671   2.544  18.829  0.00  0.00    +0.000 Cl
ATOM     14  C   UNL     1       3.349   2.792  18.280  0.00  0.00    +0.000 A 
ATOM     15 CL   UNL     1       3.573   1.103  18.561  0.00  0.00    +0.000 Cl
ATOM     16  C   UNL     1       4.469   3.548  17.917  0.00  0.00    +0.000 A 
ENDBRANCH   8   9
ENDBRANCH   2   6
ENDBRANCH   1   2
BRANCH   1  17
ATOM     17  C   UNL     1       8.608  10.022  18.813  0.00  0.00    +0.000 C 
BRANCH  17  18
ATOM     18  N   UNL     1       9.834  10.782  18.454  0.00  0.00    +0.000 NA
ATOM     19  C   UNL     1       9.514  11.989  17.684  0.00  0.00    +0.000 C 
ATOM     20  C   UNL     1      10.766  12.772  17.288  0.00  0.00    +0.000 C 
ATOM     21  C   UNL     1      11.645  13.122  18.496  0.00  0.00    +0.000 C 
ATOM     22  C   UNL     1      11.908  11.838  19.297  0.00  0.00    +0.000 C 
ATOM     23  C   UNL     1      10.623  11.094  19.653  0.00  0.00    +0.000 C 
BRANCH  21  24
ATOM     24  N   UNL     1      11.169  14.247  19.293  0.00  0.00    +0.000 N 
ATOM     25  C   UNL     1      10.678  14.222  20.580  0.00  0.00    +0.000 A 
ATOM     26  N   UNL     1      10.097  15.355  20.922  0.00  0.00    +0.000 NA
ATOM     27  C   UNL     1      10.193  16.145  19.815  0.00  0.00    +0.000 A 
ATOM     28  C   UNL     1       9.692  17.426  19.568  0.00  0.00    +0.000 A 
ATOM     29  C   UNL     1       9.953  17.979  18.314  0.00  0.00    +0.000 A 
ATOM     30  C   UNL     1      10.692  17.244  17.391  0.00  0.00    +0.000 A 
ATOM     31  N   UNL     1      11.177  15.990  17.572  0.00  0.00    +0.000 NA
ATOM     32  C   UNL     1      10.890  15.502  18.796  0.00  0.00    +0.000 A 
ENDBRANCH  21  24
ENDBRANCH  17  18
ENDBRANCH   1  17
TORSDOF 6
ENDMDL
MODEL 7
REMARK VINA RESULT:      -8.0      5.797      8.175
REMARK  Name = 
REMARK  7 active torsions:
REMARK  status: ('A' for Active; 'I' for Inactive)
REMARK    1  A    between atoms: C_1  and  C_2
REMARK    2  A    between atoms: C_4  and  O_5
REMARK    3  A    between atoms: O_5  and  C_6
REMARK    4  A    between atoms: C_6  and  C_7
REMARK    5  A    between atoms: C_7  and  N_8
REMARK    6  A    between atoms: C_11  and  N_12
REMARK    7  A    between atoms: N_24  and  C_25
REMARK                            x       y       z     vdW  Elec       q    Type
REMARK                         _______ _______ _______ _____ _____    ______ ____
ROOT
ATOM      1  C   UNL     1       7.986   8.434  17.944  0.00  0.00    +0.000 C 
ENDROOT
BRANCH   1   2
ATOM      2  O   UNL     1       7.671   9.805  17.669  0.00  0.00    +0.000 OA
BRANCH   2   6
ATOM      3  C   UNL     1      11.416  11.834  20.189  0.00  0.00    +0.000 C 
ATOM      4  C   UNL     1      10.326  11.534  19.226  0.00  0.00    +0.000 A 
ATOM      5  C   UNL     1       9.691  10.326  18.983  0.00  0.00    +0.000 A 
ATOM      6  C   UNL     1       8.610  10.653  18.161  0.00  0.00    +0.000 A 
ATOM      7  N   UNL     1       8.536  11.957  17.911  0.00  0.00    +0.000 NA
ATOM      8  N   UNL     1       9.654  12.480  18.459  0.00  0.00    +0.000 N 
BRANCH   8   9
ATOM      9  C   UNL     1       9.970  13.840  18.181  0.00  0.00    +0.000 A 
ATOM     10  C   UNL     1      11.050  14.194  17.367  0.00  0.00    +0.000 A 
ATOM     11  C   UNL     1      11.302  15.540  17.083  0.00  0.00    +0.000 A 
ATOM     12  C   UNL     1      10.484  16.543  17.613  0.00  0.00    +0.000 A 
ATOM     13 CL   UNL     1      10.863  18.181  17.218  0.00  0.00    +0.000 Cl
ATOM     14  C   UNL     1       9.397  16.196  18.420  0.00  0.00    +0.000 A 
ATOM     15 CL   UNL     1       8.353  17.379  19.123  0.00  0.00    +0.000 Cl
ATOM     16  C   UNL     1       9.130  14.849  18.686  0.00  0.00    +0.000 A 
ENDBRANCH   8   9
ENDBRANCH   2   6
ENDBRANCH   1   2
BRANCH   1  17
ATOM     17  C   UNL     1       7.756   7.525  16.725  0.00  0.00    +0.000 C 
BRANCH  17  18
ATOM     18  N   UNL     1       7.322   6.159  17.118  0.00  0.00    +0.000 NA
ATOM     19  C   UNL     1       7.029   6.077  18.553  0.00  0.00    +0.000 C 
ATOM     20  C   UNL     1       6.602   4.673  18.979  0.00  0.00    +0.000 C 
ATOM     21  C   UNL     1       5.418   4.147  18.158  0.00  0.00    +0.000 C 
ATOM     22  C   UNL     1       5.750   4.300  16.666  0.00  0.00    +0.000 C 
ATOM     23  C   UNL     1       6.181   5.720  16.304  0.00  0.00    +0.000 C 
BRANCH  21  24
ATOM     24  N   UNL     1       4.117   4.682  18.548  0.00  0.00    +0.000 N 
ATOM     25  C   UNL     1       3.720   6.001  18.570  0.00  0.00    +0.000 A 
ATOM     26  N   UNL     1       2.580   6.175  19.209  0.00  0.00    +0.000 NA
ATOM     27  C   UNL     1       2.226   4.930  19.638  0.00  0.00    +0.000 A 
ATOM     28  C   UNL     1       1.150   4.512  20.425  0.00  0.00    +0.000 A 
ATOM     29  C   UNL     1       1.058   3.149  20.704  0.00  0.00    +0.000 A 
ATOM     30  C   UNL     1       2.021   2.285  20.187  0.00  0.00    +0.000 A 
ATOM     31  N   UNL     1       3.096   2.643  19.441  0.00  0.00    +0.000 NA
ATOM     32  C   UNL     1       3.139   3.971  19.208  0.00  0.00    +0.000 A 
ENDBRANCH  21  24
ENDBRANCH  17  18
ENDBRANCH   1  17
TORSDOF 6
ENDMDL
MODEL 8
REMARK VINA RESULT:      -7.9      2.316      4.208
REMARK  Name = 
REMARK  7 active torsions:
REMARK  status: ('A' for Active; 'I' for Inactive)
REMARK    1  A    between atoms: C_1  and  C_2
REMARK    2  A    between atoms: C_4  and  O_5
REMARK    3  A    between atoms: O_5  and  C_6
REMARK    4  A    between atoms: C_6  and  C_7
REMARK    5  A    between atoms: C_7  and  N_8
REMARK    6  A    between atoms: C_11  and  N_12
REMARK    7  A    between atoms: N_24  and  C_25
REMARK                            x       y       z     vdW  Elec       q    Type
REMARK                         _______ _______ _______ _____ _____    ______ ____
ROOT
ATOM      1  C   UNL     1       0.480   8.391  21.933  0.00  0.00    +0.000 C 
ENDROOT
BRANCH   1   2
ATOM      2  O   UNL     1       0.287   9.747  22.355  0.00  0.00    +0.000 OA
BRANCH   2   6
ATOM      3  C   UNL     1      -0.387  13.597  19.320  0.00  0.00    +0.000 C 
ATOM      4  C   UNL     1      -0.310  12.248  19.937  0.00  0.00    +0.000 A 
ATOM      5  C   UNL     1       0.370  11.854  21.077  0.00  0.00    +0.000 A 
ATOM      6  C   UNL     1      -0.076  10.554  21.326  0.00  0.00    +0.000 A 
ATOM      7  N   UNL     1      -0.982  10.149  20.440  0.00  0.00    +0.000 NA
ATOM      8  N   UNL     1      -1.034  11.137  19.520  0.00  0.00    +0.000 N 
BRANCH   8   9
ATOM      9  C   UNL     1      -1.771  10.906  18.323  0.00  0.00    +0.000 A 
ATOM     10  C   UNL     1      -1.301  10.051  17.323  0.00  0.00    +0.000 A 
ATOM     11  C   UNL     1      -2.074   9.816  16.180  0.00  0.00    +0.000 A 
ATOM     12  C   UNL     1      -3.317  10.439  16.024  0.00  0.00    +0.000 A 
ATOM     13 CL   UNL     1      -4.208  10.101  14.585  0.00  0.00    +0.000 Cl
ATOM     14  C   UNL     1      -3.797  11.288  17.025  0.00  0.00    +0.000 A 
ATOM     15 CL   UNL     1      -5.313  12.105  16.895  0.00  0.00    +0.000 Cl
ATOM     16  C   UNL     1      -3.035  11.505  18.178  0.00  0.00    +0.000 A 
ENDBRANCH   8   9
ENDBRANCH   2   6
ENDBRANCH   1   2
BRANCH   1  17
ATOM     17  C   UNL     1       1.798   8.198  21.164  0.00  0.00    +0.000 C 
BRANCH  17  18
ATOM     18  N   UNL     1       1.681   7.169  20.098  0.00  0.00    +0.000 NA
ATOM     19  C   UNL     1       2.485   7.517  18.922  0.00  0.00    +0.000 C 
ATOM     20  C   UNL     1       2.360   6.480  17.806  0.00  0.00    +0.000 C 
ATOM     21  C   UNL     1       2.694   5.061  18.285  0.00  0.00    +0.000 C 
ATOM     22  C   UNL     1       1.867   4.763  19.545  0.00  0.00    +0.000 C 
ATOM     23  C   UNL     1       2.024   5.839  20.618  0.00  0.00    +0.000 C 
BRANCH  21  24
ATOM     24  N   UNL     1       4.119   4.779  18.415  0.00  0.00    +0.000 N 
ATOM     25  C   UNL     1       4.906   4.902  19.539  0.00  0.00    +0.000 A 
ATOM     26  N   UNL     1       6.193   4.817  19.268  0.00  0.00    +0.000 NA
ATOM     27  C   UNL     1       6.255   4.651  17.916  0.00  0.00    +0.000 A 
ATOM     28  C   UNL     1       7.357   4.572  17.061  0.00  0.00    +0.000 A 
ATOM     29  C   UNL     1       7.096   4.404  15.701  0.00  0.00    +0.000 A 
ATOM     30  C   UNL     1       5.774   4.316  15.272  0.00  0.00    +0.000 A 
ATOM     31  N   UNL     1       4.671   4.412  16.057  0.00  0.00    +0.000 NA
ATOM     32  C   UNL     1       4.981   4.581  17.358  0.00  0.00    +0.000 A 
ENDBRANCH  21  24
ENDBRANCH  17  18
ENDBRANCH   1  17
TORSDOF 6
ENDMDL
MODEL 9
REMARK VINA RESULT:      -7.9      5.926      8.363
REMARK  Name = 
REMARK  7 active torsions:
REMARK  status: ('A' for Active; 'I' for Inactive)
REMARK    1  A    between atoms: C_1  and  C_2
REMARK    2  A    between atoms: C_4  and  O_5
REMARK    3  A    between atoms: O_5  and  C_6
REMARK    4  A    between atoms: C_6  and  C_7
REMARK    5  A    between atoms: C_7  and  N_8
REMARK    6  A    between atoms: C_11  and  N_12
REMARK    7  A    between atoms: N_24  and  C_25
REMARK                            x       y       z     vdW  Elec       q    Type
REMARK                         _______ _______ _______ _____ _____    ______ ____
ROOT
ATOM      1  C   UNL     1       8.385   8.712  17.391  0.00  0.00    +0.000 C 
ENDROOT
BRANCH   1   2
ATOM      2  O   UNL     1       7.817   9.916  17.921  0.00  0.00    +0.000 OA
BRANCH   2   6
ATOM      3  C   UNL     1      11.685  12.065  20.139  0.00  0.00    +0.000 C 
ATOM      4  C   UNL     1      10.538  11.725  19.259  0.00  0.00    +0.000 A 
ATOM      5  C   UNL     1       9.912  10.501  19.083  0.00  0.00    +0.000 A 
ATOM      6  C   UNL     1       8.770  10.791  18.332  0.00  0.00    +0.000 A 
ATOM      7  N   UNL     1       8.653  12.088  18.065  0.00  0.00    +0.000 NA
ATOM      8  N   UNL     1       9.796  12.643  18.524  0.00  0.00    +0.000 N 
BRANCH   8   9
ATOM      9  C   UNL     1      10.064  14.004  18.200  0.00  0.00    +0.000 A 
ATOM     10  C   UNL     1      10.991  14.357  17.215  0.00  0.00    +0.000 A 
ATOM     11  C   UNL     1      11.196  15.704  16.896  0.00  0.00    +0.000 A 
ATOM     12  C   UNL     1      10.482  16.707  17.560  0.00  0.00    +0.000 A 
ATOM     13 CL   UNL     1      10.794  18.345  17.110  0.00  0.00    +0.000 Cl
ATOM     14  C   UNL     1       9.547  16.360  18.539  0.00  0.00    +0.000 A 
ATOM     15 CL   UNL     1       8.642  17.543  19.412  0.00  0.00    +0.000 Cl
ATOM     16  C   UNL     1       9.325  15.013  18.843  0.00  0.00    +0.000 A 
ENDBRANCH   8   9
ENDBRANCH   2   6
ENDBRANCH   1   2
BRANCH   1  17
ATOM     17  C   UNL     1       7.913   7.460  18.148  0.00  0.00    +0.000 C 
BRANCH  17  18
ATOM     18  N   UNL     1       7.005   6.616  17.328  0.00  0.00    +0.000 NA
ATOM     19  C   UNL     1       7.289   5.188  17.504  0.00  0.00    +0.000 C 
ATOM     20  C   UNL     1       6.378   4.306  16.651  0.00  0.00    +0.000 C 
ATOM     21  C   UNL     1       4.890   4.592  16.895  0.00  0.00    +0.000 C 
ATOM     22  C   UNL     1       4.652   6.102  16.751  0.00  0.00    +0.000 C 
ATOM     23  C   UNL     1       5.599   6.931  17.618  0.00  0.00    +0.000 C 
BRANCH  21  24
ATOM     24  N   UNL     1       4.347   4.006  18.116  0.00  0.00    +0.000 N 
ATOM     25  C   UNL     1       5.042   3.458  19.172  0.00  0.00    +0.000 A 
ATOM     26  N   UNL     1       4.263   2.789  19.998  0.00  0.00    +0.000 NA
ATOM     27  C   UNL     1       3.015   2.885  19.456  0.00  0.00    +0.000 A 
ATOM     28  C   UNL     1       1.805   2.314  19.858  0.00  0.00    +0.000 A 
ATOM     29  C   UNL     1       0.681   2.597  19.082  0.00  0.00    +0.000 A 
ATOM     30  C   UNL     1       0.815   3.426  17.971  0.00  0.00    +0.000 A 
ATOM     31  N   UNL     1       1.970   3.982  17.525  0.00  0.00    +0.000 NA
ATOM     32  C   UNL     1       3.024   3.670  18.307  0.00  0.00    +0.000 A 
ENDBRANCH  21  24
ENDBRANCH  17  18
ENDBRANCH   1  17
TORSDOF 6
ENDMDL
