MODEL 1
REMARK VINA RESULT:      -7.0      0.000      0.000
REMARK  Name = 
REMARK  11 active torsions:
REMARK  status: ('A' for Active; 'I' for Inactive)
REMARK    1  A    between atoms: C_1  and  O_2
REMARK    2  A    between atoms: O_2  and  C_3
REMARK    3  A    between atoms: C_5  and  C_6
REMARK    4  A    between atoms: C_6  and  C_7
REMARK    5  A    between atoms: N_9  and  C_10
REMARK    6  A    between atoms: C_14  and  S_15
REMARK    7  A    between atoms: S_15  and  C_16
REMARK    8  A    between atoms: C_19  and  O_20
REMARK    9  A    between atoms: O_20  and  C_21
REMARK   10  A    between atoms: C_22  and  O_23
REMARK   11  A    between atoms: O_23  and  C_24
REMARK                            x       y       z     vdW  Elec       q    Type
REMARK                         _______ _______ _______ _____ _____    ______ ____
ROOT
ATOM      1  C   UNL     1       2.877   8.351  17.935  0.00  0.00    +0.000 C 
ENDROOT
BRANCH   1   4
ATOM      2  C   UNL     1       4.512   4.941  17.601  0.00  0.00    +0.000 A 
ATOM      3  C   UNL     1       4.223   6.305  17.436  0.00  0.00    +0.000 A 
ATOM      4  C   UNL     1       3.015   6.849  17.875  0.00  0.00    +0.000 A 
ATOM      5  C   UNL     1       2.055   5.977  18.393  0.00  0.00    +0.000 A 
ATOM      6  C   UNL     1       2.293   4.596  18.503  0.00  0.00    +0.000 A 
ATOM      7  C   UNL     1       3.540   4.059  18.117  0.00  0.00    +0.000 A 
BRANCH   2   9
ATOM      8  C   UNL     1       6.840   4.779  18.063  0.00  0.00    +0.000 C 
ATOM      9  O   UNL     1       5.740   4.456  17.213  0.00  0.00    +0.000 OA
ENDBRANCH   2   9
BRANCH   6  10
ATOM     10  O   UNL     1       1.202   3.954  19.035  0.00  0.00    +0.000 OA
ATOM     11  C   UNL     1       1.050   3.864  20.441  0.00  0.00    +0.000 C 
ENDBRANCH   6  10
BRANCH   7  12
ATOM     12  O   UNL     1       3.690   2.703  18.246  0.00  0.00    +0.000 OA
ATOM     13  C   UNL     1       4.161   2.164  19.474  0.00  0.00    +0.000 C 
ENDBRANCH   7  12
ENDBRANCH   1   4
BRANCH   1  14
ATOM     14  C   UNL     1       1.642   8.876  18.635  0.00  0.00    +0.000 C 
ATOM     15  O   UNL     1       1.480   8.654  19.830  0.00  0.00    +0.000 OA
ATOM     16  N   UNL     1       0.792   9.596  17.811  0.00  0.00    +0.000 N 
ATOM     17  H   UNL     1       0.970   9.550  16.817  0.00  0.00    +0.000 HD
BRANCH  16  18
ATOM     18  C   UNL     1      -0.349  10.321  18.224  0.00  0.00    +0.000 A 
ATOM     19  C   UNL     1      -0.359  11.133  19.360  0.00  0.00    +0.000 A 
ATOM     20  C   UNL     1      -1.499  11.848  19.714  0.00  0.00    +0.000 A 
ATOM     21  C   UNL     1      -2.643  11.761  18.927  0.00  0.00    +0.000 A 
ATOM     22  C   UNL     1      -2.661  10.959  17.782  0.00  0.00    +0.000 A 
ATOM     23  C   UNL     1      -1.504  10.246  17.431  0.00  0.00    +0.000 A 
BRANCH  22  24
ATOM     24  S   UNL     1      -4.159  10.989  16.804  0.00  0.00    +0.000 S 
ATOM     25  C   UNL     1      -3.564  10.544  15.154  0.00  0.00    +0.000 C 
ENDBRANCH  22  24
ENDBRANCH  16  18
ENDBRANCH   1  14
TORSDOF 7
ENDMDL
MODEL 2
REMARK VINA RESULT:      -6.9      5.662      7.781
REMARK  Name = 
REMARK  11 active torsions:
REMARK  status: ('A' for Active; 'I' for Inactive)
REMARK    1  A    between atoms: C_1  and  O_2
REMARK    2  A    between atoms: O_2  and  C_3
REMARK    3  A    between atoms: C_5  and  C_6
REMARK    4  A    between atoms: C_6  and  C_7
REMARK    5  A    between atoms: N_9  and  C_10
REMARK    6  A    between atoms: C_14  and  S_15
REMARK    7  A    between atoms: S_15  and  C_16
REMARK    8  A    between atoms: C_19  and  O_20
REMARK    9  A    between atoms: O_20  and  C_21
REMARK   10  A    between atoms: C_22  and  O_23
REMARK   11  A    between atoms: O_23  and  C_24
REMARK                            x       y       z     vdW  Elec       q    Type
REMARK                         _______ _______ _______ _____ _____    ______ ____
ROOT
ATOM      1  C   UNL     1       7.885   6.456  18.575  0.00  0.00    +0.000 C 
ENDROOT
BRANCH   1   4
ATOM      2  C   UNL     1       5.289   4.567  16.551  0.00  0.00    +0.000 A 
ATOM      3  C   UNL     1       6.385   5.373  16.895  0.00  0.00    +0.000 A 
ATOM      4  C   UNL     1       6.558   5.846  18.197  0.00  0.00    +0.000 A 
ATOM      5  C   UNL     1       5.552   5.579  19.128  0.00  0.00    +0.000 A 
ATOM      6  C   UNL     1       4.409   4.834  18.789  0.00  0.00    +0.000 A 
ATOM      7  C   UNL     1       4.269   4.304  17.488  0.00  0.00    +0.000 A 
BRANCH   2   9
ATOM      8  C   UNL     1       6.383   4.103  14.489  0.00  0.00    +0.000 C 
ATOM      9  O   UNL     1       5.189   4.069  15.271  0.00  0.00    +0.000 OA
ENDBRANCH   2   9
BRANCH   6  10
ATOM     10  O   UNL     1       3.569   4.711  19.869  0.00  0.00    +0.000 OA
ATOM     11  C   UNL     1       2.494   5.618  20.035  0.00  0.00    +0.000 C 
ENDBRANCH   6  10
BRANCH   7  12
ATOM     12  O   UNL     1       3.123   3.597  17.234  0.00  0.00    +0.000 OA
ATOM     13  C   UNL     1       2.978   2.284  17.758  0.00  0.00    +0.000 C 
ENDBRANCH   7  12
ENDBRANCH   1   4
BRANCH   1  14
ATOM     14  C   UNL     1       8.072   7.915  18.212  0.00  0.00    +0.000 C 
ATOM     15  O   UNL     1       7.502   8.374  17.228  0.00  0.00    +0.000 OA
ATOM     16  N   UNL     1       8.899   8.609  19.081  0.00  0.00    +0.000 N 
ATOM     17  H   UNL     1       9.430   8.061  19.743  0.00  0.00    +0.000 HD
BRANCH  16  18
ATOM     18  C   UNL     1       9.130  10.003  19.071  0.00  0.00    +0.000 A 
ATOM     19  C   UNL     1       9.267  10.739  17.892  0.00  0.00    +0.000 A 
ATOM     20  C   UNL     1       9.469  12.116  17.932  0.00  0.00    +0.000 A 
ATOM     21  C   UNL     1       9.529  12.771  19.157  0.00  0.00    +0.000 A 
ATOM     22  C   UNL     1       9.392  12.061  20.354  0.00  0.00    +0.000 A 
ATOM     23  C   UNL     1       9.183  10.675  20.302  0.00  0.00    +0.000 A 
BRANCH  22  24
ATOM     24  S   UNL     1       9.405  13.020  21.864  0.00  0.00    +0.000 S 
ATOM     25  C   UNL     1      10.279  14.526  21.368  0.00  0.00    +0.000 C 
ENDBRANCH  22  24
ENDBRANCH  16  18
ENDBRANCH   1  14
TORSDOF 7
ENDMDL
MODEL 3
REMARK VINA RESULT:      -6.9      1.802      2.405
REMARK  Name = 
REMARK  11 active torsions:
REMARK  status: ('A' for Active; 'I' for Inactive)
REMARK    1  A    between atoms: C_1  and  O_2
REMARK    2  A    between atoms: O_2  and  C_3
REMARK    3  A    between atoms: C_5  and  C_6
REMARK    4  A    between atoms: C_6  and  C_7
REMARK    5  A    between atoms: N_9  and  C_10
REMARK    6  A    between atoms: C_14  and  S_15
REMARK    7  A    between atoms: S_15  and  C_16
REMARK    8  A    between atoms: C_19  and  O_20
REMARK    9  A    between atoms: O_20  and  C_21
REMARK   10  A    between atoms: C_22  and  O_23
REMARK   11  A    between atoms: O_23  and  C_24
REMARK                            x       y       z     vdW  Elec       q    Type
REMARK                         _______ _______ _______ _____ _____    ______ ____
ROOT
ATOM      1  C   UNL     1       2.577   7.246  18.982  0.00  0.00    +0.000 C 
ENDROOT
BRANCH   1   4
ATOM      2  C   UNL     1       5.574   6.126  16.940  0.00  0.00    +0.000 A 
ATOM      3  C   UNL     1       4.620   6.935  17.577  0.00  0.00    +0.000 A 
ATOM      4  C   UNL     1       3.424   6.401  18.063  0.00  0.00    +0.000 A 
ATOM      5  C   UNL     1       3.158   5.055  17.807  0.00  0.00    +0.000 A 
ATOM      6  C   UNL     1       4.066   4.241  17.108  0.00  0.00    +0.000 A 
ATOM      7  C   UNL     1       5.302   4.769  16.674  0.00  0.00    +0.000 A 
BRANCH   2   9
ATOM      8  C   UNL     1       7.468   7.449  17.509  0.00  0.00    +0.000 C 
ATOM      9  O   UNL     1       6.767   6.678  16.533  0.00  0.00    +0.000 OA
ENDBRANCH   2   9
BRANCH   6  10
ATOM     10  O   UNL     1       3.578   2.964  16.980  0.00  0.00    +0.000 OA
ATOM     11  C   UNL     1       2.432   2.568  17.714  0.00  0.00    +0.000 C 
ENDBRANCH   6  10
BRANCH   7  12
ATOM     12  O   UNL     1       6.128   3.913  15.992  0.00  0.00    +0.000 OA
ATOM     13  C   UNL     1       6.119   3.915  14.572  0.00  0.00    +0.000 C 
ENDBRANCH   7  12
ENDBRANCH   1   4
BRANCH   1  14
ATOM     14  C   UNL     1       2.001   8.510  18.379  0.00  0.00    +0.000 C 
ATOM     15  O   UNL     1       2.191   8.758  17.194  0.00  0.00    +0.000 OA
ATOM     16  N   UNL     1       1.278   9.281  19.275  0.00  0.00    +0.000 N 
ATOM     17  H   UNL     1       1.352   9.038  20.253  0.00  0.00    +0.000 HD
BRANCH  16  18
ATOM     18  C   UNL     1       0.513  10.426  18.956  0.00  0.00    +0.000 A 
ATOM     19  C   UNL     1       0.979  11.727  19.156  0.00  0.00    +0.000 A 
ATOM     20  C   UNL     1       0.198  12.824  18.803  0.00  0.00    +0.000 A 
ATOM     21  C   UNL     1      -1.058  12.628  18.239  0.00  0.00    +0.000 A 
ATOM     22  C   UNL     1      -1.549  11.336  18.024  0.00  0.00    +0.000 A 
ATOM     23  C   UNL     1      -0.752  10.237  18.378  0.00  0.00    +0.000 A 
BRANCH  22  24
ATOM     24  S   UNL     1      -3.141  11.207  17.218  0.00  0.00    +0.000 S 
ATOM     25  C   UNL     1      -4.289  11.698  18.529  0.00  0.00    +0.000 C 
ENDBRANCH  22  24
ENDBRANCH  16  18
ENDBRANCH   1  14
TORSDOF 7
ENDMDL
MODEL 4
REMARK VINA RESULT:      -6.9      1.383      1.582
REMARK  Name = 
REMARK  11 active torsions:
REMARK  status: ('A' for Active; 'I' for Inactive)
REMARK    1  A    between atoms: C_1  and  O_2
REMARK    2  A    between atoms: O_2  and  C_3
REMARK    3  A    between atoms: C_5  and  C_6
REMARK    4  A    between atoms: C_6  and  C_7
REMARK    5  A    between atoms: N_9  and  C_10
REMARK    6  A    between atoms: C_14  and  S_15
REMARK    7  A    between atoms: S_15  and  C_16
REMARK    8  A    between atoms: C_19  and  O_20
REMARK    9  A    between atoms: O_20  and  C_21
REMARK   10  A    between atoms: C_22  and  O_23
REMARK   11  A    between atoms: O_23  and  C_24
REMARK                            x       y       z     vdW  Elec       q    Type
REMARK                         _______ _______ _______ _____ _____    ______ ____
ROOT
ATOM      1  C   UNL     1       3.200   7.593  17.540  0.00  0.00    +0.000 C 
ENDROOT
BRANCH   1   4
ATOM      2  C   UNL     1       5.409   4.950  19.135  0.00  0.00    +0.000 A 
ATOM      3  C   UNL     1       4.977   6.140  18.528  0.00  0.00    +0.000 A 
ATOM      4  C   UNL     1       3.726   6.229  17.914  0.00  0.00    +0.000 A 
ATOM      5  C   UNL     1       2.956   5.068  17.829  0.00  0.00    +0.000 A 
ATOM      6  C   UNL     1       3.398   3.847  18.366  0.00  0.00    +0.000 A 
ATOM      7  C   UNL     1       4.635   3.776  19.042  0.00  0.00    +0.000 A 
BRANCH   2   9
ATOM      8  C   UNL     1       7.661   5.715  19.211  0.00  0.00    +0.000 C 
ATOM      9  O   UNL     1       6.621   4.923  19.785  0.00  0.00    +0.000 OA
ENDBRANCH   2   9
BRANCH   6  10
ATOM     10  O   UNL     1       2.470   2.857  18.153  0.00  0.00    +0.000 OA
ATOM     11  C   UNL     1       1.161   2.988  18.680  0.00  0.00    +0.000 C 
ENDBRANCH   6  10
BRANCH   7  12
ATOM     12  O   UNL     1       4.998   2.547  19.528  0.00  0.00    +0.000 OA
ATOM     13  C   UNL     1       4.410   2.066  20.729  0.00  0.00    +0.000 C 
ENDBRANCH   7  12
ENDBRANCH   1   4
BRANCH   1  14
ATOM     14  C   UNL     1       2.197   8.203  18.497  0.00  0.00    +0.000 C 
ATOM     15  O   UNL     1       2.056   7.723  19.616  0.00  0.00    +0.000 OA
ATOM     16  N   UNL     1       1.521   9.297  17.981  0.00  0.00    +0.000 N 
ATOM     17  H   UNL     1       1.618   9.471  16.990  0.00  0.00    +0.000 HD
BRANCH  16  18
ATOM     18  C   UNL     1       0.645  10.145  18.696  0.00  0.00    +0.000 A 
ATOM     19  C   UNL     1       1.040  10.859  19.830  0.00  0.00    +0.000 A 
ATOM     20  C   UNL     1       0.149  11.701  20.487  0.00  0.00    +0.000 A 
ATOM     21  C   UNL     1      -1.150  11.842  20.011  0.00  0.00    +0.000 A 
ATOM     22  C   UNL     1      -1.574  11.142  18.876  0.00  0.00    +0.000 A 
ATOM     23  C   UNL     1      -0.665  10.300  18.218  0.00  0.00    +0.000 A 
BRANCH  22  24
ATOM     24  S   UNL     1      -3.239  11.464  18.309  0.00  0.00    +0.000 S 
ATOM     25  C   UNL     1      -3.571  10.049  17.229  0.00  0.00    +0.000 C 
ENDBRANCH  22  24
ENDBRANCH  16  18
ENDBRANCH   1  14
TORSDOF 7
ENDMDL
MODEL 5
REMARK VINA RESULT:      -6.9      1.947      3.391
REMARK  Name = 
REMARK  11 active torsions:
REMARK  status: ('A' for Active; 'I' for Inactive)
REMARK    1  A    between atoms: C_1  and  O_2
REMARK    2  A    between atoms: O_2  and  C_3
REMARK    3  A    between atoms: C_5  and  C_6
REMARK    4  A    between atoms: C_6  and  C_7
REMARK    5  A    between atoms: N_9  and  C_10
REMARK    6  A    between atoms: C_14  and  S_15
REMARK    7  A    between atoms: S_15  and  C_16
REMARK    8  A    between atoms: C_19  and  O_20
REMARK    9  A    between atoms: O_20  and  C_21
REMARK   10  A    between atoms: C_22  and  O_23
REMARK   11  A    between atoms: O_23  and  C_24
REMARK                            x       y       z     vdW  Elec       q    Type
REMARK                         _______ _______ _______ _____ _____    ______ ____
ROOT
ATOM      1  C   UNL     1       2.861   7.840  17.652  0.00  0.00    +0.000 C 
ENDROOT
BRANCH   1   4
ATOM      2  C   UNL     1       2.580   4.080  18.089  0.00  0.00    +0.000 A 
ATOM      3  C   UNL     1       2.245   5.432  17.916  0.00  0.00    +0.000 A 
ATOM      4  C   UNL     1       3.184   6.445  18.127  0.00  0.00    +0.000 A 
ATOM      5  C   UNL     1       4.439   6.080  18.616  0.00  0.00    +0.000 A 
ATOM      6  C   UNL     1       4.775   4.738  18.866  0.00  0.00    +0.000 A 
ATOM      7  C   UNL     1       3.845   3.712  18.591  0.00  0.00    +0.000 A 
BRANCH   2   9
ATOM      8  C   UNL     1       0.840   2.677  18.906  0.00  0.00    +0.000 C 
ATOM      9  O   UNL     1       1.644   3.109  17.809  0.00  0.00    +0.000 OA
ENDBRANCH   2   9
BRANCH   6  10
ATOM     10  O   UNL     1       6.058   4.637  19.344  0.00  0.00    +0.000 OA
ATOM     11  C   UNL     1       7.011   5.638  19.031  0.00  0.00    +0.000 C 
ENDBRANCH   6  10
BRANCH   7  12
ATOM     12  O   UNL     1       4.244   2.431  18.870  0.00  0.00    +0.000 OA
ATOM     13  C   UNL     1       4.317   1.999  20.222  0.00  0.00    +0.000 C 
ENDBRANCH   7  12
ENDBRANCH   1   4
BRANCH   1  14
ATOM     14  C   UNL     1       1.877   8.618  18.500  0.00  0.00    +0.000 C 
ATOM     15  O   UNL     1       1.753   8.348  19.689  0.00  0.00    +0.000 OA
ATOM     16  N   UNL     1       1.196   9.607  17.807  0.00  0.00    +0.000 N 
ATOM     17  H   UNL     1       1.277   9.599  16.799  0.00  0.00    +0.000 HD
BRANCH  16  18
ATOM     18  C   UNL     1       0.336  10.575  18.372  0.00  0.00    +0.000 A 
ATOM     19  C   UNL     1      -1.033  10.359  18.549  0.00  0.00    +0.000 A 
ATOM     20  C   UNL     1      -1.837  11.332  19.134  0.00  0.00    +0.000 A 
ATOM     21  C   UNL     1      -1.276  12.533  19.554  0.00  0.00    +0.000 A 
ATOM     22  C   UNL     1       0.092  12.776  19.394  0.00  0.00    +0.000 A 
ATOM     23  C   UNL     1       0.895  11.786  18.808  0.00  0.00    +0.000 A 
BRANCH  22  24
ATOM     24  S   UNL     1       0.715  14.321  20.045  0.00  0.00    +0.000 S 
ATOM     25  C   UNL     1      -0.164  15.553  19.053  0.00  0.00    +0.000 C 
ENDBRANCH  22  24
ENDBRANCH  16  18
ENDBRANCH   1  14
TORSDOF 7
ENDMDL
MODEL 6
REMARK VINA RESULT:      -6.9      1.081      2.781
REMARK  Name = 
REMARK  11 active torsions:
REMARK  status: ('A' for Active; 'I' for Inactive)
REMARK    1  A    between atoms: C_1  and  O_2
REMARK    2  A    between atoms: O_2  and  C_3
REMARK    3  A    between atoms: C_5  and  C_6
REMARK    4  A    between atoms: C_6  and  C_7
REMARK    5  A    between atoms: N_9  and  C_10
REMARK    6  A    between atoms: C_14  and  S_15
REMARK    7  A    between atoms: S_15  and  C_16
REMARK    8  A    between atoms: C_19  and  O_20
REMARK    9  A    between atoms: O_20  and  C_21
REMARK   10  A    between atoms: C_22  and  O_23
REMARK   11  A    between atoms: O_23  and  C_24
REMARK                            x       y       z     vdW  Elec       q    Type
REMARK                         _______ _______ _______ _____ _____    ______ ____
ROOT
ATOM      1  C   UNL     1       2.958   7.853  17.855  0.00  0.00    +0.000 C 
ENDROOT
BRANCH   1   4
ATOM      2  C   UNL     1       2.383   4.201  18.713  0.00  0.00    +0.000 A 
ATOM      3  C   UNL     1       2.172   5.574  18.512  0.00  0.00    +0.000 A 
ATOM      4  C   UNL     1       3.242   6.457  18.351  0.00  0.00    +0.000 A 
ATOM      5  C   UNL     1       4.534   5.950  18.498  0.00  0.00    +0.000 A 
ATOM      6  C   UNL     1       4.770   4.592  18.771  0.00  0.00    +0.000 A 
ATOM      7  C   UNL     1       3.688   3.691  18.870  0.00  0.00    +0.000 A 
BRANCH   2   9
ATOM      8  C   UNL     1       0.766   3.156  20.112  0.00  0.00    +0.000 C 
ATOM      9  O   UNL     1       1.301   3.355  18.804  0.00  0.00    +0.000 OA
ENDBRANCH   2   9
BRANCH   6  10
ATOM     10  O   UNL     1       6.116   4.342  18.875  0.00  0.00    +0.000 OA
ATOM     11  C   UNL     1       6.991   4.731  17.830  0.00  0.00    +0.000 C 
ENDBRANCH   6  10
BRANCH   7  12
ATOM     12  O   UNL     1       4.000   2.385  19.147  0.00  0.00    +0.000 OA
ATOM     13  C   UNL     1       3.777   1.387  18.161  0.00  0.00    +0.000 C 
ENDBRANCH   7  12
ENDBRANCH   1   4
BRANCH   1  14
ATOM     14  C   UNL     1       1.855   8.601  18.574  0.00  0.00    +0.000 C 
ATOM     15  O   UNL     1       1.708   8.453  19.782  0.00  0.00    +0.000 OA
ATOM     16  N   UNL     1       1.101   9.421  17.748  0.00  0.00    +0.000 N 
ATOM     17  H   UNL     1       1.229   9.309  16.752  0.00  0.00    +0.000 HD
BRANCH  16  18
ATOM     18  C   UNL     1       0.112  10.339  18.169  0.00  0.00    +0.000 A 
ATOM     19  C   UNL     1       0.413  11.500  18.884  0.00  0.00    +0.000 A 
ATOM     20  C   UNL     1      -0.592  12.388  19.255  0.00  0.00    +0.000 A 
ATOM     21  C   UNL     1      -1.912  12.124  18.908  0.00  0.00    +0.000 A 
ATOM     22  C   UNL     1      -2.244  10.970  18.189  0.00  0.00    +0.000 A 
ATOM     23  C   UNL     1      -1.222  10.085  17.815  0.00  0.00    +0.000 A 
BRANCH  22  24
ATOM     24  S   UNL     1      -3.961  10.776  17.728  0.00  0.00    +0.000 S 
ATOM     25  C   UNL     1      -4.791  12.007  18.765  0.00  0.00    +0.000 C 
ENDBRANCH  22  24
ENDBRANCH  16  18
ENDBRANCH   1  14
TORSDOF 7
ENDMDL
MODEL 7
REMARK VINA RESULT:      -6.8      1.732      2.513
REMARK  Name = 
REMARK  11 active torsions:
REMARK  status: ('A' for Active; 'I' for Inactive)
REMARK    1  A    between atoms: C_1  and  O_2
REMARK    2  A    between atoms: O_2  and  C_3
REMARK    3  A    between atoms: C_5  and  C_6
REMARK    4  A    between atoms: C_6  and  C_7
REMARK    5  A    between atoms: N_9  and  C_10
REMARK    6  A    between atoms: C_14  and  S_15
REMARK    7  A    between atoms: S_15  and  C_16
REMARK    8  A    between atoms: C_19  and  O_20
REMARK    9  A    between atoms: O_20  and  C_21
REMARK   10  A    between atoms: C_22  and  O_23
REMARK   11  A    between atoms: O_23  and  C_24
REMARK                            x       y       z     vdW  Elec       q    Type
REMARK                         _______ _______ _______ _____ _____    ______ ____
ROOT
ATOM      1  C   UNL     1       3.044   7.805  17.796  0.00  0.00    +0.000 C 
ENDROOT
BRANCH   1   4
ATOM      2  C   UNL     1       4.936   4.625  18.643  0.00  0.00    +0.000 A 
ATOM      3  C   UNL     1       4.630   5.910  18.167  0.00  0.00    +0.000 A 
ATOM      4  C   UNL     1       3.308   6.339  18.032  0.00  0.00    +0.000 A 
ATOM      5  C   UNL     1       2.293   5.415  18.288  0.00  0.00    +0.000 A 
ATOM      6  C   UNL     1       2.574   4.100  18.697  0.00  0.00    +0.000 A 
ATOM      7  C   UNL     1       3.911   3.690  18.894  0.00  0.00    +0.000 A 
BRANCH   2   9
ATOM      8  C   UNL     1       7.146   4.605  17.763  0.00  0.00    +0.000 C 
ATOM      9  O   UNL     1       6.252   4.264  18.822  0.00  0.00    +0.000 OA
ENDBRANCH   2   9
BRANCH   6  10
ATOM     10  O   UNL     1       1.415   3.388  18.881  0.00  0.00    +0.000 OA
ATOM     11  C   UNL     1       0.852   3.274  20.176  0.00  0.00    +0.000 C 
ENDBRANCH   6  10
BRANCH   7  12
ATOM     12  O   UNL     1       4.103   2.391  19.285  0.00  0.00    +0.000 OA
ATOM     13  C   UNL     1       3.825   1.337  18.373  0.00  0.00    +0.000 C 
ENDBRANCH   7  12
ENDBRANCH   1   4
BRANCH   1  14
ATOM     14  C   UNL     1       1.953   8.428  18.643  0.00  0.00    +0.000 C 
ATOM     15  O   UNL     1       1.910   8.192  19.846  0.00  0.00    +0.000 OA
ATOM     16  N   UNL     1       1.087   9.244  17.934  0.00  0.00    +0.000 N 
ATOM     17  H   UNL     1       1.144   9.205  16.925  0.00  0.00    +0.000 HD
BRANCH  16  18
ATOM     18  C   UNL     1       0.077  10.062  18.487  0.00  0.00    +0.000 A 
ATOM     19  C   UNL     1      -1.057  10.454  17.771  0.00  0.00    +0.000 A 
ATOM     20  C   UNL     1      -2.038  11.241  18.366  0.00  0.00    +0.000 A 
ATOM     21  C   UNL     1      -1.897  11.639  19.691  0.00  0.00    +0.000 A 
ATOM     22  C   UNL     1      -0.775  11.258  20.435  0.00  0.00    +0.000 A 
ATOM     23  C   UNL     1       0.206  10.461  19.827  0.00  0.00    +0.000 A 
BRANCH  22  24
ATOM     24  S   UNL     1      -0.741  11.760  22.151  0.00  0.00    +0.000 S 
ATOM     25  C   UNL     1      -0.543  10.184  23.021  0.00  0.00    +0.000 C 
ENDBRANCH  22  24
ENDBRANCH  16  18
ENDBRANCH   1  14
TORSDOF 7
ENDMDL
MODEL 8
REMARK VINA RESULT:      -6.8      1.538      3.284
REMARK  Name = 
REMARK  11 active torsions:
REMARK  status: ('A' for Active; 'I' for Inactive)
REMARK    1  A    between atoms: C_1  and  O_2
REMARK    2  A    between atoms: O_2  and  C_3
REMARK    3  A    between atoms: C_5  and  C_6
REMARK    4  A    between atoms: C_6  and  C_7
REMARK    5  A    between atoms: N_9  and  C_10
REMARK    6  A    between atoms: C_14  and  S_15
REMARK    7  A    between atoms: S_15  and  C_16
REMARK    8  A    between atoms: C_19  and  O_20
REMARK    9  A    between atoms: O_20  and  C_21
REMARK   10  A    between atoms: C_22  and  O_23
REMARK   11  A    between atoms: O_23  and  C_24
REMARK                            x       y       z     vdW  Elec       q    Type
REMARK                         _______ _______ _______ _____ _____    ______ ____
ROOT
ATOM      1  C   UNL     1       2.966   8.040  17.775  0.00  0.00    +0.000 C 
ENDROOT
BRANCH   1   4
ATOM      2  C   UNL     1       2.449   4.281  17.911  0.00  0.00    +0.000 A 
ATOM      3  C   UNL     1       2.204   5.664  17.923  0.00  0.00    +0.000 A 
ATOM      4  C   UNL     1       3.246   6.584  18.057  0.00  0.00    +0.000 A 
ATOM      5  C   UNL     1       4.531   6.087  18.283  0.00  0.00    +0.000 A 
ATOM      6  C   UNL     1       4.790   4.707  18.348  0.00  0.00    +0.000 A 
ATOM      7  C   UNL     1       3.745   3.780  18.148  0.00  0.00    +0.000 A 
BRANCH   2   9
ATOM      8  C   UNL     1       0.727   2.961  18.888  0.00  0.00    +0.000 C 
ATOM      9  O   UNL     1       1.402   3.410  17.713  0.00  0.00    +0.000 OA
ENDBRANCH   2   9
BRANCH   6  10
ATOM     10  O   UNL     1       6.123   4.472  18.582  0.00  0.00    +0.000 OA
ATOM     11  C   UNL     1       7.067   4.646  17.540  0.00  0.00    +0.000 C 
ENDBRANCH   6  10
BRANCH   7  12
ATOM     12  O   UNL     1       4.077   2.453  18.236  0.00  0.00    +0.000 OA
ATOM     13  C   UNL     1       4.041   1.804  19.499  0.00  0.00    +0.000 C 
ENDBRANCH   7  12
ENDBRANCH   1   4
BRANCH   1  14
ATOM     14  C   UNL     1       1.780   8.640  18.501  0.00  0.00    +0.000 C 
ATOM     15  O   UNL     1       1.620   8.411  19.695  0.00  0.00    +0.000 OA
ATOM     16  N   UNL     1       0.971   9.429  17.699  0.00  0.00    +0.000 N 
ATOM     17  H   UNL     1       1.131   9.385  16.702  0.00  0.00    +0.000 HD
BRANCH  16  18
ATOM     18  C   UNL     1      -0.111  10.225  18.140  0.00  0.00    +0.000 A 
ATOM     19  C   UNL     1      -1.426  10.015  17.719  0.00  0.00    +0.000 A 
ATOM     20  C   UNL     1      -2.462  10.809  18.199  0.00  0.00    +0.000 A 
ATOM     21  C   UNL     1      -2.192  11.822  19.113  0.00  0.00    +0.000 A 
ATOM     22  C   UNL     1      -0.885  12.053  19.556  0.00  0.00    +0.000 A 
ATOM     23  C   UNL     1       0.151  11.243  19.070  0.00  0.00    +0.000 A 
BRANCH  22  24
ATOM     24  S   UNL     1      -0.671  13.327  20.793  0.00  0.00    +0.000 S 
ATOM     25  C   UNL     1      -2.348  13.981  20.984  0.00  0.00    +0.000 C 
ENDBRANCH  22  24
ENDBRANCH  16  18
ENDBRANCH   1  14
TORSDOF 7
ENDMDL
MODEL 9
REMARK VINA RESULT:      -6.8      2.705      4.015
REMARK  Name = 
REMARK  11 active torsions:
REMARK  status: ('A' for Active; 'I' for Inactive)
REMARK    1  A    between atoms: C_1  and  O_2
REMARK    2  A    between atoms: O_2  and  C_3
REMARK    3  A    between atoms: C_5  and  C_6
REMARK    4  A    between atoms: C_6  and  C_7
REMARK    5  A    between atoms: N_9  and  C_10
REMARK    6  A    between atoms: C_14  and  S_15
REMARK    7  A    between atoms: S_15  and  C_16
REMARK    8  A    between atoms: C_19  and  O_20
REMARK    9  A    between atoms: O_20  and  C_21
REMARK   10  A    between atoms: C_22  and  O_23
REMARK   11  A    between atoms: O_23  and  C_24
REMARK                            x       y       z     vdW  Elec       q    Type
REMARK                         _______ _______ _______ _____ _____    ______ ____
ROOT
ATOM      1  C   UNL     1       2.768   7.887  17.648  0.00  0.00    +0.000 C 
ENDROOT
BRANCH   1   4
ATOM      2  C   UNL     1       2.259   4.299  18.776  0.00  0.00    +0.000 A 
ATOM      3  C   UNL     1       2.029   5.654  18.492  0.00  0.00    +0.000 A 
ATOM      4  C   UNL     1       3.084   6.529  18.225  0.00  0.00    +0.000 A 
ATOM      5  C   UNL     1       4.385   6.041  18.351  0.00  0.00    +0.000 A 
ATOM      6  C   UNL     1       4.643   4.705  18.705  0.00  0.00    +0.000 A 
ATOM      7  C   UNL     1       3.573   3.807  18.911  0.00  0.00    +0.000 A 
BRANCH   2   9
ATOM      8  C   UNL     1       0.772   3.269  20.323  0.00  0.00    +0.000 C 
ATOM      9  O   UNL     1       1.188   3.456  18.970  0.00  0.00    +0.000 OA
ENDBRANCH   2   9
BRANCH   6  10
ATOM     10  O   UNL     1       5.995   4.469  18.768  0.00  0.00    +0.000 OA
ATOM     11  C   UNL     1       6.883   5.527  19.085  0.00  0.00    +0.000 C 
ENDBRANCH   6  10
BRANCH   7  12
ATOM     12  O   UNL     1       3.908   2.525  19.262  0.00  0.00    +0.000 OA
ATOM     13  C   UNL     1       3.711   1.470  18.332  0.00  0.00    +0.000 C 
ENDBRANCH   7  12
ENDBRANCH   1   4
BRANCH   1  14
ATOM     14  C   UNL     1       1.742   8.706  18.403  0.00  0.00    +0.000 C 
ATOM     15  O   UNL     1       0.867   9.302  17.784  0.00  0.00    +0.000 OA
ATOM     16  N   UNL     1       1.906   8.683  19.779  0.00  0.00    +0.000 N 
ATOM     17  H   UNL     1       2.768   8.292  20.131  0.00  0.00    +0.000 HD
BRANCH  16  18
ATOM     18  C   UNL     1       1.015   9.231  20.730  0.00  0.00    +0.000 A 
ATOM     19  C   UNL     1       0.346   8.451  21.677  0.00  0.00    +0.000 A 
ATOM     20  C   UNL     1      -0.502   9.038  22.610  0.00  0.00    +0.000 A 
ATOM     21  C   UNL     1      -0.686  10.416  22.609  0.00  0.00    +0.000 A 
ATOM     22  C   UNL     1      -0.027  11.223  21.675  0.00  0.00    +0.000 A 
ATOM     23  C   UNL     1       0.831  10.622  20.742  0.00  0.00    +0.000 A 
BRANCH  22  24
ATOM     24  S   UNL     1      -0.276  12.988  21.822  0.00  0.00    +0.000 S 
ATOM     25  C   UNL     1      -1.510  13.107  23.140  0.00  0.00    +0.000 C 
ENDBRANCH  22  24
ENDBRANCH  16  18
ENDBRANCH   1  14
TORSDOF 7
ENDMDL
