MODEL 1
REMARK VINA RESULT:      -8.1      0.000      0.000
REMARK  Name = 
REMARK  16 active torsions:
REMARK  status: ('A' for Active; 'I' for Inactive)
REMARK    1  A    between atoms: C_1  and  C_2
REMARK    2  A    between atoms: C_4  and  C_5
REMARK    3  A    between atoms: C_5  and  N_6
REMARK    4  A    between atoms: C_7  and  C_9
REMARK    5  A    between atoms: C_11  and  C_12
REMARK    6  A    between atoms: C_15  and  C_16
REMARK    7  A    between atoms: C_16  and  C_17
REMARK    8  A    between atoms: C_16  and  C_18
REMARK    9  A    between atoms: C_16  and  C_19
REMARK   10  A    between atoms: N_22  and  C_23
REMARK   11  A    between atoms: C_27  and  O_28
REMARK   12  A    between atoms: O_28  and  C_29
REMARK   13  A    between atoms: C_29  and  C_30
REMARK   14  A    between atoms: C_29  and  C_31
REMARK   15  A    between atoms: C_29  and  C_32
REMARK   16  A    between atoms: C_32  and  O_34
REMARK                            x       y       z     vdW  Elec       q    Type
REMARK                         _______ _______ _______ _____ _____    ______ ____
ROOT
ATOM      1  N   UNL     1       1.268  10.259  18.315  0.00  0.00    +0.000 N 
ATOM      2  C   UNL     1       1.555  11.572  18.608  0.00  0.00    +0.000 C 
ATOM      3  O   UNL     1       2.564  12.158  18.226  0.00  0.00    +0.000 OA
ATOM      4  H   UNL     1       0.368   9.922  18.644  0.00  0.00    +0.000 HD
ENDROOT
BRANCH   2   5
ATOM      5  C   UNL     1       0.528  12.215  19.444  0.00  0.00    +0.000 A 
ATOM      6  C   UNL     1      -0.827  11.841  19.576  0.00  0.00    +0.000 A 
ATOM      7  C   UNL     1      -1.410  12.740  20.456  0.00  0.00    +0.000 A 
ATOM      8  N   UNL     1      -0.376  13.588  20.803  0.00  0.00    +0.000 N 
ATOM      9  C   UNL     1      -0.372  14.712  21.710  0.00  0.00    +0.000 C 
ATOM     10  N   UNL     1       0.800  13.292  20.204  0.00  0.00    +0.000 NA
BRANCH   7  11
ATOM     11  C   UNL     1      -2.791  12.765  20.957  0.00  0.00    +0.000 A 
ATOM     12  C   UNL     1      -3.858  12.760  20.053  0.00  0.00    +0.000 A 
ATOM     13  C   UNL     1      -5.189  12.765  20.493  0.00  0.00    +0.000 A 
ATOM     14  C   UNL     1      -5.505  12.761  21.859  0.00  0.00    +0.000 A 
ATOM     15  C   UNL     1      -4.428  12.781  22.761  0.00  0.00    +0.000 A 
ATOM     16  C   UNL     1      -3.100  12.815  22.319  0.00  0.00    +0.000 A 
BRANCH  14  17
ATOM     17  C   UNL     1      -6.951  12.751  22.382  0.00  0.00    +0.000 C 
ATOM     18  C   UNL     1      -7.815  11.627  21.765  0.00  0.00    +0.000 C 
ATOM     19  C   UNL     1      -6.952  12.555  23.913  0.00  0.00    +0.000 C 
ATOM     20  C   UNL     1      -7.642  14.091  22.050  0.00  0.00    +0.000 C 
ENDBRANCH  14  17
ENDBRANCH   7  11
ENDBRANCH   2   5
BRANCH   1  21
ATOM     21  C   UNL     1       2.134   9.412  17.539  0.00  0.00    +0.000 C 
BRANCH  21  25
ATOM     22  C   UNL     1       4.522   5.101  17.359  0.00  0.00    +0.000 C 
ATOM     23  C   UNL     1       3.615   5.941  18.220  0.00  0.00    +0.000 A 
ATOM     24  C   UNL     1       3.260   7.174  17.622  0.00  0.00    +0.000 A 
ATOM     25  C   UNL     1       2.440   8.119  18.245  0.00  0.00    +0.000 A 
ATOM     26  C   UNL     1       1.923   7.815  19.499  0.00  0.00    +0.000 A 
ATOM     27  C   UNL     1       2.248   6.600  20.111  0.00  0.00    +0.000 A 
ATOM     28  C   UNL     1       3.107   5.658  19.507  0.00  0.00    +0.000 A 
BRANCH  28  29
ATOM     29  O   UNL     1       3.289   4.579  20.341  0.00  0.00    +0.000 OA
BRANCH  29  30
ATOM     30  C   UNL     1       2.655   3.303  20.130  0.00  0.00    +0.000 C 
ATOM     31  C   UNL     1       2.438   2.634  21.494  0.00  0.00    +0.000 C 
ATOM     32  C   UNL     1       1.494   3.391  19.128  0.00  0.00    +0.000 C 
BRANCH  30  33
ATOM     33  C   UNL     1       3.649   2.338  19.430  0.00  0.00    +0.000 C 
ATOM     34  O   UNL     1       3.330   1.497  18.606  0.00  0.00    +0.000 OA
BRANCH  33  35
ATOM     35  O   UNL     1       4.937   2.510  19.829  0.00  0.00    +0.000 OA
ATOM     36  H   UNL     1       5.437   1.686  19.695  0.00  0.00    +0.000 HD
ENDBRANCH  33  35
ENDBRANCH  30  33
ENDBRANCH  29  30
ENDBRANCH  28  29
ENDBRANCH  21  25
ENDBRANCH   1  21
TORSDOF 9
ENDMDL
MODEL 2
REMARK VINA RESULT:      -8.0      1.463      1.950
REMARK  Name = 
REMARK  16 active torsions:
REMARK  status: ('A' for Active; 'I' for Inactive)
REMARK    1  A    between atoms: C_1  and  C_2
REMARK    2  A    between atoms: C_4  and  C_5
REMARK    3  A    between atoms: C_5  and  N_6
REMARK    4  A    between atoms: C_7  and  C_9
REMARK    5  A    between atoms: C_11  and  C_12
REMARK    6  A    between atoms: C_15  and  C_16
REMARK    7  A    between atoms: C_16  and  C_17
REMARK    8  A    between atoms: C_16  and  C_18
REMARK    9  A    between atoms: C_16  and  C_19
REMARK   10  A    between atoms: N_22  and  C_23
REMARK   11  A    between atoms: C_27  and  O_28
REMARK   12  A    between atoms: O_28  and  C_29
REMARK   13  A    between atoms: C_29  and  C_30
REMARK   14  A    between atoms: C_29  and  C_31
REMARK   15  A    between atoms: C_29  and  C_32
REMARK   16  A    between atoms: C_32  and  O_34
REMARK                            x       y       z     vdW  Elec       q    Type
REMARK                         _______ _______ _______ _____ _____    ______ ____
ROOT
ATOM      1  N   UNL     1       0.782  10.013  18.051  0.00  0.00    +0.000 N 
ATOM      2  C   UNL     1       0.584  11.292  18.520  0.00  0.00    +0.000 C 
ATOM      3  O   UNL     1       1.486  12.106  18.696  0.00  0.00    +0.000 OA
ATOM      4  H   UNL     1      -0.061   9.468  17.894  0.00  0.00    +0.000 HD
ENDROOT
BRANCH   2   5
ATOM      5  C   UNL     1      -0.828  11.590  18.807  0.00  0.00    +0.000 A 
ATOM      6  C   UNL     1      -1.350  12.253  19.940  0.00  0.00    +0.000 A 
ATOM      7  C   UNL     1      -2.728  12.292  19.783  0.00  0.00    +0.000 A 
ATOM      8  N   UNL     1      -2.947  11.664  18.573  0.00  0.00    +0.000 N 
ATOM      9  C   UNL     1      -4.185  11.426  17.870  0.00  0.00    +0.000 C 
ATOM     10  N   UNL     1      -1.817  11.231  17.968  0.00  0.00    +0.000 NA
BRANCH   7  11
ATOM     11  C   UNL     1      -3.731  12.907  20.664  0.00  0.00    +0.000 A 
ATOM     12  C   UNL     1      -4.726  13.725  20.117  0.00  0.00    +0.000 A 
ATOM     13  C   UNL     1      -5.711  14.315  20.923  0.00  0.00    +0.000 A 
ATOM     14  C   UNL     1      -5.746  14.098  22.308  0.00  0.00    +0.000 A 
ATOM     15  C   UNL     1      -4.735  13.287  22.850  0.00  0.00    +0.000 A 
ATOM     16  C   UNL     1      -3.729  12.731  22.050  0.00  0.00    +0.000 A 
BRANCH  14  17
ATOM     17  C   UNL     1      -6.818  14.713  23.222  0.00  0.00    +0.000 C 
ATOM     18  C   UNL     1      -7.565  13.665  24.078  0.00  0.00    +0.000 C 
ATOM     19  C   UNL     1      -6.163  15.723  24.188  0.00  0.00    +0.000 C 
ATOM     20  C   UNL     1      -7.877  15.449  22.373  0.00  0.00    +0.000 C 
ENDBRANCH  14  17
ENDBRANCH   7  11
ENDBRANCH   2   5
BRANCH   1  21
ATOM     21  C   UNL     1       2.078   9.478  17.730  0.00  0.00    +0.000 C 
BRANCH  21  25
ATOM     22  C   UNL     1       4.267   5.067  17.453  0.00  0.00    +0.000 C 
ATOM     23  C   UNL     1       3.401   5.930  18.335  0.00  0.00    +0.000 A 
ATOM     24  C   UNL     1       3.101   7.189  17.763  0.00  0.00    +0.000 A 
ATOM     25  C   UNL     1       2.327   8.158  18.409  0.00  0.00    +0.000 A 
ATOM     26  C   UNL     1       1.801   7.852  19.658  0.00  0.00    +0.000 A 
ATOM     27  C   UNL     1       2.072   6.611  20.244  0.00  0.00    +0.000 A 
ATOM     28  C   UNL     1       2.886   5.644  19.618  0.00  0.00    +0.000 A 
BRANCH  28  29
ATOM     29  O   UNL     1       3.021   4.541  20.429  0.00  0.00    +0.000 OA
BRANCH  29  30
ATOM     30  C   UNL     1       2.189   3.371  20.316  0.00  0.00    +0.000 C 
ATOM     31  C   UNL     1       2.092   2.705  21.694  0.00  0.00    +0.000 C 
ATOM     32  C   UNL     1       0.913   3.644  19.506  0.00  0.00    +0.000 C 
BRANCH  30  33
ATOM     33  C   UNL     1       2.918   2.295  19.466  0.00  0.00    +0.000 C 
ATOM     34  O   UNL     1       4.126   2.127  19.455  0.00  0.00    +0.000 OA
BRANCH  33  35
ATOM     35  O   UNL     1       2.074   1.542  18.714  0.00  0.00    +0.000 OA
ATOM     36  H   UNL     1       1.761   2.059  17.950  0.00  0.00    +0.000 HD
ENDBRANCH  33  35
ENDBRANCH  30  33
ENDBRANCH  29  30
ENDBRANCH  28  29
ENDBRANCH  21  25
ENDBRANCH   1  21
TORSDOF 9
ENDMDL
MODEL 3
REMARK VINA RESULT:      -7.8      1.690      2.035
REMARK  Name = 
REMARK  16 active torsions:
REMARK  status: ('A' for Active; 'I' for Inactive)
REMARK    1  A    between atoms: C_1  and  C_2
REMARK    2  A    between atoms: C_4  and  C_5
REMARK    3  A    between atoms: C_5  and  N_6
REMARK    4  A    between atoms: C_7  and  C_9
REMARK    5  A    between atoms: C_11  and  C_12
REMARK    6  A    between atoms: C_15  and  C_16
REMARK    7  A    between atoms: C_16  and  C_17
REMARK    8  A    between atoms: C_16  and  C_18
REMARK    9  A    between atoms: C_16  and  C_19
REMARK   10  A    between atoms: N_22  and  C_23
REMARK   11  A    between atoms: C_27  and  O_28
REMARK   12  A    between atoms: O_28  and  C_29
REMARK   13  A    between atoms: C_29  and  C_30
REMARK   14  A    between atoms: C_29  and  C_31
REMARK   15  A    between atoms: C_29  and  C_32
REMARK   16  A    between atoms: C_32  and  O_34
REMARK                            x       y       z     vdW  Elec       q    Type
REMARK                         _______ _______ _______ _____ _____    ______ ____
ROOT
ATOM      1  N   UNL     1       1.048  10.347  18.735  0.00  0.00    +0.000 N 
ATOM      2  C   UNL     1      -0.303  10.505  18.528  0.00  0.00    +0.000 C 
ATOM      3  O   UNL     1      -0.897  10.108  17.530  0.00  0.00    +0.000 OA
ATOM      4  H   UNL     1       1.394  10.668  19.634  0.00  0.00    +0.000 HD
ENDROOT
BRANCH   2   5
ATOM      5  C   UNL     1      -0.977  11.215  19.627  0.00  0.00    +0.000 A 
ATOM      6  C   UNL     1      -2.087  12.084  19.532  0.00  0.00    +0.000 A 
ATOM      7  C   UNL     1      -2.362  12.527  20.817  0.00  0.00    +0.000 A 
ATOM      8  N   UNL     1      -1.416  11.896  21.601  0.00  0.00    +0.000 N 
ATOM      9  C   UNL     1      -1.219  11.950  23.030  0.00  0.00    +0.000 C 
ATOM     10  N   UNL     1      -0.569  11.102  20.904  0.00  0.00    +0.000 NA
BRANCH   7  11
ATOM     11  C   UNL     1      -3.443  13.415  21.266  0.00  0.00    +0.000 A 
ATOM     12  C   UNL     1      -3.288  14.802  21.168  0.00  0.00    +0.000 A 
ATOM     13  C   UNL     1      -4.304  15.681  21.569  0.00  0.00    +0.000 A 
ATOM     14  C   UNL     1      -5.522  15.206  22.073  0.00  0.00    +0.000 A 
ATOM     15  C   UNL     1      -5.665  13.813  22.182  0.00  0.00    +0.000 A 
ATOM     16  C   UNL     1      -4.635  12.937  21.817  0.00  0.00    +0.000 A 
BRANCH  14  17
ATOM     17  C   UNL     1      -6.666  16.137  22.508  0.00  0.00    +0.000 C 
ATOM     18  C   UNL     1      -7.915  15.376  23.009  0.00  0.00    +0.000 C 
ATOM     19  C   UNL     1      -6.186  17.053  23.654  0.00  0.00    +0.000 C 
ATOM     20  C   UNL     1      -7.113  17.015  21.320  0.00  0.00    +0.000 C 
ENDBRANCH  14  17
ENDBRANCH   7  11
ENDBRANCH   2   5
BRANCH   1  21
ATOM     21  C   UNL     1       1.926   9.712  17.790  0.00  0.00    +0.000 C 
BRANCH  21  25
ATOM     22  C   UNL     1       4.845   5.831  16.931  0.00  0.00    +0.000 C 
ATOM     23  C   UNL     1       3.826   6.382  17.894  0.00  0.00    +0.000 A 
ATOM     24  C   UNL     1       3.326   7.650  17.513  0.00  0.00    +0.000 A 
ATOM     25  C   UNL     1       2.383   8.359  18.264  0.00  0.00    +0.000 A 
ATOM     26  C   UNL     1       1.890   7.770  19.423  0.00  0.00    +0.000 A 
ATOM     27  C   UNL     1       2.358   6.513  19.819  0.00  0.00    +0.000 A 
ATOM     28  C   UNL     1       3.339   5.809  19.089  0.00  0.00    +0.000 A 
BRANCH  28  29
ATOM     29  O   UNL     1       3.644   4.627  19.723  0.00  0.00    +0.000 OA
BRANCH  29  30
ATOM     30  C   UNL     1       2.930   3.399  19.488  0.00  0.00    +0.000 C 
ATOM     31  C   UNL     1       2.332   2.919  20.818  0.00  0.00    +0.000 C 
ATOM     32  C   UNL     1       2.045   3.473  18.235  0.00  0.00    +0.000 C 
BRANCH  30  33
ATOM     33  C   UNL     1       3.937   2.270  19.139  0.00  0.00    +0.000 C 
ATOM     34  O   UNL     1       3.629   1.203  18.634  0.00  0.00    +0.000 OA
BRANCH  33  35
ATOM     35  O   UNL     1       5.221   2.579  19.457  0.00  0.00    +0.000 OA
ATOM     36  H   UNL     1       5.315   2.642  20.424  0.00  0.00    +0.000 HD
ENDBRANCH  33  35
ENDBRANCH  30  33
ENDBRANCH  29  30
ENDBRANCH  28  29
ENDBRANCH  21  25
ENDBRANCH   1  21
TORSDOF 9
ENDMDL
MODEL 4
REMARK VINA RESULT:      -7.7      7.705      8.828
REMARK  Name = 
REMARK  16 active torsions:
REMARK  status: ('A' for Active; 'I' for Inactive)
REMARK    1  A    between atoms: C_1  and  C_2
REMARK    2  A    between atoms: C_4  and  C_5
REMARK    3  A    between atoms: C_5  and  N_6
REMARK    4  A    between atoms: C_7  and  C_9
REMARK    5  A    between atoms: C_11  and  C_12
REMARK    6  A    between atoms: C_15  and  C_16
REMARK    7  A    between atoms: C_16  and  C_17
REMARK    8  A    between atoms: C_16  and  C_18
REMARK    9  A    between atoms: C_16  and  C_19
REMARK   10  A    between atoms: N_22  and  C_23
REMARK   11  A    between atoms: C_27  and  O_28
REMARK   12  A    between atoms: O_28  and  C_29
REMARK   13  A    between atoms: C_29  and  C_30
REMARK   14  A    between atoms: C_29  and  C_31
REMARK   15  A    between atoms: C_29  and  C_32
REMARK   16  A    between atoms: C_32  and  O_34
REMARK                            x       y       z     vdW  Elec       q    Type
REMARK                         _______ _______ _______ _____ _____    ______ ____
ROOT
ATOM      1  N   UNL     1       8.679   9.894  18.994  0.00  0.00    +0.000 N 
ATOM      2  C   UNL     1       9.603  10.859  19.324  0.00  0.00    +0.000 C 
ATOM      3  O   UNL     1      10.610  11.100  18.665  0.00  0.00    +0.000 OA
ATOM      4  H   UNL     1       7.861   9.846  19.595  0.00  0.00    +0.000 HD
ENDROOT
BRANCH   2   5
ATOM      5  C   UNL     1       9.271  11.577  20.565  0.00  0.00    +0.000 A 
ATOM      6  C   UNL     1       8.535  11.087  21.666  0.00  0.00    +0.000 A 
ATOM      7  C   UNL     1       8.463  12.118  22.592  0.00  0.00    +0.000 A 
ATOM      8  N   UNL     1       9.162  13.151  22.000  0.00  0.00    +0.000 N 
ATOM      9  C   UNL     1       9.447  14.475  22.500  0.00  0.00    +0.000 C 
ATOM     10  N   UNL     1       9.656  12.849  20.777  0.00  0.00    +0.000 NA
BRANCH   7  11
ATOM     11  C   UNL     1       7.841  12.109  23.924  0.00  0.00    +0.000 A 
ATOM     12  C   UNL     1       6.518  11.678  24.069  0.00  0.00    +0.000 A 
ATOM     13  C   UNL     1       5.896  11.639  25.326  0.00  0.00    +0.000 A 
ATOM     14  C   UNL     1       6.580  12.017  26.489  0.00  0.00    +0.000 A 
ATOM     15  C   UNL     1       7.903  12.461  26.333  0.00  0.00    +0.000 A 
ATOM     16  C   UNL     1       8.510  12.537  25.073  0.00  0.00    +0.000 A 
BRANCH  14  17
ATOM     17  C   UNL     1       5.939  11.972  27.886  0.00  0.00    +0.000 C 
ATOM     18  C   UNL     1       4.395  11.920  27.848  0.00  0.00    +0.000 C 
ATOM     19  C   UNL     1       6.430  10.722  28.647  0.00  0.00    +0.000 C 
ATOM     20  C   UNL     1       6.334  13.231  28.688  0.00  0.00    +0.000 C 
ENDBRANCH  14  17
ENDBRANCH   7  11
ENDBRANCH   2   5
BRANCH   1  21
ATOM     21  C   UNL     1       8.800   9.041  17.843  0.00  0.00    +0.000 C 
BRANCH  21  25
ATOM     22  C   UNL     1       5.008   6.457  16.035  0.00  0.00    +0.000 C 
ATOM     23  C   UNL     1       6.066   6.454  17.108  0.00  0.00    +0.000 A 
ATOM     24  C   UNL     1       6.898   7.599  17.076  0.00  0.00    +0.000 A 
ATOM     25  C   UNL     1       7.956   7.801  17.967  0.00  0.00    +0.000 A 
ATOM     26  C   UNL     1       8.177   6.845  18.952  0.00  0.00    +0.000 A 
ATOM     27  C   UNL     1       7.365   5.708  19.015  0.00  0.00    +0.000 A 
ATOM     28  C   UNL     1       6.321   5.476  18.095  0.00  0.00    +0.000 A 
BRANCH  28  29
ATOM     29  O   UNL     1       5.715   4.269  18.359  0.00  0.00    +0.000 OA
BRANCH  29  30
ATOM     30  C   UNL     1       4.321   4.144  18.697  0.00  0.00    +0.000 C 
ATOM     31  C   UNL     1       3.906   5.369  19.522  0.00  0.00    +0.000 C 
ATOM     32  C   UNL     1       3.470   3.708  17.495  0.00  0.00    +0.000 C 
BRANCH  30  33
ATOM     33  C   UNL     1       4.133   2.975  19.702  0.00  0.00    +0.000 C 
ATOM     34  O   UNL     1       3.100   2.745  20.308  0.00  0.00    +0.000 OA
BRANCH  33  35
ATOM     35  O   UNL     1       5.249   2.214  19.855  0.00  0.00    +0.000 OA
ATOM     36  H   UNL     1       5.765   2.535  20.616  0.00  0.00    +0.000 HD
ENDBRANCH  33  35
ENDBRANCH  30  33
ENDBRANCH  29  30
ENDBRANCH  28  29
ENDBRANCH  21  25
ENDBRANCH   1  21
TORSDOF 9
ENDMDL
MODEL 5
REMARK VINA RESULT:      -7.7      1.534      2.136
REMARK  Name = 
REMARK  16 active torsions:
REMARK  status: ('A' for Active; 'I' for Inactive)
REMARK    1  A    between atoms: C_1  and  C_2
REMARK    2  A    between atoms: C_4  and  C_5
REMARK    3  A    between atoms: C_5  and  N_6
REMARK    4  A    between atoms: C_7  and  C_9
REMARK    5  A    between atoms: C_11  and  C_12
REMARK    6  A    between atoms: C_15  and  C_16
REMARK    7  A    between atoms: C_16  and  C_17
REMARK    8  A    between atoms: C_16  and  C_18
REMARK    9  A    between atoms: C_16  and  C_19
REMARK   10  A    between atoms: N_22  and  C_23
REMARK   11  A    between atoms: C_27  and  O_28
REMARK   12  A    between atoms: O_28  and  C_29
REMARK   13  A    between atoms: C_29  and  C_30
REMARK   14  A    between atoms: C_29  and  C_31
REMARK   15  A    between atoms: C_29  and  C_32
REMARK   16  A    between atoms: C_32  and  O_34
REMARK                            x       y       z     vdW  Elec       q    Type
REMARK                         _______ _______ _______ _____ _____    ______ ____
ROOT
ATOM      1  N   UNL     1       0.755  10.184  18.143  0.00  0.00    +0.000 N 
ATOM      2  C   UNL     1       0.546  11.140  19.110  0.00  0.00    +0.000 C 
ATOM      3  O   UNL     1       1.442  11.656  19.773  0.00  0.00    +0.000 OA
ATOM      4  H   UNL     1      -0.071   9.891  17.630  0.00  0.00    +0.000 HD
ENDROOT
BRANCH   2   5
ATOM      5  C   UNL     1      -0.875  11.483  19.286  0.00  0.00    +0.000 A 
ATOM      6  C   UNL     1      -1.448  12.253  20.322  0.00  0.00    +0.000 A 
ATOM      7  C   UNL     1      -2.813  12.297  20.083  0.00  0.00    +0.000 A 
ATOM      8  N   UNL     1      -2.975  11.564  18.923  0.00  0.00    +0.000 N 
ATOM      9  C   UNL     1      -4.177  11.279  18.174  0.00  0.00    +0.000 C 
ATOM     10  N   UNL     1      -1.821  11.062  18.427  0.00  0.00    +0.000 NA
BRANCH   7  11
ATOM     11  C   UNL     1      -3.853  13.003  20.844  0.00  0.00    +0.000 A 
ATOM     12  C   UNL     1      -4.062  12.687  22.191  0.00  0.00    +0.000 A 
ATOM     13  C   UNL     1      -5.033  13.351  22.955  0.00  0.00    +0.000 A 
ATOM     14  C   UNL     1      -5.823  14.369  22.404  0.00  0.00    +0.000 A 
ATOM     15  C   UNL     1      -5.617  14.670  21.048  0.00  0.00    +0.000 A 
ATOM     16  C   UNL     1      -4.675  13.979  20.276  0.00  0.00    +0.000 A 
BRANCH  14  17
ATOM     17  C   UNL     1      -6.886  15.131  23.213  0.00  0.00    +0.000 C 
ATOM     18  C   UNL     1      -7.671  14.229  24.192  0.00  0.00    +0.000 C 
ATOM     19  C   UNL     1      -6.212  16.246  24.041  0.00  0.00    +0.000 C 
ATOM     20  C   UNL     1      -7.916  15.772  22.258  0.00  0.00    +0.000 C 
ENDBRANCH  14  17
ENDBRANCH   7  11
ENDBRANCH   2   5
BRANCH   1  21
ATOM     21  C   UNL     1       2.054   9.663  17.812  0.00  0.00    +0.000 C 
BRANCH  21  25
ATOM     22  C   UNL     1       4.323   5.295  17.506  0.00  0.00    +0.000 C 
ATOM     23  C   UNL     1       3.432   6.131  18.388  0.00  0.00    +0.000 A 
ATOM     24  C   UNL     1       3.117   7.392  17.828  0.00  0.00    +0.000 A 
ATOM     25  C   UNL     1       2.318   8.339  18.476  0.00  0.00    +0.000 A 
ATOM     26  C   UNL     1       1.783   8.009  19.716  0.00  0.00    +0.000 A 
ATOM     27  C   UNL     1       2.069   6.765  20.290  0.00  0.00    +0.000 A 
ATOM     28  C   UNL     1       2.907   5.821  19.661  0.00  0.00    +0.000 A 
BRANCH  28  29
ATOM     29  O   UNL     1       3.052   4.710  20.460  0.00  0.00    +0.000 OA
BRANCH  29  30
ATOM     30  C   UNL     1       2.194   3.556  20.372  0.00  0.00    +0.000 C 
ATOM     31  C   UNL     1       2.430   2.676  21.606  0.00  0.00    +0.000 C 
ATOM     32  C   UNL     1       0.762   3.930  19.962  0.00  0.00    +0.000 C 
BRANCH  30  33
ATOM     33  C   UNL     1       2.665   2.646  19.206  0.00  0.00    +0.000 C 
ATOM     34  O   UNL     1       1.993   2.377  18.225  0.00  0.00    +0.000 OA
BRANCH  33  35
ATOM     35  O   UNL     1       3.922   2.158  19.380  0.00  0.00    +0.000 OA
ATOM     36  H   UNL     1       3.909   1.441  20.040  0.00  0.00    +0.000 HD
ENDBRANCH  33  35
ENDBRANCH  30  33
ENDBRANCH  29  30
ENDBRANCH  28  29
ENDBRANCH  21  25
ENDBRANCH   1  21
TORSDOF 9
ENDMDL
MODEL 6
REMARK VINA RESULT:      -7.6      3.725      5.698
REMARK  Name = 
REMARK  16 active torsions:
REMARK  status: ('A' for Active; 'I' for Inactive)
REMARK    1  A    between atoms: C_1  and  C_2
REMARK    2  A    between atoms: C_4  and  C_5
REMARK    3  A    between atoms: C_5  and  N_6
REMARK    4  A    between atoms: C_7  and  C_9
REMARK    5  A    between atoms: C_11  and  C_12
REMARK    6  A    between atoms: C_15  and  C_16
REMARK    7  A    between atoms: C_16  and  C_17
REMARK    8  A    between atoms: C_16  and  C_18
REMARK    9  A    between atoms: C_16  and  C_19
REMARK   10  A    between atoms: N_22  and  C_23
REMARK   11  A    between atoms: C_27  and  O_28
REMARK   12  A    between atoms: O_28  and  C_29
REMARK   13  A    between atoms: C_29  and  C_30
REMARK   14  A    between atoms: C_29  and  C_31
REMARK   15  A    between atoms: C_29  and  C_32
REMARK   16  A    between atoms: C_32  and  O_34
REMARK                            x       y       z     vdW  Elec       q    Type
REMARK                         _______ _______ _______ _____ _____    ______ ____
ROOT
ATOM      1  N   UNL     1       1.344   7.745  20.127  0.00  0.00    +0.000 N 
ATOM      2  C   UNL     1       1.160   8.790  21.003  0.00  0.00    +0.000 C 
ATOM      3  O   UNL     1       1.436   8.742  22.198  0.00  0.00    +0.000 OA
ATOM      4  H   UNL     1       1.131   7.945  19.154  0.00  0.00    +0.000 HD
ENDROOT
BRANCH   2   5
ATOM      5  C   UNL     1       0.582   9.983  20.365  0.00  0.00    +0.000 A 
ATOM      6  C   UNL     1       1.085  11.302  20.400  0.00  0.00    +0.000 A 
ATOM      7  C   UNL     1       0.204  12.089  19.674  0.00  0.00    +0.000 A 
ATOM      8  N   UNL     1      -0.763  11.202  19.243  0.00  0.00    +0.000 N 
ATOM      9  C   UNL     1      -1.928  11.436  18.423  0.00  0.00    +0.000 C 
ATOM     10  N   UNL     1      -0.557   9.928  19.649  0.00  0.00    +0.000 NA
BRANCH   7  11
ATOM     11  C   UNL     1       0.294  13.525  19.374  0.00  0.00    +0.000 A 
ATOM     12  C   UNL     1      -0.776  14.369  19.692  0.00  0.00    +0.000 A 
ATOM     13  C   UNL     1      -0.720  15.747  19.438  0.00  0.00    +0.000 A 
ATOM     14  C   UNL     1       0.416  16.337  18.867  0.00  0.00    +0.000 A 
ATOM     15  C   UNL     1       1.480  15.481  18.537  0.00  0.00    +0.000 A 
ATOM     16  C   UNL     1       1.407  14.100  18.756  0.00  0.00    +0.000 A 
BRANCH  14  17
ATOM     17  C   UNL     1       0.522  17.846  18.587  0.00  0.00    +0.000 C 
ATOM     18  C   UNL     1       1.276  18.620  19.692  0.00  0.00    +0.000 C 
ATOM     19  C   UNL     1       1.272  18.079  17.258  0.00  0.00    +0.000 C 
ATOM     20  C   UNL     1      -0.889  18.463  18.479  0.00  0.00    +0.000 C 
ENDBRANCH  14  17
ENDBRANCH   7  11
ENDBRANCH   2   5
BRANCH   1  21
ATOM     21  C   UNL     1       1.866   6.464  20.520  0.00  0.00    +0.000 C 
BRANCH  21  25
ATOM     22  C   UNL     1       6.506   5.427  19.209  0.00  0.00    +0.000 C 
ATOM     23  C   UNL     1       5.074   5.324  18.753  0.00  0.00    +0.000 A 
ATOM     24  C   UNL     1       4.153   5.874  19.677  0.00  0.00    +0.000 A 
ATOM     25  C   UNL     1       2.770   5.875  19.470  0.00  0.00    +0.000 A 
ATOM     26  C   UNL     1       2.283   5.341  18.283  0.00  0.00    +0.000 A 
ATOM     27  C   UNL     1       3.170   4.800  17.346  0.00  0.00    +0.000 A 
ATOM     28  C   UNL     1       4.563   4.758  17.565  0.00  0.00    +0.000 A 
BRANCH  28  29
ATOM     29  O   UNL     1       5.190   4.137  16.508  0.00  0.00    +0.000 OA
BRANCH  29  30
ATOM     30  C   UNL     1       5.677   4.846  15.353  0.00  0.00    +0.000 C 
ATOM     31  C   UNL     1       5.429   3.983  14.110  0.00  0.00    +0.000 C 
ATOM     32  C   UNL     1       5.249   6.322  15.356  0.00  0.00    +0.000 C 
BRANCH  30  33
ATOM     33  C   UNL     1       7.226   4.931  15.410  0.00  0.00    +0.000 C 
ATOM     34  O   UNL     1       7.915   5.514  14.591  0.00  0.00    +0.000 OA
BRANCH  33  35
ATOM     35  O   UNL     1       7.761   4.276  16.474  0.00  0.00    +0.000 OA
ATOM     36  H   UNL     1       8.195   4.914  17.069  0.00  0.00    +0.000 HD
ENDBRANCH  33  35
ENDBRANCH  30  33
ENDBRANCH  29  30
ENDBRANCH  28  29
ENDBRANCH  21  25
ENDBRANCH   1  21
TORSDOF 9
ENDMDL
MODEL 7
REMARK VINA RESULT:      -7.6      2.209      3.199
REMARK  Name = 
REMARK  16 active torsions:
REMARK  status: ('A' for Active; 'I' for Inactive)
REMARK    1  A    between atoms: C_1  and  C_2
REMARK    2  A    between atoms: C_4  and  C_5
REMARK    3  A    between atoms: C_5  and  N_6
REMARK    4  A    between atoms: C_7  and  C_9
REMARK    5  A    between atoms: C_11  and  C_12
REMARK    6  A    between atoms: C_15  and  C_16
REMARK    7  A    between atoms: C_16  and  C_17
REMARK    8  A    between atoms: C_16  and  C_18
REMARK    9  A    between atoms: C_16  and  C_19
REMARK   10  A    between atoms: N_22  and  C_23
REMARK   11  A    between atoms: C_27  and  O_28
REMARK   12  A    between atoms: O_28  and  C_29
REMARK   13  A    between atoms: C_29  and  C_30
REMARK   14  A    between atoms: C_29  and  C_31
REMARK   15  A    between atoms: C_29  and  C_32
REMARK   16  A    between atoms: C_32  and  O_34
REMARK                            x       y       z     vdW  Elec       q    Type
REMARK                         _______ _______ _______ _____ _____    ______ ____
ROOT
ATOM      1  N   UNL     1       0.793  10.480  18.433  0.00  0.00    +0.000 N 
ATOM      2  C   UNL     1      -0.533  10.371  18.081  0.00  0.00    +0.000 C 
ATOM      3  O   UNL     1      -0.949   9.641  17.186  0.00  0.00    +0.000 OA
ATOM      4  H   UNL     1       0.986  11.075  19.233  0.00  0.00    +0.000 HD
ENDROOT
BRANCH   2   5
ATOM      5  C   UNL     1      -1.417  11.233  18.882  0.00  0.00    +0.000 A 
ATOM      6  C   UNL     1      -1.040  12.123  19.912  0.00  0.00    +0.000 A 
ATOM      7  C   UNL     1      -2.206  12.706  20.387  0.00  0.00    +0.000 A 
ATOM      8  N   UNL     1      -3.203  12.142  19.613  0.00  0.00    +0.000 N 
ATOM      9  C   UNL     1      -4.627  12.380  19.630  0.00  0.00    +0.000 C 
ATOM     10  N   UNL     1      -2.750  11.251  18.702  0.00  0.00    +0.000 NA
BRANCH   7  11
ATOM     11  C   UNL     1      -2.358  13.729  21.430  0.00  0.00    +0.000 A 
ATOM     12  C   UNL     1      -2.744  13.353  22.721  0.00  0.00    +0.000 A 
ATOM     13  C   UNL     1      -2.882  14.299  23.747  0.00  0.00    +0.000 A 
ATOM     14  C   UNL     1      -2.626  15.659  23.524  0.00  0.00    +0.000 A 
ATOM     15  C   UNL     1      -2.252  16.030  22.222  0.00  0.00    +0.000 A 
ATOM     16  C   UNL     1      -2.152  15.090  21.189  0.00  0.00    +0.000 A 
BRANCH  14  17
ATOM     17  C   UNL     1      -2.750  16.724  24.626  0.00  0.00    +0.000 C 
ATOM     18  C   UNL     1      -4.190  16.877  25.167  0.00  0.00    +0.000 C 
ATOM     19  C   UNL     1      -1.841  16.352  25.817  0.00  0.00    +0.000 C 
ATOM     20  C   UNL     1      -2.318  18.102  24.080  0.00  0.00    +0.000 C 
ENDBRANCH  14  17
ENDBRANCH   7  11
ENDBRANCH   2   5
BRANCH   1  21
ATOM     21  C   UNL     1       1.849   9.761  17.774  0.00  0.00    +0.000 C 
BRANCH  21  25
ATOM     22  C   UNL     1       4.023   5.349  17.403  0.00  0.00    +0.000 C 
ATOM     23  C   UNL     1       3.219   6.222  18.332  0.00  0.00    +0.000 A 
ATOM     24  C   UNL     1       2.877   7.474  17.766  0.00  0.00    +0.000 A 
ATOM     25  C   UNL     1       2.147   8.450  18.450  0.00  0.00    +0.000 A 
ATOM     26  C   UNL     1       1.709   8.160  19.737  0.00  0.00    +0.000 A 
ATOM     27  C   UNL     1       2.023   6.927  20.319  0.00  0.00    +0.000 A 
ATOM     28  C   UNL     1       2.793   5.953  19.651  0.00  0.00    +0.000 A 
BRANCH  28  29
ATOM     29  O   UNL     1       2.986   4.860  20.465  0.00  0.00    +0.000 OA
BRANCH  29  30
ATOM     30  C   UNL     1       2.343   3.590  20.247  0.00  0.00    +0.000 C 
ATOM     31  C   UNL     1       2.082   2.935  21.609  0.00  0.00    +0.000 C 
ATOM     32  C   UNL     1       1.210   3.684  19.214  0.00  0.00    +0.000 C 
BRANCH  30  33
ATOM     33  C   UNL     1       3.344   2.608  19.580  0.00  0.00    +0.000 C 
ATOM     34  O   UNL     1       3.022   1.676  18.864  0.00  0.00    +0.000 OA
BRANCH  33  35
ATOM     35  O   UNL     1       4.642   2.881  19.876  0.00  0.00    +0.000 OA
ATOM     36  H   UNL     1       5.009   2.174  20.437  0.00  0.00    +0.000 HD
ENDBRANCH  33  35
ENDBRANCH  30  33
ENDBRANCH  29  30
ENDBRANCH  28  29
ENDBRANCH  21  25
ENDBRANCH   1  21
TORSDOF 9
ENDMDL
MODEL 8
REMARK VINA RESULT:      -7.5      1.768      2.417
REMARK  Name = 
REMARK  16 active torsions:
REMARK  status: ('A' for Active; 'I' for Inactive)
REMARK    1  A    between atoms: C_1  and  C_2
REMARK    2  A    between atoms: C_4  and  C_5
REMARK    3  A    between atoms: C_5  and  N_6
REMARK    4  A    between atoms: C_7  and  C_9
REMARK    5  A    between atoms: C_11  and  C_12
REMARK    6  A    between atoms: C_15  and  C_16
REMARK    7  A    between atoms: C_16  and  C_17
REMARK    8  A    between atoms: C_16  and  C_18
REMARK    9  A    between atoms: C_16  and  C_19
REMARK   10  A    between atoms: N_22  and  C_23
REMARK   11  A    between atoms: C_27  and  O_28
REMARK   12  A    between atoms: O_28  and  C_29
REMARK   13  A    between atoms: C_29  and  C_30
REMARK   14  A    between atoms: C_29  and  C_31
REMARK   15  A    between atoms: C_29  and  C_32
REMARK   16  A    between atoms: C_32  and  O_34
REMARK                            x       y       z     vdW  Elec       q    Type
REMARK                         _______ _______ _______ _____ _____    ______ ____
ROOT
ATOM      1  N   UNL     1       1.073   9.688  18.768  0.00  0.00    +0.000 N 
ATOM      2  C   UNL     1       1.075  11.025  19.097  0.00  0.00    +0.000 C 
ATOM      3  O   UNL     1       1.807  11.860  18.574  0.00  0.00    +0.000 OA
ATOM      4  H   UNL     1       0.371   9.123  19.235  0.00  0.00    +0.000 HD
ENDROOT
BRANCH   2   5
ATOM      5  C   UNL     1       0.111  11.360  20.157  0.00  0.00    +0.000 A 
ATOM      6  C   UNL     1      -0.833  12.411  20.154  0.00  0.00    +0.000 A 
ATOM      7  C   UNL     1      -1.509  12.348  21.364  0.00  0.00    +0.000 A 
ATOM      8  N   UNL     1      -0.940  11.267  22.011  0.00  0.00    +0.000 N 
ATOM      9  C   UNL     1      -1.251  10.699  23.301  0.00  0.00    +0.000 C 
ATOM     10  N   UNL     1       0.039  10.659  21.303  0.00  0.00    +0.000 NA
BRANCH   7  11
ATOM     11  C   UNL     1      -2.614  13.191  21.839  0.00  0.00    +0.000 A 
ATOM     12  C   UNL     1      -2.349  14.267  22.693  0.00  0.00    +0.000 A 
ATOM     13  C   UNL     1      -3.376  15.105  23.153  0.00  0.00    +0.000 A 
ATOM     14  C   UNL     1      -4.708  14.906  22.765  0.00  0.00    +0.000 A 
ATOM     15  C   UNL     1      -4.968  13.815  21.919  0.00  0.00    +0.000 A 
ATOM     16  C   UNL     1      -3.947  12.956  21.492  0.00  0.00    +0.000 A 
BRANCH  14  17
ATOM     17  C   UNL     1      -5.859  15.811  23.234  0.00  0.00    +0.000 C 
ATOM     18  C   UNL     1      -6.458  16.674  22.100  0.00  0.00    +0.000 C 
ATOM     19  C   UNL     1      -6.998  14.948  23.817  0.00  0.00    +0.000 C 
ATOM     20  C   UNL     1      -5.356  16.779  24.327  0.00  0.00    +0.000 C 
ENDBRANCH  14  17
ENDBRANCH   7  11
ENDBRANCH   2   5
BRANCH   1  21
ATOM     21  C   UNL     1       1.948   9.113  17.783  0.00  0.00    +0.000 C 
BRANCH  21  25
ATOM     22  C   UNL     1       4.994   5.381  16.725  0.00  0.00    +0.000 C 
ATOM     23  C   UNL     1       4.053   5.907  17.778  0.00  0.00    +0.000 A 
ATOM     24  C   UNL     1       3.437   7.129  17.416  0.00  0.00    +0.000 A 
ATOM     25  C   UNL     1       2.539   7.808  18.244  0.00  0.00    +0.000 A 
ATOM     26  C   UNL     1       2.213   7.236  19.469  0.00  0.00    +0.000 A 
ATOM     27  C   UNL     1       2.799   6.024  19.850  0.00  0.00    +0.000 A 
ATOM     28  C   UNL     1       3.737   5.353  19.038  0.00  0.00    +0.000 A 
BRANCH  28  29
ATOM     29  O   UNL     1       4.183   4.215  19.670  0.00  0.00    +0.000 OA
BRANCH  29  30
ATOM     30  C   UNL     1       3.507   2.946  19.580  0.00  0.00    +0.000 C 
ATOM     31  C   UNL     1       2.603   2.960  18.341  0.00  0.00    +0.000 C 
ATOM     32  C   UNL     1       4.459   1.764  19.818  0.00  0.00    +0.000 C 
BRANCH  30  33
ATOM     33  C   UNL     1       2.489   2.816  20.745  0.00  0.00    +0.000 C 
ATOM     34  O   UNL     1       2.796   2.663  21.916  0.00  0.00    +0.000 OA
BRANCH  33  35
ATOM     35  O   UNL     1       1.195   2.883  20.337  0.00  0.00    +0.000 OA
ATOM     36  H   UNL     1       0.610   2.986  21.110  0.00  0.00    +0.000 HD
ENDBRANCH  33  35
ENDBRANCH  30  33
ENDBRANCH  29  30
ENDBRANCH  28  29
ENDBRANCH  21  25
ENDBRANCH   1  21
TORSDOF 9
ENDMDL
MODEL 9
REMARK VINA RESULT:      -7.4      2.276      3.483
REMARK  Name = 
REMARK  16 active torsions:
REMARK  status: ('A' for Active; 'I' for Inactive)
REMARK    1  A    between atoms: C_1  and  C_2
REMARK    2  A    between atoms: C_4  and  C_5
REMARK    3  A    between atoms: C_5  and  N_6
REMARK    4  A    between atoms: C_7  and  C_9
REMARK    5  A    between atoms: C_11  and  C_12
REMARK    6  A    between atoms: C_15  and  C_16
REMARK    7  A    between atoms: C_16  and  C_17
REMARK    8  A    between atoms: C_16  and  C_18
REMARK    9  A    between atoms: C_16  and  C_19
REMARK   10  A    between atoms: N_22  and  C_23
REMARK   11  A    between atoms: C_27  and  O_28
REMARK   12  A    between atoms: O_28  and  C_29
REMARK   13  A    between atoms: C_29  and  C_30
REMARK   14  A    between atoms: C_29  and  C_31
REMARK   15  A    between atoms: C_29  and  C_32
REMARK   16  A    between atoms: C_32  and  O_34
REMARK                            x       y       z     vdW  Elec       q    Type
REMARK                         _______ _______ _______ _____ _____    ______ ____
ROOT
ATOM      1  N   UNL     1       0.813  10.362  18.338  0.00  0.00    +0.000 N 
ATOM      2  C   UNL     1      -0.530  10.322  18.039  0.00  0.00    +0.000 C 
ATOM      3  O   UNL     1      -1.015   9.633  17.146  0.00  0.00    +0.000 OA
ATOM      4  H   UNL     1       1.066  10.928  19.143  0.00  0.00    +0.000 HD
ENDROOT
BRANCH   2   5
ATOM      5  C   UNL     1      -1.339  11.204  18.894  0.00  0.00    +0.000 A 
ATOM      6  C   UNL     1      -0.895  11.980  19.988  0.00  0.00    +0.000 A 
ATOM      7  C   UNL     1      -2.008  12.634  20.495  0.00  0.00    +0.000 A 
ATOM      8  N   UNL     1      -3.042  12.223  19.677  0.00  0.00    +0.000 N 
ATOM      9  C   UNL     1      -4.438  12.592  19.702  0.00  0.00    +0.000 C 
ATOM     10  N   UNL     1      -2.663  11.360  18.707  0.00  0.00    +0.000 NA
BRANCH   7  11
ATOM     11  C   UNL     1      -2.077  13.592  21.608  0.00  0.00    +0.000 A 
ATOM     12  C   UNL     1      -1.872  14.954  21.365  0.00  0.00    +0.000 A 
ATOM     13  C   UNL     1      -1.947  15.900  22.398  0.00  0.00    +0.000 A 
ATOM     14  C   UNL     1      -2.244  15.519  23.714  0.00  0.00    +0.000 A 
ATOM     15  C   UNL     1      -2.435  14.148  23.952  0.00  0.00    +0.000 A 
ATOM     16  C   UNL     1      -2.321  13.201  22.927  0.00  0.00    +0.000 A 
BRANCH  14  17
ATOM     17  C   UNL     1      -2.351  16.527  24.871  0.00  0.00    +0.000 C 
ATOM     18  C   UNL     1      -1.757  17.913  24.530  0.00  0.00    +0.000 C 
ATOM     19  C   UNL     1      -3.834  16.734  25.247  0.00  0.00    +0.000 C 
ATOM     20  C   UNL     1      -1.592  15.996  26.106  0.00  0.00    +0.000 C 
ENDBRANCH  14  17
ENDBRANCH   7  11
ENDBRANCH   2   5
BRANCH   1  21
ATOM     21  C   UNL     1       1.808   9.611  17.621  0.00  0.00    +0.000 C 
BRANCH  21  25
ATOM     22  C   UNL     1       4.109   5.260  17.308  0.00  0.00    +0.000 C 
ATOM     23  C   UNL     1       3.294   6.128  18.231  0.00  0.00    +0.000 A 
ATOM     24  C   UNL     1       2.905   7.356  17.644  0.00  0.00    +0.000 A 
ATOM     25  C   UNL     1       2.157   8.324  18.320  0.00  0.00    +0.000 A 
ATOM     26  C   UNL     1       1.749   8.049  19.620  0.00  0.00    +0.000 A 
ATOM     27  C   UNL     1       2.109   6.839  20.223  0.00  0.00    +0.000 A 
ATOM     28  C   UNL     1       2.898   5.875  19.562  0.00  0.00    +0.000 A 
BRANCH  28  29
ATOM     29  O   UNL     1       3.138   4.806  20.396  0.00  0.00    +0.000 OA
BRANCH  29  30
ATOM     30  C   UNL     1       2.668   3.473  20.125  0.00  0.00    +0.000 C 
ATOM     31  C   UNL     1       1.257   3.564  19.529  0.00  0.00    +0.000 C 
ATOM     32  C   UNL     1       3.735   2.611  19.433  0.00  0.00    +0.000 C 
BRANCH  30  33
ATOM     33  C   UNL     1       2.427   2.724  21.463  0.00  0.00    +0.000 C 
ATOM     34  O   UNL     1       3.264   2.046  22.035  0.00  0.00    +0.000 OA
BRANCH  33  35
ATOM     35  O   UNL     1       1.170   2.888  21.952  0.00  0.00    +0.000 OA
ATOM     36  H   UNL     1       0.522   2.511  21.330  0.00  0.00    +0.000 HD
ENDBRANCH  33  35
ENDBRANCH  30  33
ENDBRANCH  29  30
ENDBRANCH  28  29
ENDBRANCH  21  25
ENDBRANCH   1  21
TORSDOF 9
ENDMDL
