MODEL 1
REMARK VINA RESULT:      -6.2      0.000      0.000
REMARK  Name = 
REMARK  18 active torsions:
REMARK  status: ('A' for Active; 'I' for Inactive)
REMARK    1  A    between atoms: C_2  and  C_3
REMARK    2  A    between atoms: C_3  and  C_4
REMARK    3  A    between atoms: C_4  and  C_5
REMARK    4  A    between atoms: C_6  and  C_7
REMARK    5  A    between atoms: C_8  and  C_9
REMARK    6  A    between atoms: C_9  and  C_10
REMARK    7  A    between atoms: C_10  and  C_11
REMARK    8  A    between atoms: C_11  and  C_12
REMARK    9  A    between atoms: C_12  and  C_13
REMARK   10  A    between atoms: C_13  and  C_14
REMARK   11  A    between atoms: C_14  and  C_15
REMARK   12  A    between atoms: C_15  and  C_16
REMARK   13  A    between atoms: C_16  and  C_17
REMARK   14  A    between atoms: C_20  and  C_21
REMARK   15  A    between atoms: C_24  and  C_25
REMARK   16  A    between atoms: C_25  and  C_26
REMARK   17  A    between atoms: C_26  and  O_28
REMARK   18  A    between atoms: O_28  and  C_29
REMARK                            x       y       z     vdW  Elec       q    Type
REMARK                         _______ _______ _______ _____ _____    ______ ____
ROOT
ATOM      1  C   UNL     1       1.202   6.249  20.731  0.00  0.00    +0.000 C 
ENDROOT
BRANCH   1   2
ATOM      2  C   UNL     1       1.682   5.249  19.680  0.00  0.00    +0.000 C 
ATOM      3  C   UNL     1       1.282   3.819  20.019  0.00  0.00    +0.000 C 
ATOM      4  C   UNL     1       2.430   3.015  19.448  0.00  0.00    +0.000 C 
ATOM      5  C   UNL     1       3.608   3.915  19.769  0.00  0.00    +0.000 C 
ATOM      6  O   UNL     1       3.120   5.263  19.597  0.00  0.00    +0.000 OA
BRANCH   5   7
ATOM      7  C   UNL     1       4.928   3.721  19.005  0.00  0.00    +0.000 C 
ATOM      8  C   UNL     1       5.953   4.869  19.025  0.00  0.00    +0.000 C 
ATOM      9  C   UNL     1       5.830   5.845  17.858  0.00  0.00    +0.000 C 
ATOM     10  C   UNL     1       5.492   5.126  16.552  0.00  0.00    +0.000 C 
ATOM     11  O   UNL     1       4.315   4.346  16.825  0.00  0.00    +0.000 OA
ATOM     12  O   UNL     1       4.725   3.229  17.674  0.00  0.00    +0.000 OA
BRANCH  10  13
ATOM     13  C   UNL     1       6.614   4.269  15.959  0.00  0.00    +0.000 C 
BRANCH  13  14
ATOM     14  C   UNL     1       6.760   4.486  14.476  0.00  0.00    +0.000 C 
ATOM     15  O   UNL     1       7.205   5.503  13.961  0.00  0.00    +0.000 OA
BRANCH  14  16
ATOM     16  O   UNL     1       6.320   3.393  13.798  0.00  0.00    +0.000 OA
ATOM     17  C   UNL     1       5.655   3.690  12.568  0.00  0.00    +0.000 C 
ENDBRANCH  14  16
ENDBRANCH  13  14
ENDBRANCH  10  13
ENDBRANCH   5   7
ENDBRANCH   1   2
BRANCH   1  18
ATOM     18  C   UNL     1       1.919   7.599  20.637  0.00  0.00    +0.000 C 
BRANCH  18  19
ATOM     19  C   UNL     1       1.171   8.719  21.375  0.00  0.00    +0.000 C 
BRANCH  19  20
ATOM     20  C   UNL     1      -0.269   8.373  21.784  0.00  0.00    +0.000 C 
BRANCH  20  21
ATOM     21  C   UNL     1      -0.745   9.271  22.919  0.00  0.00    +0.000 C 
BRANCH  21  22
ATOM     22  C   UNL     1      -0.297  10.725  22.784  0.00  0.00    +0.000 C 
BRANCH  22  23
ATOM     23  C   UNL     1      -1.495  11.685  22.877  0.00  0.00    +0.000 C 
BRANCH  23  24
ATOM     24  C   UNL     1      -1.091  13.105  22.480  0.00  0.00    +0.000 C 
BRANCH  24  26
ATOM     25  C   UNL     1      -0.077  13.108  20.201  0.00  0.00    +0.000 C 
ATOM     26  C   UNL     1       0.066  13.181  21.533  0.00  0.00    +0.000 C 
BRANCH  25  28
ATOM     27  C   UNL     1      -1.892  11.940  19.000  0.00  0.00    +0.000 C 
ATOM     28  C   UNL     1      -1.351  13.050  19.521  0.00  0.00    +0.000 C 
BRANCH  27  29
ATOM     29  C   UNL     1      -1.283  10.572  19.110  0.00  0.00    +0.000 C 
BRANCH  29  30
ATOM     30  C   UNL     1      -0.756  10.046  17.775  0.00  0.00    +0.000 C 
BRANCH  30  32
ATOM     31  C   UNL     1       1.696  10.418  18.158  0.00  0.00    +0.000 C 
ATOM     32  C   UNL     1       0.668   9.595  17.920  0.00  0.00    +0.000 C 
ENDBRANCH  30  32
ENDBRANCH  29  30
ENDBRANCH  27  29
ENDBRANCH  25  28
ENDBRANCH  24  26
ENDBRANCH  23  24
ENDBRANCH  22  23
ENDBRANCH  21  22
ENDBRANCH  20  21
ENDBRANCH  19  20
ENDBRANCH  18  19
ENDBRANCH   1  18
TORSDOF 17
ENDMDL
MODEL 2
REMARK VINA RESULT:      -5.9      6.569     11.175
REMARK  Name = 
REMARK  18 active torsions:
REMARK  status: ('A' for Active; 'I' for Inactive)
REMARK    1  A    between atoms: C_2  and  C_3
REMARK    2  A    between atoms: C_3  and  C_4
REMARK    3  A    between atoms: C_4  and  C_5
REMARK    4  A    between atoms: C_6  and  C_7
REMARK    5  A    between atoms: C_8  and  C_9
REMARK    6  A    between atoms: C_9  and  C_10
REMARK    7  A    between atoms: C_10  and  C_11
REMARK    8  A    between atoms: C_11  and  C_12
REMARK    9  A    between atoms: C_12  and  C_13
REMARK   10  A    between atoms: C_13  and  C_14
REMARK   11  A    between atoms: C_14  and  C_15
REMARK   12  A    between atoms: C_15  and  C_16
REMARK   13  A    between atoms: C_16  and  C_17
REMARK   14  A    between atoms: C_20  and  C_21
REMARK   15  A    between atoms: C_24  and  C_25
REMARK   16  A    between atoms: C_25  and  C_26
REMARK   17  A    between atoms: C_26  and  O_28
REMARK   18  A    between atoms: O_28  and  C_29
REMARK                            x       y       z     vdW  Elec       q    Type
REMARK                         _______ _______ _______ _____ _____    ______ ____
ROOT
ATOM      1  C   UNL     1      10.331  11.024  19.216  0.00  0.00    +0.000 C 
ENDROOT
BRANCH   1   2
ATOM      2  C   UNL     1       9.769  12.337  19.761  0.00  0.00    +0.000 C 
ATOM      3  C   UNL     1      10.853  13.223  20.362  0.00  0.00    +0.000 C 
ATOM      4  C   UNL     1      10.113  13.934  21.474  0.00  0.00    +0.000 C 
ATOM      5  C   UNL     1       9.213  12.825  21.986  0.00  0.00    +0.000 C 
ATOM      6  O   UNL     1       8.822  12.077  20.814  0.00  0.00    +0.000 OA
BRANCH   5   7
ATOM      7  C   UNL     1       7.977  13.191  22.824  0.00  0.00    +0.000 C 
ATOM      8  C   UNL     1       8.200  13.859  24.193  0.00  0.00    +0.000 C 
ATOM      9  C   UNL     1       8.272  12.885  25.366  0.00  0.00    +0.000 C 
ATOM     10  C   UNL     1       7.271  11.740  25.213  0.00  0.00    +0.000 C 
ATOM     11  O   UNL     1       7.527  11.163  23.921  0.00  0.00    +0.000 OA
ATOM     12  O   UNL     1       7.040  12.110  22.920  0.00  0.00    +0.000 OA
BRANCH  10  13
ATOM     13  C   UNL     1       5.798  12.123  25.379  0.00  0.00    +0.000 C 
BRANCH  13  14
ATOM     14  C   UNL     1       5.491  12.572  26.784  0.00  0.00    +0.000 C 
ATOM     15  O   UNL     1       5.898  12.021  27.797  0.00  0.00    +0.000 OA
BRANCH  14  16
ATOM     16  O   UNL     1       4.691  13.672  26.759  0.00  0.00    +0.000 OA
ATOM     17  C   UNL     1       5.396  14.915  26.762  0.00  0.00    +0.000 C 
ENDBRANCH  14  16
ENDBRANCH  13  14
ENDBRANCH  10  13
ENDBRANCH   5   7
ENDBRANCH   1   2
BRANCH   1  18
ATOM     18  C   UNL     1       9.283   9.908  19.161  0.00  0.00    +0.000 C 
BRANCH  18  19
ATOM     19  C   UNL     1       8.506   9.891  17.836  0.00  0.00    +0.000 C 
BRANCH  19  20
ATOM     20  C   UNL     1       7.397   8.832  17.751  0.00  0.00    +0.000 C 
BRANCH  20  21
ATOM     21  C   UNL     1       7.985   7.444  17.525  0.00  0.00    +0.000 C 
BRANCH  21  22
ATOM     22  C   UNL     1       7.854   6.515  18.730  0.00  0.00    +0.000 C 
BRANCH  22  23
ATOM     23  C   UNL     1       7.029   5.266  18.381  0.00  0.00    +0.000 C 
BRANCH  23  24
ATOM     24  C   UNL     1       6.200   5.493  17.117  0.00  0.00    +0.000 C 
BRANCH  24  26
ATOM     25  C   UNL     1       3.736   5.262  17.434  0.00  0.00    +0.000 C 
ATOM     26  C   UNL     1       4.828   6.039  17.362  0.00  0.00    +0.000 C 
BRANCH  25  28
ATOM     27  C   UNL     1       2.727   3.023  17.695  0.00  0.00    +0.000 C 
ATOM     28  C   UNL     1       3.761   3.818  17.387  0.00  0.00    +0.000 C 
BRANCH  27  29
ATOM     29  C   UNL     1       1.360   3.522  18.066  0.00  0.00    +0.000 C 
BRANCH  29  30
ATOM     30  C   UNL     1       0.738   2.744  19.228  0.00  0.00    +0.000 C 
BRANCH  30  32
ATOM     31  C   UNL     1       1.605   2.699  21.582  0.00  0.00    +0.000 C 
ATOM     32  C   UNL     1       1.774   2.460  20.275  0.00  0.00    +0.000 C 
ENDBRANCH  30  32
ENDBRANCH  29  30
ENDBRANCH  27  29
ENDBRANCH  25  28
ENDBRANCH  24  26
ENDBRANCH  23  24
ENDBRANCH  22  23
ENDBRANCH  21  22
ENDBRANCH  20  21
ENDBRANCH  19  20
ENDBRANCH  18  19
ENDBRANCH   1  18
TORSDOF 17
ENDMDL
MODEL 3
REMARK VINA RESULT:      -5.9      4.526     11.033
REMARK  Name = 
REMARK  18 active torsions:
REMARK  status: ('A' for Active; 'I' for Inactive)
REMARK    1  A    between atoms: C_2  and  C_3
REMARK    2  A    between atoms: C_3  and  C_4
REMARK    3  A    between atoms: C_4  and  C_5
REMARK    4  A    between atoms: C_6  and  C_7
REMARK    5  A    between atoms: C_8  and  C_9
REMARK    6  A    between atoms: C_9  and  C_10
REMARK    7  A    between atoms: C_10  and  C_11
REMARK    8  A    between atoms: C_11  and  C_12
REMARK    9  A    between atoms: C_12  and  C_13
REMARK   10  A    between atoms: C_13  and  C_14
REMARK   11  A    between atoms: C_14  and  C_15
REMARK   12  A    between atoms: C_15  and  C_16
REMARK   13  A    between atoms: C_16  and  C_17
REMARK   14  A    between atoms: C_20  and  C_21
REMARK   15  A    between atoms: C_24  and  C_25
REMARK   16  A    between atoms: C_25  and  C_26
REMARK   17  A    between atoms: C_26  and  O_28
REMARK   18  A    between atoms: O_28  and  C_29
REMARK                            x       y       z     vdW  Elec       q    Type
REMARK                         _______ _______ _______ _____ _____    ______ ____
ROOT
ATOM      1  C   UNL     1       1.908  10.829  18.482  0.00  0.00    +0.000 C 
ENDROOT
BRANCH   1   2
ATOM      2  C   UNL     1       0.729  11.751  18.793  0.00  0.00    +0.000 C 
ATOM      3  C   UNL     1       1.182  13.111  19.310  0.00  0.00    +0.000 C 
ATOM      4  C   UNL     1       0.067  13.485  20.263  0.00  0.00    +0.000 C 
ATOM      5  C   UNL     1      -0.251  12.140  20.888  0.00  0.00    +0.000 C 
ATOM      6  O   UNL     1      -0.097  11.176  19.823  0.00  0.00    +0.000 OA
BRANCH   5   7
ATOM      7  C   UNL     1      -1.600  11.943  21.597  0.00  0.00    +0.000 C 
ATOM      8  C   UNL     1      -2.804  12.770  21.109  0.00  0.00    +0.000 C 
ATOM      9  C   UNL     1      -3.005  14.088  21.852  0.00  0.00    +0.000 C 
ATOM     10  C   UNL     1      -2.712  13.948  23.345  0.00  0.00    +0.000 C 
ATOM     11  O   UNL     1      -1.390  13.389  23.436  0.00  0.00    +0.000 OA
ATOM     12  O   UNL     1      -1.482  11.990  23.024  0.00  0.00    +0.000 OA
BRANCH  10  13
ATOM     13  C   UNL     1      -3.728  13.127  24.145  0.00  0.00    +0.000 C 
BRANCH  13  14
ATOM     14  C   UNL     1      -5.145  13.444  23.743  0.00  0.00    +0.000 C 
ATOM     15  O   UNL     1      -5.680  14.535  23.880  0.00  0.00    +0.000 OA
BRANCH  14  16
ATOM     16  O   UNL     1      -5.739  12.340  23.216  0.00  0.00    +0.000 OA
ATOM     17  C   UNL     1      -6.480  12.584  22.018  0.00  0.00    +0.000 C 
ENDBRANCH  14  16
ENDBRANCH  13  14
ENDBRANCH  10  13
ENDBRANCH   5   7
ENDBRANCH   1   2
BRANCH   1  18
ATOM     18  C   UNL     1       1.477   9.524  17.806  0.00  0.00    +0.000 C 
BRANCH  18  19
ATOM     19  C   UNL     1       2.344   8.327  18.225  0.00  0.00    +0.000 C 
BRANCH  19  20
ATOM     20  C   UNL     1       2.066   7.791  19.637  0.00  0.00    +0.000 C 
BRANCH  20  21
ATOM     21  C   UNL     1       2.429   6.315  19.742  0.00  0.00    +0.000 C 
BRANCH  21  22
ATOM     22  C   UNL     1       1.570   5.538  20.738  0.00  0.00    +0.000 C 
BRANCH  22  23
ATOM     23  C   UNL     1       2.300   4.282  21.238  0.00  0.00    +0.000 C 
BRANCH  23  24
ATOM     24  C   UNL     1       1.491   3.021  20.935  0.00  0.00    +0.000 C 
BRANCH  24  26
ATOM     25  C   UNL     1       1.273   2.506  18.504  0.00  0.00    +0.000 C 
ATOM     26  C   UNL     1       0.768   3.045  19.625  0.00  0.00    +0.000 C 
BRANCH  25  28
ATOM     27  C   UNL     1       3.682   2.251  18.024  0.00  0.00    +0.000 C 
ATOM     28  C   UNL     1       2.508   1.759  18.445  0.00  0.00    +0.000 C 
BRANCH  27  29
ATOM     29  C   UNL     1       3.902   3.680  17.617  0.00  0.00    +0.000 C 
BRANCH  29  30
ATOM     30  C   UNL     1       5.109   4.316  18.307  0.00  0.00    +0.000 C 
BRANCH  30  32
ATOM     31  C   UNL     1       7.502   4.653  17.631  0.00  0.00    +0.000 C 
ATOM     32  C   UNL     1       6.205   4.564  17.312  0.00  0.00    +0.000 C 
ENDBRANCH  30  32
ENDBRANCH  29  30
ENDBRANCH  27  29
ENDBRANCH  25  28
ENDBRANCH  24  26
ENDBRANCH  23  24
ENDBRANCH  22  23
ENDBRANCH  21  22
ENDBRANCH  20  21
ENDBRANCH  19  20
ENDBRANCH  18  19
ENDBRANCH   1  18
TORSDOF 17
ENDMDL
MODEL 4
REMARK VINA RESULT:      -5.8      5.747      8.699
REMARK  Name = 
REMARK  18 active torsions:
REMARK  status: ('A' for Active; 'I' for Inactive)
REMARK    1  A    between atoms: C_2  and  C_3
REMARK    2  A    between atoms: C_3  and  C_4
REMARK    3  A    between atoms: C_4  and  C_5
REMARK    4  A    between atoms: C_6  and  C_7
REMARK    5  A    between atoms: C_8  and  C_9
REMARK    6  A    between atoms: C_9  and  C_10
REMARK    7  A    between atoms: C_10  and  C_11
REMARK    8  A    between atoms: C_11  and  C_12
REMARK    9  A    between atoms: C_12  and  C_13
REMARK   10  A    between atoms: C_13  and  C_14
REMARK   11  A    between atoms: C_14  and  C_15
REMARK   12  A    between atoms: C_15  and  C_16
REMARK   13  A    between atoms: C_16  and  C_17
REMARK   14  A    between atoms: C_20  and  C_21
REMARK   15  A    between atoms: C_24  and  C_25
REMARK   16  A    between atoms: C_25  and  C_26
REMARK   17  A    between atoms: C_26  and  O_28
REMARK   18  A    between atoms: O_28  and  C_29
REMARK                            x       y       z     vdW  Elec       q    Type
REMARK                         _______ _______ _______ _____ _____    ______ ____
ROOT
ATOM      1  C   UNL     1       7.452   7.345  16.696  0.00  0.00    +0.000 C 
ENDROOT
BRANCH   1   2
ATOM      2  C   UNL     1       7.086   5.871  16.868  0.00  0.00    +0.000 C 
ATOM      3  C   UNL     1       7.253   5.081  15.576  0.00  0.00    +0.000 C 
ATOM      4  C   UNL     1       6.162   4.038  15.689  0.00  0.00    +0.000 C 
ATOM      5  C   UNL     1       5.048   4.845  16.329  0.00  0.00    +0.000 C 
ATOM      6  O   UNL     1       5.704   5.741  17.252  0.00  0.00    +0.000 OA
BRANCH   5   7
ATOM      7  C   UNL     1       3.894   4.107  17.027  0.00  0.00    +0.000 C 
ATOM      8  C   UNL     1       2.881   4.939  17.833  0.00  0.00    +0.000 C 
ATOM      9  C   UNL     1       3.218   5.082  19.315  0.00  0.00    +0.000 C 
ATOM     10  C   UNL     1       3.796   3.790  19.891  0.00  0.00    +0.000 C 
ATOM     11  O   UNL     1       4.902   3.440  19.042  0.00  0.00    +0.000 OA
ATOM     12  O   UNL     1       4.344   2.970  17.775  0.00  0.00    +0.000 OA
BRANCH  10  13
ATOM     13  C   UNL     1       2.807   2.630  20.036  0.00  0.00    +0.000 C 
BRANCH  13  14
ATOM     14  C   UNL     1       1.706   2.953  21.013  0.00  0.00    +0.000 C 
ATOM     15  O   UNL     1       1.834   2.963  22.230  0.00  0.00    +0.000 OA
BRANCH  14  16
ATOM     16  O   UNL     1       0.553   3.221  20.345  0.00  0.00    +0.000 OA
ATOM     17  C   UNL     1       0.441   2.573  19.077  0.00  0.00    +0.000 C 
ENDBRANCH  14  16
ENDBRANCH  13  14
ENDBRANCH  10  13
ENDBRANCH   5   7
ENDBRANCH   1   2
BRANCH   1  18
ATOM     18  C   UNL     1       7.563   8.088  18.031  0.00  0.00    +0.000 C 
BRANCH  18  19
ATOM     19  C   UNL     1       8.818   8.970  18.114  0.00  0.00    +0.000 C 
BRANCH  19  20
ATOM     20  C   UNL     1       8.586  10.370  18.701  0.00  0.00    +0.000 C 
BRANCH  20  21
ATOM     21  C   UNL     1       9.618  10.690  19.776  0.00  0.00    +0.000 C 
BRANCH  21  22
ATOM     22  C   UNL     1      10.777  11.553  19.280  0.00  0.00    +0.000 C 
BRANCH  22  23
ATOM     23  C   UNL     1      10.530  12.039  17.843  0.00  0.00    +0.000 C 
BRANCH  23  24
ATOM     24  C   UNL     1      11.683  12.916  17.356  0.00  0.00    +0.000 C 
BRANCH  24  26
ATOM     25  C   UNL     1      11.889  14.957  18.776  0.00  0.00    +0.000 C 
ATOM     26  C   UNL     1      12.332  13.740  18.424  0.00  0.00    +0.000 C 
BRANCH  25  28
ATOM     27  C   UNL     1       9.524  15.656  18.904  0.00  0.00    +0.000 C 
ATOM     28  C   UNL     1      10.691  15.570  18.250  0.00  0.00    +0.000 C 
BRANCH  27  29
ATOM     29  C   UNL     1       9.310  15.189  20.315  0.00  0.00    +0.000 C 
BRANCH  29  30
ATOM     30  C   UNL     1       8.193  14.151  20.436  0.00  0.00    +0.000 C 
BRANCH  30  32
ATOM     31  C   UNL     1       8.243  12.541  22.359  0.00  0.00    +0.000 C 
ATOM     32  C   UNL     1       7.998  13.763  21.872  0.00  0.00    +0.000 C 
ENDBRANCH  30  32
ENDBRANCH  29  30
ENDBRANCH  27  29
ENDBRANCH  25  28
ENDBRANCH  24  26
ENDBRANCH  23  24
ENDBRANCH  22  23
ENDBRANCH  21  22
ENDBRANCH  20  21
ENDBRANCH  19  20
ENDBRANCH  18  19
ENDBRANCH   1  18
TORSDOF 17
ENDMDL
MODEL 5
REMARK VINA RESULT:      -5.8      4.632     10.937
REMARK  Name = 
REMARK  18 active torsions:
REMARK  status: ('A' for Active; 'I' for Inactive)
REMARK    1  A    between atoms: C_2  and  C_3
REMARK    2  A    between atoms: C_3  and  C_4
REMARK    3  A    between atoms: C_4  and  C_5
REMARK    4  A    between atoms: C_6  and  C_7
REMARK    5  A    between atoms: C_8  and  C_9
REMARK    6  A    between atoms: C_9  and  C_10
REMARK    7  A    between atoms: C_10  and  C_11
REMARK    8  A    between atoms: C_11  and  C_12
REMARK    9  A    between atoms: C_12  and  C_13
REMARK   10  A    between atoms: C_13  and  C_14
REMARK   11  A    between atoms: C_14  and  C_15
REMARK   12  A    between atoms: C_15  and  C_16
REMARK   13  A    between atoms: C_16  and  C_17
REMARK   14  A    between atoms: C_20  and  C_21
REMARK   15  A    between atoms: C_24  and  C_25
REMARK   16  A    between atoms: C_25  and  C_26
REMARK   17  A    between atoms: C_26  and  O_28
REMARK   18  A    between atoms: O_28  and  C_29
REMARK                            x       y       z     vdW  Elec       q    Type
REMARK                         _______ _______ _______ _____ _____    ______ ____
ROOT
ATOM      1  C   UNL     1       1.493   9.246  19.700  0.00  0.00    +0.000 C 
ENDROOT
BRANCH   1   2
ATOM      2  C   UNL     1       0.098   9.835  19.908  0.00  0.00    +0.000 C 
ATOM      3  C   UNL     1      -0.535  10.294  18.601  0.00  0.00    +0.000 C 
ATOM      4  C   UNL     1      -1.373  11.475  19.041  0.00  0.00    +0.000 C 
ATOM      5  C   UNL     1      -0.471  12.102  20.088  0.00  0.00    +0.000 C 
ATOM      6  O   UNL     1       0.166  10.994  20.759  0.00  0.00    +0.000 OA
BRANCH   5   7
ATOM      7  C   UNL     1      -1.077  13.074  21.113  0.00  0.00    +0.000 C 
ATOM      8  C   UNL     1      -0.954  12.723  22.607  0.00  0.00    +0.000 C 
ATOM      9  C   UNL     1      -2.139  11.944  23.171  0.00  0.00    +0.000 C 
ATOM     10  C   UNL     1      -3.466  12.436  22.594  0.00  0.00    +0.000 C 
ATOM     11  O   UNL     1      -3.320  12.379  21.165  0.00  0.00    +0.000 OA
ATOM     12  O   UNL     1      -2.416  13.461  20.779  0.00  0.00    +0.000 OA
BRANCH  10  13
ATOM     13  C   UNL     1      -3.916  13.823  23.061  0.00  0.00    +0.000 C 
BRANCH  13  14
ATOM     14  C   UNL     1      -5.353  13.823  23.514  0.00  0.00    +0.000 C 
ATOM     15  O   UNL     1      -5.930  14.784  24.002  0.00  0.00    +0.000 OA
BRANCH  14  16
ATOM     16  O   UNL     1      -5.907  12.599  23.308  0.00  0.00    +0.000 OA
ATOM     17  C   UNL     1      -7.188  12.629  22.675  0.00  0.00    +0.000 C 
ENDBRANCH  14  16
ENDBRANCH  13  14
ENDBRANCH  10  13
ENDBRANCH   5   7
ENDBRANCH   1   2
BRANCH   1  18
ATOM     18  C   UNL     1       1.634   7.835  20.281  0.00  0.00    +0.000 C 
BRANCH  18  19
ATOM     19  C   UNL     1       2.358   6.873  19.327  0.00  0.00    +0.000 C 
BRANCH  19  20
ATOM     20  C   UNL     1       2.889   5.591  19.984  0.00  0.00    +0.000 C 
BRANCH  20  21
ATOM     21  C   UNL     1       1.919   5.077  21.042  0.00  0.00    +0.000 C 
BRANCH  21  22
ATOM     22  C   UNL     1       1.345   3.696  20.732  0.00  0.00    +0.000 C 
BRANCH  22  23
ATOM     23  C   UNL     1       0.897   3.599  19.265  0.00  0.00    +0.000 C 
BRANCH  23  24
ATOM     24  C   UNL     1       1.348   2.278  18.641  0.00  0.00    +0.000 C 
BRANCH  24  26
ATOM     25  C   UNL     1       3.773   2.461  18.086  0.00  0.00    +0.000 C 
ATOM     26  C   UNL     1       2.794   1.952  18.850  0.00  0.00    +0.000 C 
BRANCH  25  28
ATOM     27  C   UNL     1       4.469   4.368  16.679  0.00  0.00    +0.000 C 
ATOM     28  C   UNL     1       3.568   3.447  17.050  0.00  0.00    +0.000 C 
BRANCH  27  29
ATOM     29  C   UNL     1       5.859   4.463  17.240  0.00  0.00    +0.000 C 
BRANCH  29  30
ATOM     30  C   UNL     1       6.021   5.612  18.237  0.00  0.00    +0.000 C 
BRANCH  30  32
ATOM     31  C   UNL     1       7.617   7.420  17.544  0.00  0.00    +0.000 C 
ATOM     32  C   UNL     1       6.395   6.874  17.517  0.00  0.00    +0.000 C 
ENDBRANCH  30  32
ENDBRANCH  29  30
ENDBRANCH  27  29
ENDBRANCH  25  28
ENDBRANCH  24  26
ENDBRANCH  23  24
ENDBRANCH  22  23
ENDBRANCH  21  22
ENDBRANCH  20  21
ENDBRANCH  19  20
ENDBRANCH  18  19
ENDBRANCH   1  18
TORSDOF 17
ENDMDL
MODEL 6
REMARK VINA RESULT:      -5.7      3.863     10.176
REMARK  Name = 
REMARK  18 active torsions:
REMARK  status: ('A' for Active; 'I' for Inactive)
REMARK    1  A    between atoms: C_2  and  C_3
REMARK    2  A    between atoms: C_3  and  C_4
REMARK    3  A    between atoms: C_4  and  C_5
REMARK    4  A    between atoms: C_6  and  C_7
REMARK    5  A    between atoms: C_8  and  C_9
REMARK    6  A    between atoms: C_9  and  C_10
REMARK    7  A    between atoms: C_10  and  C_11
REMARK    8  A    between atoms: C_11  and  C_12
REMARK    9  A    between atoms: C_12  and  C_13
REMARK   10  A    between atoms: C_13  and  C_14
REMARK   11  A    between atoms: C_14  and  C_15
REMARK   12  A    between atoms: C_15  and  C_16
REMARK   13  A    between atoms: C_16  and  C_17
REMARK   14  A    between atoms: C_20  and  C_21
REMARK   15  A    between atoms: C_24  and  C_25
REMARK   16  A    between atoms: C_25  and  C_26
REMARK   17  A    between atoms: C_26  and  O_28
REMARK   18  A    between atoms: O_28  and  C_29
REMARK                            x       y       z     vdW  Elec       q    Type
REMARK                         _______ _______ _______ _____ _____    ______ ____
ROOT
ATOM      1  C   UNL     1       2.740   7.911  18.007  0.00  0.00    +0.000 C 
ENDROOT
BRANCH   1   2
ATOM      2  C   UNL     1       1.625   8.953  18.087  0.00  0.00    +0.000 C 
ATOM      3  C   UNL     1       2.118  10.352  17.736  0.00  0.00    +0.000 C 
ATOM      4  C   UNL     1       1.249  11.232  18.608  0.00  0.00    +0.000 C 
ATOM      5  C   UNL     1       1.162  10.399  19.874  0.00  0.00    +0.000 C 
ATOM      6  O   UNL     1       1.104   9.027  19.427  0.00  0.00    +0.000 OA
BRANCH   5   7
ATOM      7  C   UNL     1       0.036  10.682  20.881  0.00  0.00    +0.000 C 
ATOM      8  C   UNL     1      -1.232  11.392  20.373  0.00  0.00    +0.000 C 
ATOM      9  C   UNL     1      -1.203  12.911  20.513  0.00  0.00    +0.000 C 
ATOM     10  C   UNL     1      -0.539  13.347  21.818  0.00  0.00    +0.000 C 
ATOM     11  O   UNL     1       0.748  12.706  21.838  0.00  0.00    +0.000 OA
ATOM     12  O   UNL     1       0.519  11.284  22.089  0.00  0.00    +0.000 OA
BRANCH  10  13
ATOM     13  C   UNL     1      -1.334  13.058  23.094  0.00  0.00    +0.000 C 
BRANCH  13  14
ATOM     14  C   UNL     1      -1.536  14.300  23.922  0.00  0.00    +0.000 C 
ATOM     15  O   UNL     1      -0.644  15.066  24.258  0.00  0.00    +0.000 OA
BRANCH  14  16
ATOM     16  O   UNL     1      -2.849  14.437  24.246  0.00  0.00    +0.000 OA
ATOM     17  C   UNL     1      -3.622  13.245  24.094  0.00  0.00    +0.000 C 
ENDBRANCH  14  16
ENDBRANCH  13  14
ENDBRANCH  10  13
ENDBRANCH   5   7
ENDBRANCH   1   2
BRANCH   1  18
ATOM     18  C   UNL     1       2.397   6.618  18.754  0.00  0.00    +0.000 C 
BRANCH  18  19
ATOM     19  C   UNL     1       1.989   5.479  17.806  0.00  0.00    +0.000 C 
BRANCH  19  20
ATOM     20  C   UNL     1       1.348   4.265  18.495  0.00  0.00    +0.000 C 
BRANCH  20  21
ATOM     21  C   UNL     1       1.258   4.476  20.002  0.00  0.00    +0.000 C 
BRANCH  21  22
ATOM     22  C   UNL     1       2.490   3.997  20.766  0.00  0.00    +0.000 C 
BRANCH  22  23
ATOM     23  C   UNL     1       2.752   2.503  20.515  0.00  0.00    +0.000 C 
BRANCH  23  24
ATOM     24  C   UNL     1       3.905   2.307  19.531  0.00  0.00    +0.000 C 
BRANCH  24  26
ATOM     25  C   UNL     1       5.300   4.029  18.385  0.00  0.00    +0.000 C 
ATOM     26  C   UNL     1       4.906   3.419  19.515  0.00  0.00    +0.000 C 
BRANCH  25  28
ATOM     27  C   UNL     1       5.180   4.300  15.933  0.00  0.00    +0.000 C 
ATOM     28  C   UNL     1       4.742   3.762  17.080  0.00  0.00    +0.000 C 
BRANCH  27  29
ATOM     29  C   UNL     1       6.371   5.210  15.829  0.00  0.00    +0.000 C 
BRANCH  29  30
ATOM     30  C   UNL     1       6.196   6.510  16.615  0.00  0.00    +0.000 C 
BRANCH  30  32
ATOM     31  C   UNL     1       7.694   8.124  17.818  0.00  0.00    +0.000 C 
ATOM     32  C   UNL     1       7.522   6.992  17.125  0.00  0.00    +0.000 C 
ENDBRANCH  30  32
ENDBRANCH  29  30
ENDBRANCH  27  29
ENDBRANCH  25  28
ENDBRANCH  24  26
ENDBRANCH  23  24
ENDBRANCH  22  23
ENDBRANCH  21  22
ENDBRANCH  20  21
ENDBRANCH  19  20
ENDBRANCH  18  19
ENDBRANCH   1  18
TORSDOF 17
ENDMDL
MODEL 7
REMARK VINA RESULT:      -5.7      4.313     10.579
REMARK  Name = 
REMARK  18 active torsions:
REMARK  status: ('A' for Active; 'I' for Inactive)
REMARK    1  A    between atoms: C_2  and  C_3
REMARK    2  A    between atoms: C_3  and  C_4
REMARK    3  A    between atoms: C_4  and  C_5
REMARK    4  A    between atoms: C_6  and  C_7
REMARK    5  A    between atoms: C_8  and  C_9
REMARK    6  A    between atoms: C_9  and  C_10
REMARK    7  A    between atoms: C_10  and  C_11
REMARK    8  A    between atoms: C_11  and  C_12
REMARK    9  A    between atoms: C_12  and  C_13
REMARK   10  A    between atoms: C_13  and  C_14
REMARK   11  A    between atoms: C_14  and  C_15
REMARK   12  A    between atoms: C_15  and  C_16
REMARK   13  A    between atoms: C_16  and  C_17
REMARK   14  A    between atoms: C_20  and  C_21
REMARK   15  A    between atoms: C_24  and  C_25
REMARK   16  A    between atoms: C_25  and  C_26
REMARK   17  A    between atoms: C_26  and  O_28
REMARK   18  A    between atoms: O_28  and  C_29
REMARK                            x       y       z     vdW  Elec       q    Type
REMARK                         _______ _______ _______ _____ _____    ______ ____
ROOT
ATOM      1  C   UNL     1       1.315   9.324  18.011  0.00  0.00    +0.000 C 
ENDROOT
BRANCH   1   2
ATOM      2  C   UNL     1       1.166  10.142  19.294  0.00  0.00    +0.000 C 
ATOM      3  C   UNL     1       0.799   9.275  20.491  0.00  0.00    +0.000 C 
ATOM      4  C   UNL     1      -0.055  10.209  21.321  0.00  0.00    +0.000 C 
ATOM      5  C   UNL     1      -0.824  10.944  20.239  0.00  0.00    +0.000 C 
ATOM      6  O   UNL     1       0.109  11.109  19.150  0.00  0.00    +0.000 OA
BRANCH   5   7
ATOM      7  C   UNL     1      -1.495  12.285  20.577  0.00  0.00    +0.000 C 
ATOM      8  C   UNL     1      -0.602  13.531  20.711  0.00  0.00    +0.000 C 
ATOM      9  C   UNL     1      -0.124  13.815  22.133  0.00  0.00    +0.000 C 
ATOM     10  C   UNL     1      -1.213  13.524  23.165  0.00  0.00    +0.000 C 
ATOM     11  O   UNL     1      -1.638  12.172  22.920  0.00  0.00    +0.000 OA
ATOM     12  O   UNL     1      -2.409  12.180  21.677  0.00  0.00    +0.000 OA
BRANCH  10  13
ATOM     13  C   UNL     1      -2.397  14.496  23.169  0.00  0.00    +0.000 C 
BRANCH  13  14
ATOM     14  C   UNL     1      -3.257  14.325  24.395  0.00  0.00    +0.000 C 
ATOM     15  O   UNL     1      -2.952  14.700  25.518  0.00  0.00    +0.000 OA
BRANCH  14  16
ATOM     16  O   UNL     1      -4.412  13.687  24.068  0.00  0.00    +0.000 OA
ATOM     17  C   UNL     1      -4.567  12.400  24.670  0.00  0.00    +0.000 C 
ENDBRANCH  14  16
ENDBRANCH  13  14
ENDBRANCH  10  13
ENDBRANCH   5   7
ENDBRANCH   1   2
BRANCH   1  18
ATOM     18  C   UNL     1       2.538   8.402  18.035  0.00  0.00    +0.000 C 
BRANCH  18  19
ATOM     19  C   UNL     1       2.156   6.914  18.049  0.00  0.00    +0.000 C 
BRANCH  19  20
ATOM     20  C   UNL     1       2.732   6.110  19.224  0.00  0.00    +0.000 C 
BRANCH  20  21
ATOM     21  C   UNL     1       1.703   5.960  20.339  0.00  0.00    +0.000 C 
BRANCH  21  22
ATOM     22  C   UNL     1       2.150   5.034  21.468  0.00  0.00    +0.000 C 
BRANCH  22  23
ATOM     23  C   UNL     1       2.544   3.650  20.928  0.00  0.00    +0.000 C 
BRANCH  23  24
ATOM     24  C   UNL     1       1.316   2.752  20.773  0.00  0.00    +0.000 C 
BRANCH  24  26
ATOM     25  C   UNL     1       1.501   2.378  18.313  0.00  0.00    +0.000 C 
ATOM     26  C   UNL     1       0.758   2.695  19.386  0.00  0.00    +0.000 C 
BRANCH  25  28
ATOM     27  C   UNL     1       3.887   2.527  17.693  0.00  0.00    +0.000 C 
ATOM     28  C   UNL     1       2.882   1.960  18.376  0.00  0.00    +0.000 C 
BRANCH  27  29
ATOM     29  C   UNL     1       3.733   3.734  16.812  0.00  0.00    +0.000 C 
BRANCH  29  30
ATOM     30  C   UNL     1       5.031   4.122  16.102  0.00  0.00    +0.000 C 
BRANCH  30  32
ATOM     31  C   UNL     1       5.200   6.619  15.922  0.00  0.00    +0.000 C 
ATOM     32  C   UNL     1       5.487   5.476  16.558  0.00  0.00    +0.000 C 
ENDBRANCH  30  32
ENDBRANCH  29  30
ENDBRANCH  27  29
ENDBRANCH  25  28
ENDBRANCH  24  26
ENDBRANCH  23  24
ENDBRANCH  22  23
ENDBRANCH  21  22
ENDBRANCH  20  21
ENDBRANCH  19  20
ENDBRANCH  18  19
ENDBRANCH   1  18
TORSDOF 17
ENDMDL
MODEL 8
REMARK VINA RESULT:      -5.7      3.813     10.168
REMARK  Name = 
REMARK  18 active torsions:
REMARK  status: ('A' for Active; 'I' for Inactive)
REMARK    1  A    between atoms: C_2  and  C_3
REMARK    2  A    between atoms: C_3  and  C_4
REMARK    3  A    between atoms: C_4  and  C_5
REMARK    4  A    between atoms: C_6  and  C_7
REMARK    5  A    between atoms: C_8  and  C_9
REMARK    6  A    between atoms: C_9  and  C_10
REMARK    7  A    between atoms: C_10  and  C_11
REMARK    8  A    between atoms: C_11  and  C_12
REMARK    9  A    between atoms: C_12  and  C_13
REMARK   10  A    between atoms: C_13  and  C_14
REMARK   11  A    between atoms: C_14  and  C_15
REMARK   12  A    between atoms: C_15  and  C_16
REMARK   13  A    between atoms: C_16  and  C_17
REMARK   14  A    between atoms: C_20  and  C_21
REMARK   15  A    between atoms: C_24  and  C_25
REMARK   16  A    between atoms: C_25  and  C_26
REMARK   17  A    between atoms: C_26  and  O_28
REMARK   18  A    between atoms: O_28  and  C_29
REMARK                            x       y       z     vdW  Elec       q    Type
REMARK                         _______ _______ _______ _____ _____    ______ ____
ROOT
ATOM      1  C   UNL     1       2.841   8.518  18.111  0.00  0.00    +0.000 C 
ENDROOT
BRANCH   1   2
ATOM      2  C   UNL     1       1.668   9.495  18.042  0.00  0.00    +0.000 C 
ATOM      3  C   UNL     1       2.128  10.948  18.049  0.00  0.00    +0.000 C 
ATOM      4  C   UNL     1       0.998  11.644  18.776  0.00  0.00    +0.000 C 
ATOM      5  C   UNL     1       0.649  10.613  19.834  0.00  0.00    +0.000 C 
ATOM      6  O   UNL     1       0.813   9.331  19.189  0.00  0.00    +0.000 OA
BRANCH   5   7
ATOM      7  C   UNL     1      -0.719  10.690  20.532  0.00  0.00    +0.000 C 
ATOM      8  C   UNL     1      -1.552  11.972  20.357  0.00  0.00    +0.000 C 
ATOM      9  C   UNL     1      -1.332  13.020  21.445  0.00  0.00    +0.000 C 
ATOM     10  C   UNL     1      -1.169  12.380  22.823  0.00  0.00    +0.000 C 
ATOM     11  O   UNL     1      -0.116  11.411  22.685  0.00  0.00    +0.000 OA
ATOM     12  O   UNL     1      -0.654  10.295  21.909  0.00  0.00    +0.000 OA
BRANCH  10  13
ATOM     13  C   UNL     1      -2.436  11.758  23.418  0.00  0.00    +0.000 C 
BRANCH  13  14
ATOM     14  C   UNL     1      -3.539  12.773  23.572  0.00  0.00    +0.000 C 
ATOM     15  O   UNL     1      -3.452  13.803  24.225  0.00  0.00    +0.000 OA
BRANCH  14  16
ATOM     16  O   UNL     1      -4.642  12.370  22.888  0.00  0.00    +0.000 OA
ATOM     17  C   UNL     1      -5.012  13.228  21.806  0.00  0.00    +0.000 C 
ENDBRANCH  14  16
ENDBRANCH  13  14
ENDBRANCH  10  13
ENDBRANCH   5   7
ENDBRANCH   1   2
BRANCH   1  18
ATOM     18  C   UNL     1       2.585   7.228  17.326  0.00  0.00    +0.000 C 
BRANCH  18  19
ATOM     19  C   UNL     1       2.078   6.084  18.217  0.00  0.00    +0.000 C 
BRANCH  19  20
ATOM     20  C   UNL     1       2.778   5.968  19.579  0.00  0.00    +0.000 C 
BRANCH  20  21
ATOM     21  C   UNL     1       1.804   5.509  20.657  0.00  0.00    +0.000 C 
BRANCH  21  22
ATOM     22  C   UNL     1       2.309   4.326  21.481  0.00  0.00    +0.000 C 
BRANCH  22  23
ATOM     23  C   UNL     1       2.576   3.103  20.590  0.00  0.00    +0.000 C 
BRANCH  23  24
ATOM     24  C   UNL     1       1.267   2.500  20.081  0.00  0.00    +0.000 C 
BRANCH  24  26
ATOM     25  C   UNL     1       2.101   2.526  17.730  0.00  0.00    +0.000 C 
ATOM     26  C   UNL     1       1.079   2.580  18.599  0.00  0.00    +0.000 C 
BRANCH  25  28
ATOM     27  C   UNL     1       4.533   2.937  17.605  0.00  0.00    +0.000 C 
ATOM     28  C   UNL     1       3.475   2.284  18.106  0.00  0.00    +0.000 C 
BRANCH  27  29
ATOM     29  C   UNL     1       4.439   4.073  16.626  0.00  0.00    +0.000 C 
BRANCH  29  30
ATOM     30  C   UNL     1       5.626   4.130  15.664  0.00  0.00    +0.000 C 
BRANCH  30  32
ATOM     31  C   UNL     1       6.098   6.323  16.789  0.00  0.00    +0.000 C 
ATOM     32  C   UNL     1       6.430   5.373  15.905  0.00  0.00    +0.000 C 
ENDBRANCH  30  32
ENDBRANCH  29  30
ENDBRANCH  27  29
ENDBRANCH  25  28
ENDBRANCH  24  26
ENDBRANCH  23  24
ENDBRANCH  22  23
ENDBRANCH  21  22
ENDBRANCH  20  21
ENDBRANCH  19  20
ENDBRANCH  18  19
ENDBRANCH   1  18
TORSDOF 17
ENDMDL
MODEL 9
REMARK VINA RESULT:      -5.7      3.836     10.454
REMARK  Name = 
REMARK  18 active torsions:
REMARK  status: ('A' for Active; 'I' for Inactive)
REMARK    1  A    between atoms: C_2  and  C_3
REMARK    2  A    between atoms: C_3  and  C_4
REMARK    3  A    between atoms: C_4  and  C_5
REMARK    4  A    between atoms: C_6  and  C_7
REMARK    5  A    between atoms: C_8  and  C_9
REMARK    6  A    between atoms: C_9  and  C_10
REMARK    7  A    between atoms: C_10  and  C_11
REMARK    8  A    between atoms: C_11  and  C_12
REMARK    9  A    between atoms: C_12  and  C_13
REMARK   10  A    between atoms: C_13  and  C_14
REMARK   11  A    between atoms: C_14  and  C_15
REMARK   12  A    between atoms: C_15  and  C_16
REMARK   13  A    between atoms: C_16  and  C_17
REMARK   14  A    between atoms: C_20  and  C_21
REMARK   15  A    between atoms: C_24  and  C_25
REMARK   16  A    between atoms: C_25  and  C_26
REMARK   17  A    between atoms: C_26  and  O_28
REMARK   18  A    between atoms: O_28  and  C_29
REMARK                            x       y       z     vdW  Elec       q    Type
REMARK                         _______ _______ _______ _____ _____    ______ ____
ROOT
ATOM      1  C   UNL     1       2.360   7.390  18.013  0.00  0.00    +0.000 C 
ENDROOT
BRANCH   1   2
ATOM      2  C   UNL     1       1.414   8.588  18.090  0.00  0.00    +0.000 C 
ATOM      3  C   UNL     1       2.124   9.904  17.798  0.00  0.00    +0.000 C 
ATOM      4  C   UNL     1       1.369  10.883  18.670  0.00  0.00    +0.000 C 
ATOM      5  C   UNL     1       1.113  10.041  19.906  0.00  0.00    +0.000 C 
ATOM      6  O   UNL     1       0.864   8.706  19.416  0.00  0.00    +0.000 OA
BRANCH   5   7
ATOM      7  C   UNL     1       0.009  10.467  20.887  0.00  0.00    +0.000 C 
ATOM      8  C   UNL     1      -1.208  11.223  20.327  0.00  0.00    +0.000 C 
ATOM      9  C   UNL     1      -1.078  12.744  20.364  0.00  0.00    +0.000 C 
ATOM     10  C   UNL     1      -0.385  13.221  21.640  0.00  0.00    +0.000 C 
ATOM     11  O   UNL     1       0.856  12.498  21.709  0.00  0.00    +0.000 OA
ATOM     12  O   UNL     1       0.532  11.115  22.054  0.00  0.00    +0.000 OA
BRANCH  10  13
ATOM     13  C   UNL     1      -1.198  13.073  22.929  0.00  0.00    +0.000 C 
BRANCH  13  14
ATOM     14  C   UNL     1      -1.446  14.403  23.591  0.00  0.00    +0.000 C 
ATOM     15  O   UNL     1      -0.744  14.887  24.468  0.00  0.00    +0.000 OA
BRANCH  14  16
ATOM     16  O   UNL     1      -2.565  14.979  23.078  0.00  0.00    +0.000 OA
ATOM     17  C   UNL     1      -2.921  16.223  23.685  0.00  0.00    +0.000 C 
ENDBRANCH  14  16
ENDBRANCH  13  14
ENDBRANCH  10  13
ENDBRANCH   5   7
ENDBRANCH   1   2
BRANCH   1  18
ATOM     18  C   UNL     1       3.836   7.800  18.009  0.00  0.00    +0.000 C 
BRANCH  18  19
ATOM     19  C   UNL     1       4.638   7.108  16.897  0.00  0.00    +0.000 C 
BRANCH  19  20
ATOM     20  C   UNL     1       6.137   6.939  17.191  0.00  0.00    +0.000 C 
BRANCH  20  21
ATOM     21  C   UNL     1       6.766   5.915  16.254  0.00  0.00    +0.000 C 
BRANCH  21  22
ATOM     22  C   UNL     1       5.757   5.197  15.360  0.00  0.00    +0.000 C 
BRANCH  22  23
ATOM     23  C   UNL     1       5.485   3.771  15.867  0.00  0.00    +0.000 C 
BRANCH  23  24
ATOM     24  C   UNL     1       4.255   3.737  16.774  0.00  0.00    +0.000 C 
BRANCH  24  26
ATOM     25  C   UNL     1       4.070   2.781  19.071  0.00  0.00    +0.000 C 
ATOM     26  C   UNL     1       4.563   3.711  18.238  0.00  0.00    +0.000 C 
BRANCH  25  28
ATOM     27  C   UNL     1       1.943   1.651  18.520  0.00  0.00    +0.000 C 
ATOM     28  C   UNL     1       3.278   1.649  18.647  0.00  0.00    +0.000 C 
BRANCH  27  29
ATOM     29  C   UNL     1       1.077   2.860  18.731  0.00  0.00    +0.000 C 
BRANCH  29  30
ATOM     30  C   UNL     1       0.887   3.205  20.209  0.00  0.00    +0.000 C 
BRANCH  30  32
ATOM     31  C   UNL     1       2.216   5.164  21.039  0.00  0.00    +0.000 C 
ATOM     32  C   UNL     1       1.129   4.668  20.436  0.00  0.00    +0.000 C 
ENDBRANCH  30  32
ENDBRANCH  29  30
ENDBRANCH  27  29
ENDBRANCH  25  28
ENDBRANCH  24  26
ENDBRANCH  23  24
ENDBRANCH  22  23
ENDBRANCH  21  22
ENDBRANCH  20  21
ENDBRANCH  19  20
ENDBRANCH  18  19
ENDBRANCH   1  18
TORSDOF 17
ENDMDL
