MODEL 1
REMARK VINA RESULT:      -8.3      0.000      0.000
REMARK  Name = 
REMARK  5 active torsions:
REMARK  status: ('A' for Active; 'I' for Inactive)
REMARK    1  A    between atoms: N_12  and  C_13
REMARK    2  A    between atoms: C_13  and  C_14
REMARK    3  A    between atoms: C_14  and  C_15
REMARK    4  A    between atoms: C_15  and  C_16
REMARK    5  A    between atoms: C_16  and  C_17
REMARK                            x       y       z     vdW  Elec       q    Type
REMARK                         _______ _______ _______ _____ _____    ______ ____
ROOT
ATOM      1 CL   UNL     1       1.781   2.629  21.888  0.00  0.00    +0.000 Cl
ATOM      2  C   UNL     1       2.383   2.776  20.280  0.00  0.00    +0.000 A 
ATOM      3  C   UNL     1       1.685   2.195  19.225  0.00  0.00    +0.000 A 
ATOM      4  C   UNL     1       2.150   2.300  17.909  0.00  0.00    +0.000 A 
ATOM      5  C   UNL     1       3.334   3.018  17.697  0.00  0.00    +0.000 A 
ATOM      6  N   UNL     1       4.011   3.295  16.525  0.00  0.00    +0.000 N 
ATOM      7  C   UNL     1       5.085   4.088  16.802  0.00  0.00    +0.000 A 
ATOM      8  C   UNL     1       5.151   4.293  18.161  0.00  0.00    +0.000 A 
ATOM      9  C   UNL     1       4.045   3.616  18.742  0.00  0.00    +0.000 A 
ATOM     10  C   UNL     1       3.564   3.488  20.059  0.00  0.00    +0.000 A 
ATOM     11  C   UNL     1       6.160   5.167  18.822  0.00  0.00    +0.000 C 
ATOM     12  N   UNL     1       7.193   5.666  17.874  0.00  0.00    +0.000 NA
ATOM     13  C   UNL     1       6.664   5.940  16.513  0.00  0.00    +0.000 C 
ATOM     14  C   UNL     1       6.035   4.690  15.838  0.00  0.00    +0.000 C 
ATOM     15  H   UNL     1       3.722   2.987  15.607  0.00  0.00    +0.000 HD
ENDROOT
BRANCH  12  16
ATOM     16  C   UNL     1       7.820   6.879  18.429  0.00  0.00    +0.000 C 
BRANCH  16  17
ATOM     17  C   UNL     1       7.983   8.006  17.394  0.00  0.00    +0.000 C 
BRANCH  17  18
ATOM     18  C   UNL     1       8.050   9.410  18.004  0.00  0.00    +0.000 C 
BRANCH  18  19
ATOM     19  C   UNL     1       9.170   9.533  19.037  0.00  0.00    +0.000 C 
BRANCH  19  20
ATOM     20  C   UNL     1       9.746  10.920  19.094  0.00  0.00    +0.000 A 
ATOM     21  C   UNL     1       9.817  11.603  20.310  0.00  0.00    +0.000 A 
ATOM     22  C   UNL     1      10.367  12.876  20.322  0.00  0.00    +0.000 A 
ATOM     23  N   UNL     1      10.834  13.503  19.220  0.00  0.00    +0.000 NA
ATOM     24  C   UNL     1      10.741  12.827  18.054  0.00  0.00    +0.000 A 
ATOM     25  C   UNL     1      10.210  11.552  17.940  0.00  0.00    +0.000 A 
ENDBRANCH  19  20
ENDBRANCH  18  19
ENDBRANCH  17  18
ENDBRANCH  16  17
ENDBRANCH  12  16
TORSDOF 5
ENDMDL
MODEL 2
REMARK VINA RESULT:      -8.1      4.600      8.263
REMARK  Name = 
REMARK  5 active torsions:
REMARK  status: ('A' for Active; 'I' for Inactive)
REMARK    1  A    between atoms: N_12  and  C_13
REMARK    2  A    between atoms: C_13  and  C_14
REMARK    3  A    between atoms: C_14  and  C_15
REMARK    4  A    between atoms: C_15  and  C_16
REMARK    5  A    between atoms: C_16  and  C_17
REMARK                            x       y       z     vdW  Elec       q    Type
REMARK                         _______ _______ _______ _____ _____    ______ ____
ROOT
ATOM      1 CL   UNL     1       4.475   2.659  11.167  0.00  0.00    +0.000 Cl
ATOM      2  C   UNL     1       5.469   3.505  12.292  0.00  0.00    +0.000 A 
ATOM      3  C   UNL     1       6.769   3.855  11.936  0.00  0.00    +0.000 A 
ATOM      4  C   UNL     1       7.598   4.544  12.828  0.00  0.00    +0.000 A 
ATOM      5  C   UNL     1       7.067   4.874  14.082  0.00  0.00    +0.000 A 
ATOM      6  N   UNL     1       7.638   5.553  15.141  0.00  0.00    +0.000 N 
ATOM      7  C   UNL     1       6.714   5.698  16.134  0.00  0.00    +0.000 A 
ATOM      8  C   UNL     1       5.550   5.070  15.756  0.00  0.00    +0.000 A 
ATOM      9  C   UNL     1       5.762   4.540  14.454  0.00  0.00    +0.000 A 
ATOM     10  C   UNL     1       4.949   3.837  13.544  0.00  0.00    +0.000 A 
ATOM     11  C   UNL     1       4.300   5.078  16.565  0.00  0.00    +0.000 C 
ATOM     12  N   UNL     1       4.490   5.699  17.904  0.00  0.00    +0.000 NA
ATOM     13  C   UNL     1       5.450   6.833  17.899  0.00  0.00    +0.000 C 
ATOM     14  C   UNL     1       6.869   6.431  17.411  0.00  0.00    +0.000 C 
ATOM     15  H   UNL     1       8.581   5.918  15.150  0.00  0.00    +0.000 HD
ENDROOT
BRANCH  12  16
ATOM     16  C   UNL     1       3.185   6.141  18.428  0.00  0.00    +0.000 C 
BRANCH  16  17
ATOM     17  C   UNL     1       3.086   6.060  19.961  0.00  0.00    +0.000 C 
BRANCH  17  18
ATOM     18  C   UNL     1       1.720   5.594  20.475  0.00  0.00    +0.000 C 
BRANCH  18  19
ATOM     19  C   UNL     1       1.750   4.140  20.945  0.00  0.00    +0.000 C 
BRANCH  19  20
ATOM     20  C   UNL     1       2.360   3.222  19.924  0.00  0.00    +0.000 A 
ATOM     21  C   UNL     1       1.694   2.960  18.725  0.00  0.00    +0.000 A 
ATOM     22  C   UNL     1       2.297   2.118  17.803  0.00  0.00    +0.000 A 
ATOM     23  N   UNL     1       3.494   1.523  18.000  0.00  0.00    +0.000 NA
ATOM     24  C   UNL     1       4.113   1.782  19.173  0.00  0.00    +0.000 A 
ATOM     25  C   UNL     1       3.593   2.610  20.155  0.00  0.00    +0.000 A 
ENDBRANCH  19  20
ENDBRANCH  18  19
ENDBRANCH  17  18
ENDBRANCH  16  17
ENDBRANCH  12  16
TORSDOF 5
ENDMDL
MODEL 3
REMARK VINA RESULT:      -8.0      4.860      6.920
REMARK  Name = 
REMARK  5 active torsions:
REMARK  status: ('A' for Active; 'I' for Inactive)
REMARK    1  A    between atoms: N_12  and  C_13
REMARK    2  A    between atoms: C_13  and  C_14
REMARK    3  A    between atoms: C_14  and  C_15
REMARK    4  A    between atoms: C_15  and  C_16
REMARK    5  A    between atoms: C_16  and  C_17
REMARK                            x       y       z     vdW  Elec       q    Type
REMARK                         _______ _______ _______ _____ _____    ______ ____
ROOT
ATOM      1 CL   UNL     1       4.706   2.845  11.361  0.00  0.00    +0.000 Cl
ATOM      2  C   UNL     1       5.639   3.623  12.582  0.00  0.00    +0.000 A 
ATOM      3  C   UNL     1       6.739   4.397  12.222  0.00  0.00    +0.000 A 
ATOM      4  C   UNL     1       7.513   5.043  13.192  0.00  0.00    +0.000 A 
ATOM      5  C   UNL     1       7.134   4.887  14.532  0.00  0.00    +0.000 A 
ATOM      6  N   UNL     1       7.691   5.410  15.683  0.00  0.00    +0.000 N 
ATOM      7  C   UNL     1       6.937   5.039  16.757  0.00  0.00    +0.000 A 
ATOM      8  C   UNL     1       5.912   4.229  16.326  0.00  0.00    +0.000 A 
ATOM      9  C   UNL     1       6.028   4.122  14.913  0.00  0.00    +0.000 A 
ATOM     10  C   UNL     1       5.269   3.473  13.920  0.00  0.00    +0.000 A 
ATOM     11  C   UNL     1       4.849   3.687  17.217  0.00  0.00    +0.000 C 
ATOM     12  N   UNL     1       5.103   3.980  18.654  0.00  0.00    +0.000 NA
ATOM     13  C   UNL     1       5.747   5.299  18.884  0.00  0.00    +0.000 C 
ATOM     14  C   UNL     1       7.119   5.442  18.171  0.00  0.00    +0.000 C 
ATOM     15  H   UNL     1       8.506   6.007  15.709  0.00  0.00    +0.000 HD
ENDROOT
BRANCH  12  16
ATOM     16  C   UNL     1       3.835   3.897  19.401  0.00  0.00    +0.000 C 
BRANCH  16  17
ATOM     17  C   UNL     1       3.323   5.265  19.882  0.00  0.00    +0.000 C 
BRANCH  17  18
ATOM     18  C   UNL     1       2.166   5.828  19.049  0.00  0.00    +0.000 C 
BRANCH  18  19
ATOM     19  C   UNL     1       2.594   7.033  18.213  0.00  0.00    +0.000 C 
BRANCH  19  20
ATOM     20  C   UNL     1       1.996   8.318  18.715  0.00  0.00    +0.000 A 
ATOM     21  C   UNL     1       1.461   8.390  20.003  0.00  0.00    +0.000 A 
ATOM     22  C   UNL     1       0.931   9.597  20.432  0.00  0.00    +0.000 A 
ATOM     23  N   UNL     1       0.893  10.714  19.672  0.00  0.00    +0.000 NA
ATOM     24  C   UNL     1       1.404  10.614  18.425  0.00  0.00    +0.000 A 
ATOM     25  C   UNL     1       1.956   9.455  17.906  0.00  0.00    +0.000 A 
ENDBRANCH  19  20
ENDBRANCH  18  19
ENDBRANCH  17  18
ENDBRANCH  16  17
ENDBRANCH  12  16
TORSDOF 5
ENDMDL
MODEL 4
REMARK VINA RESULT:      -7.8      1.046      1.245
REMARK  Name = 
REMARK  5 active torsions:
REMARK  status: ('A' for Active; 'I' for Inactive)
REMARK    1  A    between atoms: N_12  and  C_13
REMARK    2  A    between atoms: C_13  and  C_14
REMARK    3  A    between atoms: C_14  and  C_15
REMARK    4  A    between atoms: C_15  and  C_16
REMARK    5  A    between atoms: C_16  and  C_17
REMARK                            x       y       z     vdW  Elec       q    Type
REMARK                         _______ _______ _______ _____ _____    ______ ____
ROOT
ATOM      1 CL   UNL     1       1.069   3.768  20.923  0.00  0.00    +0.000 Cl
ATOM      2  C   UNL     1       2.031   3.753  19.494  0.00  0.00    +0.000 A 
ATOM      3  C   UNL     1       1.510   3.224  18.316  0.00  0.00    +0.000 A 
ATOM      4  C   UNL     1       2.268   3.201  17.140  0.00  0.00    +0.000 A 
ATOM      5  C   UNL     1       3.561   3.736  17.193  0.00  0.00    +0.000 A 
ATOM      6  N   UNL     1       4.516   3.861  16.202  0.00  0.00    +0.000 N 
ATOM      7  C   UNL     1       5.605   4.510  16.705  0.00  0.00    +0.000 A 
ATOM      8  C   UNL     1       5.394   4.770  18.039  0.00  0.00    +0.000 A 
ATOM      9  C   UNL     1       4.099   4.280  18.362  0.00  0.00    +0.000 A 
ATOM     10  C   UNL     1       3.322   4.284  19.537  0.00  0.00    +0.000 A 
ATOM     11  C   UNL     1       6.345   5.527  18.900  0.00  0.00    +0.000 C 
ATOM     12  N   UNL     1       7.626   5.832  18.205  0.00  0.00    +0.000 NA
ATOM     13  C   UNL     1       7.460   6.110  16.755  0.00  0.00    +0.000 C 
ATOM     14  C   UNL     1       6.823   4.928  15.974  0.00  0.00    +0.000 C 
ATOM     15  H   UNL     1       4.399   3.552  15.247  0.00  0.00    +0.000 HD
ENDROOT
BRANCH  12  16
ATOM     16  C   UNL     1       8.282   6.972  18.870  0.00  0.00    +0.000 C 
BRANCH  16  17
ATOM     17  C   UNL     1       8.166   8.285  18.076  0.00  0.00    +0.000 C 
BRANCH  17  18
ATOM     18  C   UNL     1       8.883   9.473  18.728  0.00  0.00    +0.000 C 
BRANCH  18  19
ATOM     19  C   UNL     1       8.782  10.739  17.877  0.00  0.00    +0.000 C 
BRANCH  19  20
ATOM     20  C   UNL     1       9.588  11.874  18.444  0.00  0.00    +0.000 A 
ATOM     21  C   UNL     1       9.201  13.196  18.215  0.00  0.00    +0.000 A 
ATOM     22  C   UNL     1       9.963  14.214  18.766  0.00  0.00    +0.000 A 
ATOM     23  N   UNL     1      11.071  14.004  19.510  0.00  0.00    +0.000 NA
ATOM     24  C   UNL     1      11.433  12.717  19.706  0.00  0.00    +0.000 A 
ATOM     25  C   UNL     1      10.736  11.633  19.199  0.00  0.00    +0.000 A 
ENDBRANCH  19  20
ENDBRANCH  18  19
ENDBRANCH  17  18
ENDBRANCH  16  17
ENDBRANCH  12  16
TORSDOF 5
ENDMDL
MODEL 5
REMARK VINA RESULT:      -7.7      4.991      6.973
REMARK  Name = 
REMARK  5 active torsions:
REMARK  status: ('A' for Active; 'I' for Inactive)
REMARK    1  A    between atoms: N_12  and  C_13
REMARK    2  A    between atoms: C_13  and  C_14
REMARK    3  A    between atoms: C_14  and  C_15
REMARK    4  A    between atoms: C_15  and  C_16
REMARK    5  A    between atoms: C_16  and  C_17
REMARK                            x       y       z     vdW  Elec       q    Type
REMARK                         _______ _______ _______ _____ _____    ______ ____
ROOT
ATOM      1 CL   UNL     1       4.309   2.711  11.297  0.00  0.00    +0.000 Cl
ATOM      2  C   UNL     1       5.368   3.493  12.408  0.00  0.00    +0.000 A 
ATOM      3  C   UNL     1       6.608   3.953  11.972  0.00  0.00    +0.000 A 
ATOM      4  C   UNL     1       7.488   4.593  12.852  0.00  0.00    +0.000 A 
ATOM      5  C   UNL     1       7.070   4.760  14.179  0.00  0.00    +0.000 A 
ATOM      6  N   UNL     1       7.709   5.358  15.247  0.00  0.00    +0.000 N 
ATOM      7  C   UNL     1       6.883   5.345  16.332  0.00  0.00    +0.000 A 
ATOM      8  C   UNL     1       5.718   4.694  15.999  0.00  0.00    +0.000 A 
ATOM      9  C   UNL     1       5.825   4.314  14.633  0.00  0.00    +0.000 A 
ATOM     10  C   UNL     1       4.960   3.663  13.733  0.00  0.00    +0.000 A 
ATOM     11  C   UNL     1       4.555   4.546  16.918  0.00  0.00    +0.000 C 
ATOM     12  N   UNL     1       4.848   5.035  18.293  0.00  0.00    +0.000 NA
ATOM     13  C   UNL     1       5.748   6.217  18.321  0.00  0.00    +0.000 C 
ATOM     14  C   UNL     1       7.128   5.951  17.661  0.00  0.00    +0.000 C 
ATOM     15  H   UNL     1       8.630   5.774  15.208  0.00  0.00    +0.000 HD
ENDROOT
BRANCH  12  16
ATOM     16  C   UNL     1       3.582   5.344  18.981  0.00  0.00    +0.000 C 
BRANCH  16  17
ATOM     17  C   UNL     1       2.637   6.226  18.146  0.00  0.00    +0.000 C 
BRANCH  17  18
ATOM     18  C   UNL     1       2.392   7.617  18.743  0.00  0.00    +0.000 C 
BRANCH  18  19
ATOM     19  C   UNL     1       2.346   8.702  17.667  0.00  0.00    +0.000 C 
BRANCH  19  20
ATOM     20  C   UNL     1       1.590   9.921  18.117  0.00  0.00    +0.000 A 
ATOM     21  C   UNL     1       0.233   9.831  18.431  0.00  0.00    +0.000 A 
ATOM     22  C   UNL     1      -0.425  10.975  18.854  0.00  0.00    +0.000 A 
ATOM     23  N   UNL     1       0.169  12.183  18.974  0.00  0.00    +0.000 NA
ATOM     24  C   UNL     1       1.480  12.247  18.651  0.00  0.00    +0.000 A 
ATOM     25  C   UNL     1       2.223  11.160  18.221  0.00  0.00    +0.000 A 
ENDBRANCH  19  20
ENDBRANCH  18  19
ENDBRANCH  17  18
ENDBRANCH  16  17
ENDBRANCH  12  16
TORSDOF 5
ENDMDL
MODEL 6
REMARK VINA RESULT:      -7.7      4.847      7.228
REMARK  Name = 
REMARK  5 active torsions:
REMARK  status: ('A' for Active; 'I' for Inactive)
REMARK    1  A    between atoms: N_12  and  C_13
REMARK    2  A    between atoms: C_13  and  C_14
REMARK    3  A    between atoms: C_14  and  C_15
REMARK    4  A    between atoms: C_15  and  C_16
REMARK    5  A    between atoms: C_16  and  C_17
REMARK                            x       y       z     vdW  Elec       q    Type
REMARK                         _______ _______ _______ _____ _____    ______ ____
ROOT
ATOM      1 CL   UNL     1       5.138   2.375  11.214  0.00  0.00    +0.000 Cl
ATOM      2  C   UNL     1       5.858   3.361  12.429  0.00  0.00    +0.000 A 
ATOM      3  C   UNL     1       7.002   4.097  12.132  0.00  0.00    +0.000 A 
ATOM      4  C   UNL     1       7.607   4.908  13.098  0.00  0.00    +0.000 A 
ATOM      5  C   UNL     1       7.013   4.957  14.366  0.00  0.00    +0.000 A 
ATOM      6  N   UNL     1       7.375   5.669  15.493  0.00  0.00    +0.000 N 
ATOM      7  C   UNL     1       6.455   5.454  16.477  0.00  0.00    +0.000 A 
ATOM      8  C   UNL     1       5.515   4.559  16.021  0.00  0.00    +0.000 A 
ATOM      9  C   UNL     1       5.860   4.233  14.681  0.00  0.00    +0.000 A 
ATOM     10  C   UNL     1       5.273   3.415  13.696  0.00  0.00    +0.000 A 
ATOM     11  C   UNL     1       4.320   4.137  16.804  0.00  0.00    +0.000 C 
ATOM     12  N   UNL     1       4.335   4.660  18.197  0.00  0.00    +0.000 NA
ATOM     13  C   UNL     1       4.933   6.016  18.313  0.00  0.00    +0.000 C 
ATOM     14  C   UNL     1       6.404   6.080  17.818  0.00  0.00    +0.000 C 
ATOM     15  H   UNL     1       8.175   6.284  15.554  0.00  0.00    +0.000 HD
ENDROOT
BRANCH  12  16
ATOM     16  C   UNL     1       2.962   4.663  18.733  0.00  0.00    +0.000 C 
BRANCH  16  17
ATOM     17  C   UNL     1       2.879   5.155  20.188  0.00  0.00    +0.000 C 
BRANCH  17  18
ATOM     18  C   UNL     1       1.577   5.889  20.526  0.00  0.00    +0.000 C 
BRANCH  18  19
ATOM     19  C   UNL     1       1.835   7.302  21.049  0.00  0.00    +0.000 C 
BRANCH  19  20
ATOM     20  C   UNL     1       1.426   8.360  20.063  0.00  0.00    +0.000 A 
ATOM     21  C   UNL     1       0.466   9.313  20.411  0.00  0.00    +0.000 A 
ATOM     22  C   UNL     1       0.127  10.281  19.478  0.00  0.00    +0.000 A 
ATOM     23  N   UNL     1       0.665  10.353  18.240  0.00  0.00    +0.000 NA
ATOM     24  C   UNL     1       1.581   9.411  17.924  0.00  0.00    +0.000 A 
ATOM     25  C   UNL     1       1.987   8.407  18.787  0.00  0.00    +0.000 A 
ENDBRANCH  19  20
ENDBRANCH  18  19
ENDBRANCH  17  18
ENDBRANCH  16  17
ENDBRANCH  12  16
TORSDOF 5
ENDMDL
MODEL 7
REMARK VINA RESULT:      -7.7      5.053      7.314
REMARK  Name = 
REMARK  5 active torsions:
REMARK  status: ('A' for Active; 'I' for Inactive)
REMARK    1  A    between atoms: N_12  and  C_13
REMARK    2  A    between atoms: C_13  and  C_14
REMARK    3  A    between atoms: C_14  and  C_15
REMARK    4  A    between atoms: C_15  and  C_16
REMARK    5  A    between atoms: C_16  and  C_17
REMARK                            x       y       z     vdW  Elec       q    Type
REMARK                         _______ _______ _______ _____ _____    ______ ____
ROOT
ATOM      1 CL   UNL     1       4.240   3.126  11.187  0.00  0.00    +0.000 Cl
ATOM      2  C   UNL     1       5.304   3.659  12.433  0.00  0.00    +0.000 A 
ATOM      3  C   UNL     1       6.613   4.014  12.118  0.00  0.00    +0.000 A 
ATOM      4  C   UNL     1       7.499   4.452  13.108  0.00  0.00    +0.000 A 
ATOM      5  C   UNL     1       7.015   4.529  14.421  0.00  0.00    +0.000 A 
ATOM      6  N   UNL     1       7.645   4.934  15.582  0.00  0.00    +0.000 N 
ATOM      7  C   UNL     1       6.753   4.905  16.613  0.00  0.00    +0.000 A 
ATOM      8  C   UNL     1       5.548   4.432  16.148  0.00  0.00    +0.000 A 
ATOM      9  C   UNL     1       5.702   4.186  14.757  0.00  0.00    +0.000 A 
ATOM     10  C   UNL     1       4.831   3.737  13.745  0.00  0.00    +0.000 A 
ATOM     11  C   UNL     1       4.318   4.326  16.982  0.00  0.00    +0.000 C 
ATOM     12  N   UNL     1       4.572   4.632  18.416  0.00  0.00    +0.000 NA
ATOM     13  C   UNL     1       5.593   5.692  18.623  0.00  0.00    +0.000 C 
ATOM     14  C   UNL     1       6.976   5.336  18.012  0.00  0.00    +0.000 C 
ATOM     15  H   UNL     1       8.607   5.241  15.638  0.00  0.00    +0.000 HD
ENDROOT
BRANCH  12  16
ATOM     16  C   UNL     1       3.305   5.014  19.066  0.00  0.00    +0.000 C 
BRANCH  16  17
ATOM     17  C   UNL     1       2.491   6.036  18.254  0.00  0.00    +0.000 C 
BRANCH  17  18
ATOM     18  C   UNL     1       2.611   7.476  18.764  0.00  0.00    +0.000 C 
BRANCH  18  19
ATOM     19  C   UNL     1       1.834   8.460  17.891  0.00  0.00    +0.000 C 
BRANCH  19  20
ATOM     20  C   UNL     1       0.894   9.316  18.692  0.00  0.00    +0.000 A 
ATOM     21  C   UNL     1       0.960   9.320  20.087  0.00  0.00    +0.000 A 
ATOM     22  C   UNL     1       0.084  10.134  20.789  0.00  0.00    +0.000 A 
ATOM     23  N   UNL     1      -0.843  10.923  20.202  0.00  0.00    +0.000 NA
ATOM     24  C   UNL     1      -0.896  10.891  18.852  0.00  0.00    +0.000 A 
ATOM     25  C   UNL     1      -0.063  10.114  18.063  0.00  0.00    +0.000 A 
ENDBRANCH  19  20
ENDBRANCH  18  19
ENDBRANCH  17  18
ENDBRANCH  16  17
ENDBRANCH  12  16
TORSDOF 5
ENDMDL
MODEL 8
REMARK VINA RESULT:      -7.6      0.998      1.052
REMARK  Name = 
REMARK  5 active torsions:
REMARK  status: ('A' for Active; 'I' for Inactive)
REMARK    1  A    between atoms: N_12  and  C_13
REMARK    2  A    between atoms: C_13  and  C_14
REMARK    3  A    between atoms: C_14  and  C_15
REMARK    4  A    between atoms: C_15  and  C_16
REMARK    5  A    between atoms: C_16  and  C_17
REMARK                            x       y       z     vdW  Elec       q    Type
REMARK                         _______ _______ _______ _____ _____    ______ ____
ROOT
ATOM      1 CL   UNL     1       1.995   4.098  21.676  0.00  0.00    +0.000 Cl
ATOM      2  C   UNL     1       2.705   3.589  20.191  0.00  0.00    +0.000 A 
ATOM      3  C   UNL     1       2.187   2.483  19.522  0.00  0.00    +0.000 A 
ATOM      4  C   UNL     1       2.742   2.048  18.313  0.00  0.00    +0.000 A 
ATOM      5  C   UNL     1       3.826   2.772  17.801  0.00  0.00    +0.000 A 
ATOM      6  N   UNL     1       4.553   2.588  16.641  0.00  0.00    +0.000 N 
ATOM      7  C   UNL     1       5.477   3.585  16.525  0.00  0.00    +0.000 A 
ATOM      8  C   UNL     1       5.398   4.398  17.632  0.00  0.00    +0.000 A 
ATOM      9  C   UNL     1       4.354   3.891  18.452  0.00  0.00    +0.000 A 
ATOM     10  C   UNL     1       3.787   4.304  19.674  0.00  0.00    +0.000 A 
ATOM     11  C   UNL     1       6.213   5.631  17.818  0.00  0.00    +0.000 C 
ATOM     12  N   UNL     1       7.241   5.802  16.756  0.00  0.00    +0.000 NA
ATOM     13  C   UNL     1       6.795   5.329  15.420  0.00  0.00    +0.000 C 
ATOM     14  C   UNL     1       6.409   3.825  15.400  0.00  0.00    +0.000 C 
ATOM     15  H   UNL     1       4.389   1.850  15.970  0.00  0.00    +0.000 HD
ENDROOT
BRANCH  12  16
ATOM     16  C   UNL     1       7.640   7.219  16.686  0.00  0.00    +0.000 C 
BRANCH  16  17
ATOM     17  C   UNL     1       7.840   7.862  18.069  0.00  0.00    +0.000 C 
BRANCH  17  18
ATOM     18  C   UNL     1       8.134   9.366  18.023  0.00  0.00    +0.000 C 
BRANCH  18  19
ATOM     19  C   UNL     1       9.202   9.772  19.038  0.00  0.00    +0.000 C 
BRANCH  19  20
ATOM     20  C   UNL     1       9.820  11.104  18.715  0.00  0.00    +0.000 A 
ATOM     21  C   UNL     1      11.079  11.436  19.219  0.00  0.00    +0.000 A 
ATOM     22  C   UNL     1      11.621  12.668  18.887  0.00  0.00    +0.000 A 
ATOM     23  N   UNL     1      10.996  13.578  18.107  0.00  0.00    +0.000 NA
ATOM     24  C   UNL     1       9.773  13.238  17.643  0.00  0.00    +0.000 A 
ATOM     25  C   UNL     1       9.150  12.031  17.917  0.00  0.00    +0.000 A 
ENDBRANCH  19  20
ENDBRANCH  18  19
ENDBRANCH  17  18
ENDBRANCH  16  17
ENDBRANCH  12  16
TORSDOF 5
ENDMDL
MODEL 9
REMARK VINA RESULT:      -7.6      0.973      1.421
REMARK  Name = 
REMARK  5 active torsions:
REMARK  status: ('A' for Active; 'I' for Inactive)
REMARK    1  A    between atoms: N_12  and  C_13
REMARK    2  A    between atoms: C_13  and  C_14
REMARK    3  A    between atoms: C_14  and  C_15
REMARK    4  A    between atoms: C_15  and  C_16
REMARK    5  A    between atoms: C_16  and  C_17
REMARK                            x       y       z     vdW  Elec       q    Type
REMARK                         _______ _______ _______ _____ _____    ______ ____
ROOT
ATOM      1 CL   UNL     1       1.344   2.413  22.088  0.00  0.00    +0.000 Cl
ATOM      2  C   UNL     1       1.740   2.705  20.436  0.00  0.00    +0.000 A 
ATOM      3  C   UNL     1       0.765   2.549  19.455  0.00  0.00    +0.000 A 
ATOM      4  C   UNL     1       1.057   2.781  18.106  0.00  0.00    +0.000 A 
ATOM      5  C   UNL     1       2.360   3.184  17.787  0.00  0.00    +0.000 A 
ATOM      6  N   UNL     1       2.923   3.494  16.564  0.00  0.00    +0.000 N 
ATOM      7  C   UNL     1       4.211   3.902  16.751  0.00  0.00    +0.000 A 
ATOM      8  C   UNL     1       4.518   3.814  18.089  0.00  0.00    +0.000 A 
ATOM      9  C   UNL     1       3.351   3.356  18.758  0.00  0.00    +0.000 A 
ATOM     10  C   UNL     1       3.037   3.106  20.109  0.00  0.00    +0.000 A 
ATOM     11  C   UNL     1       5.820   4.241  18.674  0.00  0.00    +0.000 C 
ATOM     12  N   UNL     1       6.815   4.621  17.636  0.00  0.00    +0.000 NA
ATOM     13  C   UNL     1       6.211   5.286  16.452  0.00  0.00    +0.000 C 
ATOM     14  C   UNL     1       5.156   4.406  15.728  0.00  0.00    +0.000 C 
ATOM     15  H   UNL     1       2.435   3.459  15.679  0.00  0.00    +0.000 HD
ENDROOT
BRANCH  12  16
ATOM     16  C   UNL     1       7.841   5.492  18.239  0.00  0.00    +0.000 C 
BRANCH  16  17
ATOM     17  C   UNL     1       7.385   6.953  18.388  0.00  0.00    +0.000 C 
BRANCH  17  18
ATOM     18  C   UNL     1       8.526   7.974  18.314  0.00  0.00    +0.000 C 
BRANCH  18  19
ATOM     19  C   UNL     1       8.054   9.323  17.773  0.00  0.00    +0.000 C 
BRANCH  19  20
ATOM     20  C   UNL     1       8.746  10.480  18.439  0.00  0.00    +0.000 A 
ATOM     21  C   UNL     1       8.738  11.743  17.844  0.00  0.00    +0.000 A 
ATOM     22  C   UNL     1       9.376  12.786  18.496  0.00  0.00    +0.000 A 
ATOM     23  N   UNL     1      10.017  12.653  19.679  0.00  0.00    +0.000 NA
ATOM     24  C   UNL     1      10.022  11.418  20.228  0.00  0.00    +0.000 A 
ATOM     25  C   UNL     1       9.412  10.314  19.654  0.00  0.00    +0.000 A 
ENDBRANCH  19  20
ENDBRANCH  18  19
ENDBRANCH  17  18
ENDBRANCH  16  17
ENDBRANCH  12  16
TORSDOF 5
ENDMDL
