MODEL 1
REMARK VINA RESULT:      -7.7      0.000      0.000
REMARK  Name = 
REMARK  9 active torsions:
REMARK  status: ('A' for Active; 'I' for Inactive)
REMARK    1  A    between atoms: C_1  and  O_2
REMARK    2  A    between atoms: O_2  and  C_3
REMARK    3  A    between atoms: C_6  and  C_7
REMARK    4  A    between atoms: C_8  and  C_9
REMARK    5  A    between atoms: C_9  and  C_11
REMARK    6  A    between atoms: C_14  and  O_15
REMARK    7  A    between atoms: O_15  and  C_16
REMARK    8  A    between atoms: C_20  and  C_21
REMARK    9  A    between atoms: C_20  and  C_22
REMARK                            x       y       z     vdW  Elec       q    Type
REMARK                         _______ _______ _______ _____ _____    ______ ____
ROOT
ATOM      1  C   UNL     1       6.908   5.679  17.163  0.00  0.00    +0.000 A 
ATOM      2  C   UNL     1       7.571   5.478  15.951  0.00  0.00    +0.000 A 
ATOM      3  C   UNL     1       6.932   4.808  14.907  0.00  0.00    +0.000 A 
ATOM      4  C   UNL     1       5.625   4.314  15.052  0.00  0.00    +0.000 A 
ATOM      5  C   UNL     1       4.947   4.495  16.271  0.00  0.00    +0.000 A 
ATOM      6  C   UNL     1       5.618   5.147  17.332  0.00  0.00    +0.000 A 
ATOM      7  O   UNL     1       5.029   5.318  18.561  0.00  0.00    +0.000 OA
ATOM      8  C   UNL     1       3.971   4.419  18.935  0.00  0.00    +0.000 C 
ATOM      9  C   UNL     1       4.600   3.187  19.590  0.00  0.00    +0.000 C 
ATOM     10  C   UNL     1       3.140   5.189  19.970  0.00  0.00    +0.000 C 
ATOM     11  C   UNL     1       3.103   4.056  17.765  0.00  0.00    +0.000 C 
ATOM     12  C   UNL     1       3.548   4.127  16.504  0.00  0.00    +0.000 C 
ENDROOT
BRANCH   1  13
ATOM     13  C   UNL     1       7.626   6.420  18.241  0.00  0.00    +0.000 C 
ATOM     14  O   UNL     1       8.025   5.833  19.240  0.00  0.00    +0.000 OA
BRANCH  13  16
ATOM     15  C   UNL     1       8.685   8.552  18.873  0.00  0.00    +0.000 C 
ATOM     16  C   UNL     1       7.891   7.872  18.033  0.00  0.00    +0.000 C 
BRANCH  15  20
ATOM     17  C   UNL     1       9.444  12.706  18.769  0.00  0.00    +0.000 A 
ATOM     18  C   UNL     1       8.748  12.158  17.704  0.00  0.00    +0.000 A 
ATOM     19  C   UNL     1       8.480  10.789  17.719  0.00  0.00    +0.000 A 
ATOM     20  C   UNL     1       8.907  10.004  18.793  0.00  0.00    +0.000 A 
ATOM     21  C   UNL     1       9.605  10.661  19.807  0.00  0.00    +0.000 A 
ATOM     22  N   UNL     1       9.878  11.989  19.824  0.00  0.00    +0.000 NA
BRANCH  17  24
ATOM     23  C   UNL     1      10.530  14.415  17.600  0.00  0.00    +0.000 C 
ATOM     24  O   UNL     1       9.699  14.062  18.701  0.00  0.00    +0.000 OA
ENDBRANCH  17  24
ENDBRANCH  15  20
ENDBRANCH  13  16
ENDBRANCH   1  13
BRANCH   4  25
ATOM     25  O   UNL     1       5.115   3.778  13.897  0.00  0.00    +0.000 OA
ATOM     26  C   UNL     1       6.011   3.617  12.802  0.00  0.00    +0.000 C 
ENDBRANCH   4  25
TORSDOF 5
ENDMDL
MODEL 2
REMARK VINA RESULT:      -7.3      4.937      7.354
REMARK  Name = 
REMARK  9 active torsions:
REMARK  status: ('A' for Active; 'I' for Inactive)
REMARK    1  A    between atoms: C_1  and  O_2
REMARK    2  A    between atoms: O_2  and  C_3
REMARK    3  A    between atoms: C_6  and  C_7
REMARK    4  A    between atoms: C_8  and  C_9
REMARK    5  A    between atoms: C_9  and  C_11
REMARK    6  A    between atoms: C_14  and  O_15
REMARK    7  A    between atoms: O_15  and  C_16
REMARK    8  A    between atoms: C_20  and  C_21
REMARK    9  A    between atoms: C_20  and  C_22
REMARK                            x       y       z     vdW  Elec       q    Type
REMARK                         _______ _______ _______ _____ _____    ______ ____
ROOT
ATOM      1  C   UNL     1       3.021   6.243  18.364  0.00  0.00    +0.000 A 
ATOM      2  C   UNL     1       2.077   5.270  18.697  0.00  0.00    +0.000 A 
ATOM      3  C   UNL     1       2.472   3.943  18.875  0.00  0.00    +0.000 A 
ATOM      4  C   UNL     1       3.812   3.556  18.713  0.00  0.00    +0.000 A 
ATOM      5  C   UNL     1       4.775   4.521  18.364  0.00  0.00    +0.000 A 
ATOM      6  C   UNL     1       4.355   5.855  18.154  0.00  0.00    +0.000 A 
ATOM      7  O   UNL     1       5.237   6.836  17.770  0.00  0.00    +0.000 OA
ATOM      8  C   UNL     1       6.443   6.437  17.098  0.00  0.00    +0.000 C 
ATOM      9  C   UNL     1       6.147   6.343  15.599  0.00  0.00    +0.000 C 
ATOM     10  C   UNL     1       7.440   7.573  17.360  0.00  0.00    +0.000 C 
ATOM     11  C   UNL     1       6.991   5.152  17.647  0.00  0.00    +0.000 C 
ATOM     12  C   UNL     1       6.215   4.263  18.278  0.00  0.00    +0.000 C 
ENDROOT
BRANCH   1  13
ATOM     13  C   UNL     1       2.551   7.650  18.205  0.00  0.00    +0.000 C 
ATOM     14  O   UNL     1       2.696   8.239  17.139  0.00  0.00    +0.000 OA
BRANCH  13  16
ATOM     15  C   UNL     1       1.016   9.318  19.169  0.00  0.00    +0.000 C 
ATOM     16  C   UNL     1       1.854   8.288  19.358  0.00  0.00    +0.000 C 
BRANCH  15  20
ATOM     17  C   UNL     1      -0.691  11.404  22.421  0.00  0.00    +0.000 A 
ATOM     18  C   UNL     1      -1.163  11.703  21.154  0.00  0.00    +0.000 A 
ATOM     19  C   UNL     1      -0.619  11.023  20.064  0.00  0.00    +0.000 A 
ATOM     20  C   UNL     1       0.376  10.062  20.264  0.00  0.00    +0.000 A 
ATOM     21  C   UNL     1       0.779   9.848  21.583  0.00  0.00    +0.000 A 
ATOM     22  N   UNL     1       0.268  10.488  22.663  0.00  0.00    +0.000 NA
BRANCH  17  24
ATOM     23  C   UNL     1      -2.652  12.312  23.316  0.00  0.00    +0.000 C 
ATOM     24  O   UNL     1      -1.249  12.115  23.465  0.00  0.00    +0.000 OA
ENDBRANCH  17  24
ENDBRANCH  15  20
ENDBRANCH  13  16
ENDBRANCH   1  13
BRANCH   4  25
ATOM     25  O   UNL     1       4.040   2.241  19.028  0.00  0.00    +0.000 OA
ATOM     26  C   UNL     1       4.514   1.958  20.340  0.00  0.00    +0.000 C 
ENDBRANCH   4  25
TORSDOF 5
ENDMDL
MODEL 3
REMARK VINA RESULT:      -7.3      7.097     10.024
REMARK  Name = 
REMARK  9 active torsions:
REMARK  status: ('A' for Active; 'I' for Inactive)
REMARK    1  A    between atoms: C_1  and  O_2
REMARK    2  A    between atoms: O_2  and  C_3
REMARK    3  A    between atoms: C_6  and  C_7
REMARK    4  A    between atoms: C_8  and  C_9
REMARK    5  A    between atoms: C_9  and  C_11
REMARK    6  A    between atoms: C_14  and  O_15
REMARK    7  A    between atoms: O_15  and  C_16
REMARK    8  A    between atoms: C_20  and  C_21
REMARK    9  A    between atoms: C_20  and  C_22
REMARK                            x       y       z     vdW  Elec       q    Type
REMARK                         _______ _______ _______ _____ _____    ______ ____
ROOT
ATOM      1  C   UNL     1      -0.398  10.618  18.450  0.00  0.00    +0.000 A 
ATOM      2  C   UNL     1      -1.223   9.941  17.549  0.00  0.00    +0.000 A 
ATOM      3  C   UNL     1      -2.592  10.209  17.516  0.00  0.00    +0.000 A 
ATOM      4  C   UNL     1      -3.170  11.147  18.387  0.00  0.00    +0.000 A 
ATOM      5  C   UNL     1      -2.357  11.829  19.311  0.00  0.00    +0.000 A 
ATOM      6  C   UNL     1      -0.977  11.523  19.356  0.00  0.00    +0.000 A 
ATOM      7  O   UNL     1      -0.136  12.121  20.263  0.00  0.00    +0.000 OA
ATOM      8  C   UNL     1      -0.709  12.652  21.469  0.00  0.00    +0.000 C 
ATOM      9  C   UNL     1      -0.764  11.529  22.507  0.00  0.00    +0.000 C 
ATOM     10  C   UNL     1       0.271  13.738  21.932  0.00  0.00    +0.000 C 
ATOM     11  C   UNL     1      -2.058  13.264  21.227  0.00  0.00    +0.000 C 
ATOM     12  C   UNL     1      -2.822  12.906  20.188  0.00  0.00    +0.000 C 
ENDROOT
BRANCH   1  13
ATOM     13  C   UNL     1       1.061  10.311  18.431  0.00  0.00    +0.000 C 
ATOM     14  O   UNL     1       1.888  11.216  18.409  0.00  0.00    +0.000 OA
BRANCH  13  16
ATOM     15  C   UNL     1       2.592   8.459  17.886  0.00  0.00    +0.000 C 
ATOM     16  C   UNL     1       1.475   8.881  18.498  0.00  0.00    +0.000 C 
BRANCH  15  20
ATOM     17  C   UNL     1       3.947   4.465  17.672  0.00  0.00    +0.000 A 
ATOM     18  C   UNL     1       2.688   4.683  18.207  0.00  0.00    +0.000 A 
ATOM     19  C   UNL     1       2.216   5.993  18.283  0.00  0.00    +0.000 A 
ATOM     20  C   UNL     1       3.006   7.050  17.821  0.00  0.00    +0.000 A 
ATOM     21  C   UNL     1       4.259   6.713  17.308  0.00  0.00    +0.000 A 
ATOM     22  N   UNL     1       4.745   5.451  17.217  0.00  0.00    +0.000 NA
BRANCH  17  24
ATOM     23  C   UNL     1       3.350   2.223  17.963  0.00  0.00    +0.000 C 
ATOM     24  O   UNL     1       4.377   3.153  17.633  0.00  0.00    +0.000 OA
ENDBRANCH  17  24
ENDBRANCH  15  20
ENDBRANCH  13  16
ENDBRANCH   1  13
BRANCH   4  25
ATOM     25  O   UNL     1      -4.503  11.362  18.147  0.00  0.00    +0.000 OA
ATOM     26  C   UNL     1      -4.885  11.663  16.809  0.00  0.00    +0.000 C 
ENDBRANCH   4  25
TORSDOF 5
ENDMDL
MODEL 4
REMARK VINA RESULT:      -7.2      5.075      6.148
REMARK  Name = 
REMARK  9 active torsions:
REMARK  status: ('A' for Active; 'I' for Inactive)
REMARK    1  A    between atoms: C_1  and  O_2
REMARK    2  A    between atoms: O_2  and  C_3
REMARK    3  A    between atoms: C_6  and  C_7
REMARK    4  A    between atoms: C_8  and  C_9
REMARK    5  A    between atoms: C_9  and  C_11
REMARK    6  A    between atoms: C_14  and  O_15
REMARK    7  A    between atoms: O_15  and  C_16
REMARK    8  A    between atoms: C_20  and  C_21
REMARK    9  A    between atoms: C_20  and  C_22
REMARK                            x       y       z     vdW  Elec       q    Type
REMARK                         _______ _______ _______ _____ _____    ______ ____
ROOT
ATOM      1  C   UNL     1       3.041   6.532  18.360  0.00  0.00    +0.000 A 
ATOM      2  C   UNL     1       4.033   7.207  17.645  0.00  0.00    +0.000 A 
ATOM      3  C   UNL     1       4.828   6.517  16.729  0.00  0.00    +0.000 A 
ATOM      4  C   UNL     1       4.661   5.139  16.516  0.00  0.00    +0.000 A 
ATOM      5  C   UNL     1       3.676   4.439  17.238  0.00  0.00    +0.000 A 
ATOM      6  C   UNL     1       2.900   5.145  18.186  0.00  0.00    +0.000 A 
ATOM      7  O   UNL     1       1.952   4.513  18.954  0.00  0.00    +0.000 OA
ATOM      8  C   UNL     1       2.088   3.099  19.170  0.00  0.00    +0.000 C 
ATOM      9  C   UNL     1       2.985   2.887  20.393  0.00  0.00    +0.000 C 
ATOM     10  C   UNL     1       0.669   2.603  19.475  0.00  0.00    +0.000 C 
ATOM     11  C   UNL     1       2.616   2.394  17.954  0.00  0.00    +0.000 C 
ATOM     12  C   UNL     1       3.333   3.031  17.021  0.00  0.00    +0.000 C 
ENDROOT
BRANCH   1  13
ATOM     13  C   UNL     1       2.204   7.320  19.310  0.00  0.00    +0.000 C 
ATOM     14  O   UNL     1       1.830   6.825  20.369  0.00  0.00    +0.000 OA
BRANCH  13  16
ATOM     15  C   UNL     1       1.005   9.440  19.678  0.00  0.00    +0.000 C 
ATOM     16  C   UNL     1       1.889   8.733  18.959  0.00  0.00    +0.000 C 
BRANCH  15  20
ATOM     17  C   UNL     1      -0.081  13.399  18.686  0.00  0.00    +0.000 A 
ATOM     18  C   UNL     1      -1.017  12.405  18.456  0.00  0.00    +0.000 A 
ATOM     19  C   UNL     1      -0.684  11.090  18.781  0.00  0.00    +0.000 A 
ATOM     20  C   UNL     1       0.569  10.800  19.330  0.00  0.00    +0.000 A 
ATOM     21  C   UNL     1       1.435  11.879  19.511  0.00  0.00    +0.000 A 
ATOM     22  N   UNL     1       1.140  13.168  19.209  0.00  0.00    +0.000 NA
BRANCH  17  24
ATOM     23  C   UNL     1       0.276  15.683  19.037  0.00  0.00    +0.000 C 
ATOM     24  O   UNL     1      -0.451  14.682  18.332  0.00  0.00    +0.000 OA
ENDBRANCH  17  24
ENDBRANCH  15  20
ENDBRANCH  13  16
ENDBRANCH   1  13
BRANCH   4  25
ATOM     25  O   UNL     1       5.452   4.645  15.510  0.00  0.00    +0.000 OA
ATOM     26  C   UNL     1       6.826   4.422  15.811  0.00  0.00    +0.000 C 
ENDBRANCH   4  25
TORSDOF 5
ENDMDL
MODEL 5
REMARK VINA RESULT:      -7.2      4.991      7.722
REMARK  Name = 
REMARK  9 active torsions:
REMARK  status: ('A' for Active; 'I' for Inactive)
REMARK    1  A    between atoms: C_1  and  O_2
REMARK    2  A    between atoms: O_2  and  C_3
REMARK    3  A    between atoms: C_6  and  C_7
REMARK    4  A    between atoms: C_8  and  C_9
REMARK    5  A    between atoms: C_9  and  C_11
REMARK    6  A    between atoms: C_14  and  O_15
REMARK    7  A    between atoms: O_15  and  C_16
REMARK    8  A    between atoms: C_20  and  C_21
REMARK    9  A    between atoms: C_20  and  C_22
REMARK                            x       y       z     vdW  Elec       q    Type
REMARK                         _______ _______ _______ _____ _____    ______ ____
ROOT
ATOM      1  C   UNL     1       2.620   6.660  18.824  0.00  0.00    +0.000 A 
ATOM      2  C   UNL     1       1.594   6.023  19.524  0.00  0.00    +0.000 A 
ATOM      3  C   UNL     1       1.813   4.772  20.103  0.00  0.00    +0.000 A 
ATOM      4  C   UNL     1       3.054   4.126  19.987  0.00  0.00    +0.000 A 
ATOM      5  C   UNL     1       4.096   4.747  19.273  0.00  0.00    +0.000 A 
ATOM      6  C   UNL     1       3.849   5.998  18.663  0.00  0.00    +0.000 A 
ATOM      7  O   UNL     1       4.809   6.638  17.917  0.00  0.00    +0.000 OA
ATOM      8  C   UNL     1       5.855   5.842  17.334  0.00  0.00    +0.000 C 
ATOM      9  C   UNL     1       5.368   5.335  15.975  0.00  0.00    +0.000 C 
ATOM     10  C   UNL     1       7.029   6.809  17.137  0.00  0.00    +0.000 C 
ATOM     11  C   UNL     1       6.275   4.720  18.239  0.00  0.00    +0.000 C 
ATOM     12  C   UNL     1       5.463   4.226  19.180  0.00  0.00    +0.000 C 
ENDROOT
BRANCH   1  13
ATOM     13  C   UNL     1       2.341   8.005  18.241  0.00  0.00    +0.000 C 
ATOM     14  O   UNL     1       2.712   8.281  17.106  0.00  0.00    +0.000 OA
BRANCH  13  16
ATOM     15  C   UNL     1       1.465   8.833  20.390  0.00  0.00    +0.000 C 
ATOM     16  C   UNL     1       1.551   8.970  19.058  0.00  0.00    +0.000 C 
BRANCH  15  20
ATOM     17  C   UNL     1      -0.967  11.386  22.715  0.00  0.00    +0.000 A 
ATOM     18  C   UNL     1      -0.789  10.089  23.167  0.00  0.00    +0.000 A 
ATOM     19  C   UNL     1       0.015   9.228  22.419  0.00  0.00    +0.000 A 
ATOM     20  C   UNL     1       0.623   9.682  21.246  0.00  0.00    +0.000 A 
ATOM     21  C   UNL     1       0.369  11.005  20.883  0.00  0.00    +0.000 A 
ATOM     22  N   UNL     1      -0.404  11.867  21.589  0.00  0.00    +0.000 NA
BRANCH  17  24
ATOM     23  C   UNL     1      -3.089  12.345  22.930  0.00  0.00    +0.000 C 
ATOM     24  O   UNL     1      -1.784  12.194  23.481  0.00  0.00    +0.000 OA
ENDBRANCH  17  24
ENDBRANCH  15  20
ENDBRANCH  13  16
ENDBRANCH   1  13
BRANCH   4  25
ATOM     25  O   UNL     1       3.128   2.958  20.703  0.00  0.00    +0.000 OA
ATOM     26  C   UNL     1       2.030   2.644  21.553  0.00  0.00    +0.000 C 
ENDBRANCH   4  25
TORSDOF 5
ENDMDL
MODEL 6
REMARK VINA RESULT:      -7.2      6.895     10.024
REMARK  Name = 
REMARK  9 active torsions:
REMARK  status: ('A' for Active; 'I' for Inactive)
REMARK    1  A    between atoms: C_1  and  O_2
REMARK    2  A    between atoms: O_2  and  C_3
REMARK    3  A    between atoms: C_6  and  C_7
REMARK    4  A    between atoms: C_8  and  C_9
REMARK    5  A    between atoms: C_9  and  C_11
REMARK    6  A    between atoms: C_14  and  O_15
REMARK    7  A    between atoms: O_15  and  C_16
REMARK    8  A    between atoms: C_20  and  C_21
REMARK    9  A    between atoms: C_20  and  C_22
REMARK                            x       y       z     vdW  Elec       q    Type
REMARK                         _______ _______ _______ _____ _____    ______ ____
ROOT
ATOM      1  C   UNL     1      -0.232  10.307  18.326  0.00  0.00    +0.000 A 
ATOM      2  C   UNL     1      -1.099   9.666  17.440  0.00  0.00    +0.000 A 
ATOM      3  C   UNL     1      -2.440  10.047  17.373  0.00  0.00    +0.000 A 
ATOM      4  C   UNL     1      -2.947  11.066  18.196  0.00  0.00    +0.000 A 
ATOM      5  C   UNL     1      -2.091  11.714  19.106  0.00  0.00    +0.000 A 
ATOM      6  C   UNL     1      -0.743  11.295  19.186  0.00  0.00    +0.000 A 
ATOM      7  O   UNL     1       0.135  11.856  20.082  0.00  0.00    +0.000 OA
ATOM      8  C   UNL     1      -0.407  12.483  21.256  0.00  0.00    +0.000 C 
ATOM      9  C   UNL     1      -0.571  11.412  22.337  0.00  0.00    +0.000 C 
ATOM     10  C   UNL     1       0.656  13.500  21.691  0.00  0.00    +0.000 C 
ATOM     11  C   UNL     1      -1.696  13.197  20.967  0.00  0.00    +0.000 C 
ATOM     12  C   UNL     1      -2.474  12.862  19.932  0.00  0.00    +0.000 C 
ENDROOT
BRANCH   1  13
ATOM     13  C   UNL     1       1.197   9.877  18.344  0.00  0.00    +0.000 C 
ATOM     14  O   UNL     1       2.090  10.674  18.078  0.00  0.00    +0.000 OA
BRANCH  13  16
ATOM     15  C   UNL     1       2.347   7.721  18.033  0.00  0.00    +0.000 C 
ATOM     16  C   UNL     1       1.499   8.475  18.749  0.00  0.00    +0.000 C 
BRANCH  15  20
ATOM     17  C   UNL     1       3.211   3.693  18.967  0.00  0.00    +0.000 A 
ATOM     18  C   UNL     1       2.145   3.936  18.117  0.00  0.00    +0.000 A 
ATOM     19  C   UNL     1       1.843   5.258  17.789  0.00  0.00    +0.000 A 
ATOM     20  C   UNL     1       2.613   6.302  18.311  0.00  0.00    +0.000 A 
ATOM     21  C   UNL     1       3.658   5.941  19.163  0.00  0.00    +0.000 A 
ATOM     22  N   UNL     1       3.979   4.666  19.498  0.00  0.00    +0.000 NA
BRANCH  17  24
ATOM     23  C   UNL     1       4.522   2.208  20.209  0.00  0.00    +0.000 C 
ATOM     24  O   UNL     1       3.459   2.370  19.275  0.00  0.00    +0.000 OA
ENDBRANCH  17  24
ENDBRANCH  15  20
ENDBRANCH  13  16
ENDBRANCH   1  13
BRANCH   4  25
ATOM     25  O   UNL     1      -4.254  11.383  17.926  0.00  0.00    +0.000 OA
ATOM     26  C   UNL     1      -4.618  11.535  16.558  0.00  0.00    +0.000 C 
ENDBRANCH   4  25
TORSDOF 5
ENDMDL
MODEL 7
REMARK VINA RESULT:      -7.1      5.192      6.831
REMARK  Name = 
REMARK  9 active torsions:
REMARK  status: ('A' for Active; 'I' for Inactive)
REMARK    1  A    between atoms: C_1  and  O_2
REMARK    2  A    between atoms: O_2  and  C_3
REMARK    3  A    between atoms: C_6  and  C_7
REMARK    4  A    between atoms: C_8  and  C_9
REMARK    5  A    between atoms: C_9  and  C_11
REMARK    6  A    between atoms: C_14  and  O_15
REMARK    7  A    between atoms: O_15  and  C_16
REMARK    8  A    between atoms: C_20  and  C_21
REMARK    9  A    between atoms: C_20  and  C_22
REMARK                            x       y       z     vdW  Elec       q    Type
REMARK                         _______ _______ _______ _____ _____    ______ ____
ROOT
ATOM      1  C   UNL     1       2.833   6.305  19.001  0.00  0.00    +0.000 A 
ATOM      2  C   UNL     1       3.524   7.350  18.384  0.00  0.00    +0.000 A 
ATOM      3  C   UNL     1       4.346   7.093  17.285  0.00  0.00    +0.000 A 
ATOM      4  C   UNL     1       4.505   5.789  16.787  0.00  0.00    +0.000 A 
ATOM      5  C   UNL     1       3.827   4.723  17.405  0.00  0.00    +0.000 A 
ATOM      6  C   UNL     1       3.024   4.993  18.537  0.00  0.00    +0.000 A 
ATOM      7  O   UNL     1       2.370   3.991  19.213  0.00  0.00    +0.000 OA
ATOM      8  C   UNL     1       2.884   2.653  19.102  0.00  0.00    +0.000 C 
ATOM      9  C   UNL     1       3.951   2.461  20.182  0.00  0.00    +0.000 C 
ATOM     10  C   UNL     1       1.685   1.740  19.390  0.00  0.00    +0.000 C 
ATOM     11  C   UNL     1       3.413   2.367  17.727  0.00  0.00    +0.000 C 
ATOM     12  C   UNL     1       3.823   3.343  16.909  0.00  0.00    +0.000 C 
ENDROOT
BRANCH   1  13
ATOM     13  C   UNL     1       1.951   6.636  20.159  0.00  0.00    +0.000 C 
ATOM     14  O   UNL     1       1.523   5.749  20.889  0.00  0.00    +0.000 OA
BRANCH  13  16
ATOM     15  C   UNL     1       0.632   8.431  21.211  0.00  0.00    +0.000 C 
ATOM     16  C   UNL     1       1.661   8.073  20.427  0.00  0.00    +0.000 C 
BRANCH  15  20
ATOM     17  C   UNL     1      -0.538  12.406  22.030  0.00  0.00    +0.000 A 
ATOM     18  C   UNL     1      -0.095  12.123  20.749  0.00  0.00    +0.000 A 
ATOM     19  C   UNL     1       0.292  10.816  20.452  0.00  0.00    +0.000 A 
ATOM     20  C   UNL     1       0.223   9.825  21.435  0.00  0.00    +0.000 A 
ATOM     21  C   UNL     1      -0.232  10.225  22.693  0.00  0.00    +0.000 A 
ATOM     22  N   UNL     1      -0.619  11.485  23.011  0.00  0.00    +0.000 NA
BRANCH  17  24
ATOM     23  C   UNL     1      -1.395  13.914  23.597  0.00  0.00    +0.000 C 
ATOM     24  O   UNL     1      -0.894  13.717  22.279  0.00  0.00    +0.000 OA
ENDBRANCH  17  24
ENDBRANCH  15  20
ENDBRANCH  13  16
ENDBRANCH   1  13
BRANCH   4  25
ATOM     25  O   UNL     1       5.261   5.733  15.644  0.00  0.00    +0.000 OA
ATOM     26  C   UNL     1       6.636   5.393  15.788  0.00  0.00    +0.000 C 
ENDBRANCH   4  25
TORSDOF 5
ENDMDL
MODEL 8
REMARK VINA RESULT:      -7.1      5.705      7.669
REMARK  Name = 
REMARK  9 active torsions:
REMARK  status: ('A' for Active; 'I' for Inactive)
REMARK    1  A    between atoms: C_1  and  O_2
REMARK    2  A    between atoms: O_2  and  C_3
REMARK    3  A    between atoms: C_6  and  C_7
REMARK    4  A    between atoms: C_8  and  C_9
REMARK    5  A    between atoms: C_9  and  C_11
REMARK    6  A    between atoms: C_14  and  O_15
REMARK    7  A    between atoms: O_15  and  C_16
REMARK    8  A    between atoms: C_20  and  C_21
REMARK    9  A    between atoms: C_20  and  C_22
REMARK                            x       y       z     vdW  Elec       q    Type
REMARK                         _______ _______ _______ _____ _____    ______ ____
ROOT
ATOM      1  C   UNL     1       3.027   6.814  18.136  0.00  0.00    +0.000 A 
ATOM      2  C   UNL     1       4.062   7.352  17.369  0.00  0.00    +0.000 A 
ATOM      3  C   UNL     1       4.904   6.510  16.641  0.00  0.00    +0.000 A 
ATOM      4  C   UNL     1       4.740   5.115  16.672  0.00  0.00    +0.000 A 
ATOM      5  C   UNL     1       3.711   4.555  17.452  0.00  0.00    +0.000 A 
ATOM      6  C   UNL     1       2.887   5.418  18.210  0.00  0.00    +0.000 A 
ATOM      7  O   UNL     1       1.892   4.933  19.024  0.00  0.00    +0.000 OA
ATOM      8  C   UNL     1       2.007   3.582  19.501  0.00  0.00    +0.000 C 
ATOM      9  C   UNL     1       2.830   3.599  20.792  0.00  0.00    +0.000 C 
ATOM     10  C   UNL     1       0.569   3.145  19.810  0.00  0.00    +0.000 C 
ATOM     11  C   UNL     1       2.597   2.670  18.466  0.00  0.00    +0.000 C 
ATOM     12  C   UNL     1       3.371   3.129  17.475  0.00  0.00    +0.000 C 
ENDROOT
BRANCH   1  13
ATOM     13  C   UNL     1       2.142   7.759  18.879  0.00  0.00    +0.000 C 
ATOM     14  O   UNL     1       2.399   8.074  20.035  0.00  0.00    +0.000 OA
BRANCH  13  16
ATOM     15  C   UNL     1       0.372   9.450  18.607  0.00  0.00    +0.000 C 
ATOM     16  C   UNL     1       0.979   8.343  18.153  0.00  0.00    +0.000 C 
BRANCH  15  20
ATOM     17  C   UNL     1      -3.089  11.237  16.974  0.00  0.00    +0.000 A 
ATOM     18  C   UNL     1      -2.560  10.145  16.306  0.00  0.00    +0.000 A 
ATOM     19  C   UNL     1      -1.420   9.534  16.829  0.00  0.00    +0.000 A 
ATOM     20  C   UNL     1      -0.841  10.022  18.003  0.00  0.00    +0.000 A 
ATOM     21  C   UNL     1      -1.454  11.131  18.587  0.00  0.00    +0.000 A 
ATOM     22  N   UNL     1      -2.564  11.745  18.107  0.00  0.00    +0.000 NA
BRANCH  17  24
ATOM     23  C   UNL     1      -5.350  11.763  17.257  0.00  0.00    +0.000 C 
ATOM     24  O   UNL     1      -4.207  11.818  16.409  0.00  0.00    +0.000 OA
ENDBRANCH  17  24
ENDBRANCH  15  20
ENDBRANCH  13  16
ENDBRANCH   1  13
BRANCH   4  25
ATOM     25  O   UNL     1       5.584   4.449  15.820  0.00  0.00    +0.000 OA
ATOM     26  C   UNL     1       5.547   4.819  14.445  0.00  0.00    +0.000 C 
ENDBRANCH   4  25
TORSDOF 5
ENDMDL
MODEL 9
REMARK VINA RESULT:      -7.1      5.584      7.980
REMARK  Name = 
REMARK  9 active torsions:
REMARK  status: ('A' for Active; 'I' for Inactive)
REMARK    1  A    between atoms: C_1  and  O_2
REMARK    2  A    between atoms: O_2  and  C_3
REMARK    3  A    between atoms: C_6  and  C_7
REMARK    4  A    between atoms: C_8  and  C_9
REMARK    5  A    between atoms: C_9  and  C_11
REMARK    6  A    between atoms: C_14  and  O_15
REMARK    7  A    between atoms: O_15  and  C_16
REMARK    8  A    between atoms: C_20  and  C_21
REMARK    9  A    between atoms: C_20  and  C_22
REMARK                            x       y       z     vdW  Elec       q    Type
REMARK                         _______ _______ _______ _____ _____    ______ ____
ROOT
ATOM      1  C   UNL     1       2.772   6.673  18.652  0.00  0.00    +0.000 A 
ATOM      2  C   UNL     1       1.742   5.998  19.311  0.00  0.00    +0.000 A 
ATOM      3  C   UNL     1       1.978   4.744  19.877  0.00  0.00    +0.000 A 
ATOM      4  C   UNL     1       3.239   4.132  19.788  0.00  0.00    +0.000 A 
ATOM      5  C   UNL     1       4.284   4.792  19.116  0.00  0.00    +0.000 A 
ATOM      6  C   UNL     1       4.023   6.047  18.519  0.00  0.00    +0.000 A 
ATOM      7  O   UNL     1       4.987   6.723  17.811  0.00  0.00    +0.000 OA
ATOM      8  C   UNL     1       6.070   5.965  17.248  0.00  0.00    +0.000 C 
ATOM      9  C   UNL     1       5.638   5.467  15.867  0.00  0.00    +0.000 C 
ATOM     10  C   UNL     1       7.223   6.965  17.102  0.00  0.00    +0.000 C 
ATOM     11  C   UNL     1       6.493   4.839  18.147  0.00  0.00    +0.000 C 
ATOM     12  C   UNL     1       5.666   4.309  19.056  0.00  0.00    +0.000 C 
ENDROOT
BRANCH   1  13
ATOM     13  C   UNL     1       2.474   8.020  18.083  0.00  0.00    +0.000 C 
ATOM     14  O   UNL     1       3.011   8.389  17.044  0.00  0.00    +0.000 OA
BRANCH  13  16
ATOM     15  C   UNL     1       0.568   9.579  18.088  0.00  0.00    +0.000 C 
ATOM     16  C   UNL     1       1.468   8.868  18.782  0.00  0.00    +0.000 C 
BRANCH  15  20
ATOM     17  C   UNL     1      -2.287  12.221  19.736  0.00  0.00    +0.000 A 
ATOM     18  C   UNL     1      -1.178  11.918  20.508  0.00  0.00    +0.000 A 
ATOM     19  C   UNL     1      -0.218  11.052  19.984  0.00  0.00    +0.000 A 
ATOM     20  C   UNL     1      -0.385  10.515  18.704  0.00  0.00    +0.000 A 
ATOM     21  C   UNL     1      -1.543  10.884  18.019  0.00  0.00    +0.000 A 
ATOM     22  N   UNL     1      -2.492  11.725  18.499  0.00  0.00    +0.000 NA
BRANCH  17  24
ATOM     23  C   UNL     1      -4.559  12.680  20.037  0.00  0.00    +0.000 C 
ATOM     24  O   UNL     1      -3.216  13.069  20.305  0.00  0.00    +0.000 OA
ENDBRANCH  17  24
ENDBRANCH  15  20
ENDBRANCH  13  16
ENDBRANCH   1  13
BRANCH   4  25
ATOM     25  O   UNL     1       3.322   2.955  20.487  0.00  0.00    +0.000 OA
ATOM     26  C   UNL     1       2.350   2.730  21.503  0.00  0.00    +0.000 C 
ENDBRANCH   4  25
TORSDOF 5
ENDMDL
