MODEL 1
REMARK VINA RESULT:      -6.9      0.000      0.000
REMARK  Name = 
REMARK  2 active torsions:
REMARK  status: ('A' for Active; 'I' for Inactive)
REMARK    1  A    between atoms: C_1  and  C_2
REMARK    2  A    between atoms: C_6  and  N_7
REMARK                            x       y       z     vdW  Elec       q    Type
REMARK                         _______ _______ _______ _____ _____    ______ ____
ROOT
ATOM      1  C   UNL     1       6.070   4.087  14.238  0.00  0.00    +0.000 C 
ATOM      2  C   UNL     1       5.411   4.740  15.418  0.00  0.00    +0.000 A 
ATOM      3  C   UNL     1       5.517   6.115  15.631  0.00  0.00    +0.000 A 
ATOM      4  C   UNL     1       4.857   6.704  16.705  0.00  0.00    +0.000 A 
ATOM      5  C   UNL     1       4.080   5.925  17.568  0.00  0.00    +0.000 A 
ATOM      6  C   UNL     1       3.966   4.538  17.393  0.00  0.00    +0.000 A 
ATOM      7  C   UNL     1       4.651   3.963  16.311  0.00  0.00    +0.000 A 
ENDROOT
BRANCH   6   8
ATOM      8  N   UNL     1       3.176   3.746  18.272  0.00  0.00    +0.000 N 
ATOM      9  C   UNL     1       3.651   3.018  19.329  0.00  0.00    +0.000 C 
ATOM     10  O   UNL     1       4.778   2.891  19.780  0.00  0.00    +0.000 OA
ATOM     11  C   UNL     1       2.504   2.368  19.972  0.00  0.00    +0.000 C 
ATOM     12  C   UNL     1       1.411   2.712  19.300  0.00  0.00    +0.000 C 
ATOM     13  C   UNL     1       1.816   3.597  18.200  0.00  0.00    +0.000 C 
ATOM     14  O   UNL     1       0.996   4.024  17.405  0.00  0.00    +0.000 OA
ENDBRANCH   6   8
TORSDOF 1
ENDMDL
MODEL 2
REMARK VINA RESULT:      -6.9      0.078      2.000
REMARK  Name = 
REMARK  2 active torsions:
REMARK  status: ('A' for Active; 'I' for Inactive)
REMARK    1  A    between atoms: C_1  and  C_2
REMARK    2  A    between atoms: C_6  and  N_7
REMARK                            x       y       z     vdW  Elec       q    Type
REMARK                         _______ _______ _______ _____ _____    ______ ____
ROOT
ATOM      1  C   UNL     1       6.181   4.121  14.347  0.00  0.00    +0.000 C 
ATOM      2  C   UNL     1       5.447   4.776  15.480  0.00  0.00    +0.000 A 
ATOM      3  C   UNL     1       5.468   6.162  15.645  0.00  0.00    +0.000 A 
ATOM      4  C   UNL     1       4.740   6.749  16.675  0.00  0.00    +0.000 A 
ATOM      5  C   UNL     1       3.978   5.958  17.541  0.00  0.00    +0.000 A 
ATOM      6  C   UNL     1       3.949   4.561  17.414  0.00  0.00    +0.000 A 
ATOM      7  C   UNL     1       4.702   3.989  16.376  0.00  0.00    +0.000 A 
ENDROOT
BRANCH   6   8
ATOM      8  N   UNL     1       3.175   3.756  18.296  0.00  0.00    +0.000 N 
ATOM      9  C   UNL     1       1.818   3.591  18.235  0.00  0.00    +0.000 C 
ATOM     10  O   UNL     1       0.986   4.026  17.456  0.00  0.00    +0.000 OA
ATOM     11  C   UNL     1       1.434   2.673  19.313  0.00  0.00    +0.000 C 
ATOM     12  C   UNL     1       2.537   2.331  19.970  0.00  0.00    +0.000 C 
ATOM     13  C   UNL     1       3.672   3.015  19.335  0.00  0.00    +0.000 C 
ATOM     14  O   UNL     1       4.801   2.897  19.778  0.00  0.00    +0.000 OA
ENDBRANCH   6   8
TORSDOF 1
ENDMDL
MODEL 3
REMARK VINA RESULT:      -6.8      2.626      5.295
REMARK  Name = 
REMARK  2 active torsions:
REMARK  status: ('A' for Active; 'I' for Inactive)
REMARK    1  A    between atoms: C_1  and  C_2
REMARK    2  A    between atoms: C_6  and  N_7
REMARK                            x       y       z     vdW  Elec       q    Type
REMARK                         _______ _______ _______ _____ _____    ______ ____
ROOT
ATOM      1  C   UNL     1       1.492   4.980  20.522  0.00  0.00    +0.000 C 
ATOM      2  C   UNL     1       2.406   4.651  19.378  0.00  0.00    +0.000 A 
ATOM      3  C   UNL     1       2.039   3.714  18.411  0.00  0.00    +0.000 A 
ATOM      4  C   UNL     1       2.882   3.461  17.334  0.00  0.00    +0.000 A 
ATOM      5  C   UNL     1       4.093   4.151  17.209  0.00  0.00    +0.000 A 
ATOM      6  C   UNL     1       4.500   5.086  18.171  0.00  0.00    +0.000 A 
ATOM      7  C   UNL     1       3.639   5.315  19.257  0.00  0.00    +0.000 A 
ENDROOT
BRANCH   6   8
ATOM      8  N   UNL     1       5.732   5.787  18.045  0.00  0.00    +0.000 N 
ATOM      9  C   UNL     1       6.062   6.636  17.023  0.00  0.00    +0.000 C 
ATOM     10  O   UNL     1       5.430   7.010  16.049  0.00  0.00    +0.000 OA
ATOM     11  C   UNL     1       7.409   7.150  17.291  0.00  0.00    +0.000 C 
ATOM     12  C   UNL     1       7.834   6.609  18.428  0.00  0.00    +0.000 C 
ATOM     13  C   UNL     1       6.774   5.727  18.932  0.00  0.00    +0.000 C 
ATOM     14  O   UNL     1       6.933   5.075  19.950  0.00  0.00    +0.000 OA
ENDBRANCH   6   8
TORSDOF 1
ENDMDL
MODEL 4
REMARK VINA RESULT:      -6.7      2.566      4.600
REMARK  Name = 
REMARK  2 active torsions:
REMARK  status: ('A' for Active; 'I' for Inactive)
REMARK    1  A    between atoms: C_1  and  C_2
REMARK    2  A    between atoms: C_6  and  N_7
REMARK                            x       y       z     vdW  Elec       q    Type
REMARK                         _______ _______ _______ _____ _____    ______ ____
ROOT
ATOM      1  C   UNL     1       3.224   1.518  18.404  0.00  0.00    +0.000 C 
ATOM      2  C   UNL     1       3.223   3.006  18.205  0.00  0.00    +0.000 A 
ATOM      3  C   UNL     1       2.027   3.721  18.129  0.00  0.00    +0.000 A 
ATOM      4  C   UNL     1       2.053   5.105  17.992  0.00  0.00    +0.000 A 
ATOM      5  C   UNL     1       3.274   5.786  17.939  0.00  0.00    +0.000 A 
ATOM      6  C   UNL     1       4.494   5.096  17.995  0.00  0.00    +0.000 A 
ATOM      7  C   UNL     1       4.444   3.698  18.120  0.00  0.00    +0.000 A 
ENDROOT
BRANCH   6   8
ATOM      8  N   UNL     1       5.737   5.789  17.941  0.00  0.00    +0.000 N 
ATOM      9  C   UNL     1       6.700   5.768  18.913  0.00  0.00    +0.000 C 
ATOM     10  O   UNL     1       6.759   5.177  19.978  0.00  0.00    +0.000 OA
ATOM     11  C   UNL     1       7.816   6.599  18.448  0.00  0.00    +0.000 C 
ATOM     12  C   UNL     1       7.497   7.080  17.252  0.00  0.00    +0.000 C 
ATOM     13  C   UNL     1       6.162   6.574  16.903  0.00  0.00    +0.000 C 
ATOM     14  O   UNL     1       5.620   6.904  15.862  0.00  0.00    +0.000 OA
ENDBRANCH   6   8
TORSDOF 1
ENDMDL
MODEL 5
REMARK VINA RESULT:      -6.7      2.574      4.951
REMARK  Name = 
REMARK  2 active torsions:
REMARK  status: ('A' for Active; 'I' for Inactive)
REMARK    1  A    between atoms: C_1  and  C_2
REMARK    2  A    between atoms: C_6  and  N_7
REMARK                            x       y       z     vdW  Elec       q    Type
REMARK                         _______ _______ _______ _____ _____    ______ ____
ROOT
ATOM      1  C   UNL     1       1.511   4.749  20.537  0.00  0.00    +0.000 C 
ATOM      2  C   UNL     1       2.408   4.482  19.363  0.00  0.00    +0.000 A 
ATOM      3  C   UNL     1       2.038   3.578  18.367  0.00  0.00    +0.000 A 
ATOM      4  C   UNL     1       2.864   3.382  17.265  0.00  0.00    +0.000 A 
ATOM      5  C   UNL     1       4.061   4.096  17.146  0.00  0.00    +0.000 A 
ATOM      6  C   UNL     1       4.472   4.999  18.138  0.00  0.00    +0.000 A 
ATOM      7  C   UNL     1       3.628   5.170  19.248  0.00  0.00    +0.000 A 
ENDROOT
BRANCH   6   8
ATOM      8  N   UNL     1       5.690   5.724  18.017  0.00  0.00    +0.000 N 
ATOM      9  C   UNL     1       6.724   5.694  18.915  0.00  0.00    +0.000 C 
ATOM     10  O   UNL     1       6.876   5.068  19.950  0.00  0.00    +0.000 OA
ATOM     11  C   UNL     1       7.783   6.569  18.399  0.00  0.00    +0.000 C 
ATOM     12  C   UNL     1       7.364   7.083  17.248  0.00  0.00    +0.000 C 
ATOM     13  C   UNL     1       6.020   6.556  16.980  0.00  0.00    +0.000 C 
ATOM     14  O   UNL     1       5.394   6.908  15.995  0.00  0.00    +0.000 OA
ENDBRANCH   6   8
TORSDOF 1
ENDMDL
MODEL 6
REMARK VINA RESULT:      -6.7      2.434      4.750
REMARK  Name = 
REMARK  2 active torsions:
REMARK  status: ('A' for Active; 'I' for Inactive)
REMARK    1  A    between atoms: C_1  and  C_2
REMARK    2  A    between atoms: C_6  and  N_7
REMARK                            x       y       z     vdW  Elec       q    Type
REMARK                         _______ _______ _______ _____ _____    ______ ____
ROOT
ATOM      1  C   UNL     1       1.896   2.812  21.394  0.00  0.00    +0.000 C 
ATOM      2  C   UNL     1       2.383   3.978  20.584  0.00  0.00    +0.000 A 
ATOM      3  C   UNL     1       1.703   5.197  20.597  0.00  0.00    +0.000 A 
ATOM      4  C   UNL     1       2.201   6.277  19.876  0.00  0.00    +0.000 A 
ATOM      5  C   UNL     1       3.387   6.150  19.144  0.00  0.00    +0.000 A 
ATOM      6  C   UNL     1       4.085   4.935  19.095  0.00  0.00    +0.000 A 
ATOM      7  C   UNL     1       3.557   3.854  19.820  0.00  0.00    +0.000 A 
ENDROOT
BRANCH   6   8
ATOM      8  N   UNL     1       5.291   4.806  18.350  0.00  0.00    +0.000 N 
ATOM      9  C   UNL     1       6.550   5.048  18.829  0.00  0.00    +0.000 C 
ATOM     10  O   UNL     1       6.943   5.380  19.934  0.00  0.00    +0.000 OA
ATOM     11  C   UNL     1       7.497   4.779  17.741  0.00  0.00    +0.000 C 
ATOM     12  C   UNL     1       6.798   4.399  16.676  0.00  0.00    +0.000 C 
ATOM     13  C   UNL     1       5.376   4.409  17.042  0.00  0.00    +0.000 C 
ATOM     14  O   UNL     1       4.517   4.136  16.221  0.00  0.00    +0.000 OA
ENDBRANCH   6   8
TORSDOF 1
ENDMDL
MODEL 7
REMARK VINA RESULT:      -6.7      2.637      4.993
REMARK  Name = 
REMARK  2 active torsions:
REMARK  status: ('A' for Active; 'I' for Inactive)
REMARK    1  A    between atoms: C_1  and  C_2
REMARK    2  A    between atoms: C_6  and  N_7
REMARK                            x       y       z     vdW  Elec       q    Type
REMARK                         _______ _______ _______ _____ _____    ______ ____
ROOT
ATOM      1  C   UNL     1       3.375   1.597  18.312  0.00  0.00    +0.000 C 
ATOM      2  C   UNL     1       3.360   3.097  18.278  0.00  0.00    +0.000 A 
ATOM      3  C   UNL     1       2.167   3.808  18.422  0.00  0.00    +0.000 A 
ATOM      4  C   UNL     1       2.184   5.199  18.435  0.00  0.00    +0.000 A 
ATOM      5  C   UNL     1       3.394   5.890  18.313  0.00  0.00    +0.000 A 
ATOM      6  C   UNL     1       4.609   5.207  18.148  0.00  0.00    +0.000 A 
ATOM      7  C   UNL     1       4.566   3.804  18.125  0.00  0.00    +0.000 A 
ENDROOT
BRANCH   6   8
ATOM      8  N   UNL     1       5.840   5.911  18.023  0.00  0.00    +0.000 N 
ATOM      9  C   UNL     1       6.201   6.697  16.962  0.00  0.00    +0.000 C 
ATOM     10  O   UNL     1       5.602   7.003  15.945  0.00  0.00    +0.000 OA
ATOM     11  C   UNL     1       7.533   7.241  17.247  0.00  0.00    +0.000 C 
ATOM     12  C   UNL     1       7.920   6.775  18.430  0.00  0.00    +0.000 C 
ATOM     13  C   UNL     1       6.848   5.916  18.950  0.00  0.00    +0.000 C 
ATOM     14  O   UNL     1       6.974   5.331  20.012  0.00  0.00    +0.000 OA
ENDBRANCH   6   8
TORSDOF 1
ENDMDL
MODEL 8
REMARK VINA RESULT:      -6.6      1.575      2.231
REMARK  Name = 
REMARK  2 active torsions:
REMARK  status: ('A' for Active; 'I' for Inactive)
REMARK    1  A    between atoms: C_1  and  C_2
REMARK    2  A    between atoms: C_6  and  N_7
REMARK                            x       y       z     vdW  Elec       q    Type
REMARK                         _______ _______ _______ _____ _____    ______ ____
ROOT
ATOM      1  C   UNL     1       6.453   4.145  14.144  0.00  0.00    +0.000 C 
ATOM      2  C   UNL     1       6.203   4.193  15.623  0.00  0.00    +0.000 A 
ATOM      3  C   UNL     1       7.184   4.653  16.503  0.00  0.00    +0.000 A 
ATOM      4  C   UNL     1       6.913   4.734  17.865  0.00  0.00    +0.000 A 
ATOM      5  C   UNL     1       5.656   4.364  18.357  0.00  0.00    +0.000 A 
ATOM      6  C   UNL     1       4.654   3.881  17.503  0.00  0.00    +0.000 A 
ATOM      7  C   UNL     1       4.955   3.795  16.133  0.00  0.00    +0.000 A 
ENDROOT
BRANCH   6   8
ATOM      8  N   UNL     1       3.376   3.504  18.003  0.00  0.00    +0.000 N 
ATOM      9  C   UNL     1       2.311   4.346  18.175  0.00  0.00    +0.000 C 
ATOM     10  O   UNL     1       2.175   5.535  17.936  0.00  0.00    +0.000 OA
ATOM     11  C   UNL     1       1.194   3.549  18.694  0.00  0.00    +0.000 C 
ATOM     12  C   UNL     1       1.612   2.293  18.817  0.00  0.00    +0.000 C 
ATOM     13  C   UNL     1       3.013   2.238  18.379  0.00  0.00    +0.000 C 
ATOM     14  O   UNL     1       3.645   1.197  18.433  0.00  0.00    +0.000 OA
ENDBRANCH   6   8
TORSDOF 1
ENDMDL
MODEL 9
REMARK VINA RESULT:      -6.6      2.438      5.048
REMARK  Name = 
REMARK  2 active torsions:
REMARK  status: ('A' for Active; 'I' for Inactive)
REMARK    1  A    between atoms: C_1  and  C_2
REMARK    2  A    between atoms: C_6  and  N_7
REMARK                            x       y       z     vdW  Elec       q    Type
REMARK                         _______ _______ _______ _____ _____    ______ ____
ROOT
ATOM      1  C   UNL     1       1.751   2.785  21.203  0.00  0.00    +0.000 C 
ATOM      2  C   UNL     1       2.316   3.969  20.474  0.00  0.00    +0.000 A 
ATOM      3  C   UNL     1       1.697   5.218  20.543  0.00  0.00    +0.000 A 
ATOM      4  C   UNL     1       2.267   6.312  19.898  0.00  0.00    +0.000 A 
ATOM      5  C   UNL     1       3.463   6.167  19.187  0.00  0.00    +0.000 A 
ATOM      6  C   UNL     1       4.101   4.922  19.083  0.00  0.00    +0.000 A 
ATOM      7  C   UNL     1       3.501   3.830  19.731  0.00  0.00    +0.000 A 
ENDROOT
BRANCH   6   8
ATOM      8  N   UNL     1       5.317   4.774  18.359  0.00  0.00    +0.000 N 
ATOM      9  C   UNL     1       5.420   4.394  17.048  0.00  0.00    +0.000 C 
ATOM     10  O   UNL     1       4.568   4.133  16.215  0.00  0.00    +0.000 OA
ATOM     11  C   UNL     1       6.845   4.385  16.699  0.00  0.00    +0.000 C 
ATOM     12  C   UNL     1       7.531   4.745  17.778  0.00  0.00    +0.000 C 
ATOM     13  C   UNL     1       6.572   5.000  18.861  0.00  0.00    +0.000 C 
ATOM     14  O   UNL     1       6.953   5.310  19.976  0.00  0.00    +0.000 OA
ENDBRANCH   6   8
TORSDOF 1
ENDMDL
