MODEL 1
REMARK VINA RESULT:      -9.0      0.000      0.000
REMARK  Name = 
REMARK  8 active torsions:
REMARK  status: ('A' for Active; 'I' for Inactive)
REMARK    1  A    between atoms: C_2  and  C_3
REMARK    2  A    between atoms: C_3  and  O_4
REMARK    3  A    between atoms: O_4  and  C_5
REMARK    4  A    between atoms: C_5  and  C_7
REMARK    5  A    between atoms: C_8  and  C_9
REMARK    6  A    between atoms: C_12  and  S_13
REMARK    7  A    between atoms: S_13  and  N_16
REMARK    8  A    between atoms: N_24  and  C_25
REMARK                            x       y       z     vdW  Elec       q    Type
REMARK                         _______ _______ _______ _____ _____    ______ ____
ROOT
ATOM      1  C   UNL     1      -0.024   9.996  22.529  0.00  0.00    +0.000 C 
ATOM      2  O   UNL     1       0.214   9.785  23.708  0.00  0.00    +0.000 OA
ENDROOT
BRANCH   1   3
ATOM      3  C   UNL     1       0.551   9.251  21.393  0.00  0.00    +0.000 C 
ATOM      4  C   UNL     1       1.030   8.014  21.604  0.00  0.00    +0.000 C 
BRANCH   4   5
ATOM      5  C   UNL     1       1.636   7.142  20.585  0.00  0.00    +0.000 A 
ATOM      6  C   UNL     1       2.231   7.649  19.422  0.00  0.00    +0.000 A 
ATOM      7  C   UNL     1       2.932   6.803  18.550  0.00  0.00    +0.000 A 
ATOM      8  C   UNL     1       3.073   5.444  18.853  0.00  0.00    +0.000 A 
ATOM      9  C   UNL     1       2.400   4.910  19.957  0.00  0.00    +0.000 A 
ATOM     10  C   UNL     1       1.710   5.763  20.831  0.00  0.00    +0.000 A 
BRANCH   8  11
ATOM     11  S   UNL     1       4.009   4.374  17.763  0.00  0.00    +0.000 S 
ATOM     12  O   UNL     1       4.676   3.405  18.608  0.00  0.00    +0.000 OA
ATOM     13  O   UNL     1       3.099   3.950  16.720  0.00  0.00    +0.000 OA
BRANCH  11  14
ATOM     14  N   UNL     1       5.206   5.326  17.033  0.00  0.00    +0.000 NA
ATOM     15  C   UNL     1       5.572   5.114  15.613  0.00  0.00    +0.000 C 
ATOM     16  C   UNL     1       6.713   4.101  15.500  0.00  0.00    +0.000 C 
ATOM     17  O   UNL     1       7.848   4.465  16.302  0.00  0.00    +0.000 OA
ATOM     18  C   UNL     1       7.517   4.731  17.674  0.00  0.00    +0.000 C 
ATOM     19  C   UNL     1       6.393   5.761  17.806  0.00  0.00    +0.000 C 
ENDBRANCH  11  14
ENDBRANCH   8  11
ENDBRANCH   4   5
ENDBRANCH   1   3
BRANCH   1  20
ATOM     20  O   UNL     1      -0.915  10.895  22.050  0.00  0.00    +0.000 OA
BRANCH  20  21
ATOM     21  C   UNL     1      -0.313  12.012  21.389  0.00  0.00    +0.000 C 
BRANCH  21  23
ATOM     22  O   UNL     1       0.037  12.467  19.066  0.00  0.00    +0.000 OA
ATOM     23  C   UNL     1      -0.719  12.019  19.915  0.00  0.00    +0.000 C 
ATOM     24  N   UNL     1      -1.962  11.451  19.668  0.00  0.00    +0.000 N 
ATOM     25  H   UNL     1      -2.544  11.213  20.471  0.00  0.00    +0.000 HD
BRANCH  24  26
ATOM     26  C   UNL     1      -2.498  11.136  18.400  0.00  0.00    +0.000 A 
ATOM     27  C   UNL     1      -1.840  10.314  17.476  0.00  0.00    +0.000 A 
ATOM     28  C   UNL     1      -2.429  10.019  16.243  0.00  0.00    +0.000 A 
ATOM     29  C   UNL     1      -3.674  10.550  15.928  0.00  0.00    +0.000 A 
ATOM     30  F   UNL     1      -4.224  10.267  14.740  0.00  0.00    +0.000 F 
ATOM     31  C   UNL     1      -4.343  11.360  16.835  0.00  0.00    +0.000 A 
ATOM     32  F   UNL     1      -5.542  11.872  16.521  0.00  0.00    +0.000 F 
ATOM     33  C   UNL     1      -3.766  11.638  18.070  0.00  0.00    +0.000 A 
ATOM     34  F   UNL     1      -4.414  12.423  18.944  0.00  0.00    +0.000 F 
ENDBRANCH  24  26
ENDBRANCH  21  23
ENDBRANCH  20  21
ENDBRANCH   1  20
TORSDOF 8
ENDMDL
MODEL 2
REMARK VINA RESULT:      -8.8      0.695      1.099
REMARK  Name = 
REMARK  8 active torsions:
REMARK  status: ('A' for Active; 'I' for Inactive)
REMARK    1  A    between atoms: C_2  and  C_3
REMARK    2  A    between atoms: C_3  and  O_4
REMARK    3  A    between atoms: O_4  and  C_5
REMARK    4  A    between atoms: C_5  and  C_7
REMARK    5  A    between atoms: C_8  and  C_9
REMARK    6  A    between atoms: C_12  and  S_13
REMARK    7  A    between atoms: S_13  and  N_16
REMARK    8  A    between atoms: N_24  and  C_25
REMARK                            x       y       z     vdW  Elec       q    Type
REMARK                         _______ _______ _______ _____ _____    ______ ____
ROOT
ATOM      1  C   UNL     1       0.224   9.735  22.750  0.00  0.00    +0.000 C 
ATOM      2  O   UNL     1       0.025   9.712  23.955  0.00  0.00    +0.000 OA
ENDROOT
BRANCH   1   3
ATOM      3  C   UNL     1       1.259   8.962  22.039  0.00  0.00    +0.000 C 
ATOM      4  C   UNL     1       0.880   8.075  21.105  0.00  0.00    +0.000 C 
BRANCH   4   5
ATOM      5  C   UNL     1       1.780   7.226  20.310  0.00  0.00    +0.000 A 
ATOM      6  C   UNL     1       2.142   5.933  20.713  0.00  0.00    +0.000 A 
ATOM      7  C   UNL     1       2.877   5.096  19.860  0.00  0.00    +0.000 A 
ATOM      8  C   UNL     1       3.228   5.536  18.578  0.00  0.00    +0.000 A 
ATOM      9  C   UNL     1       2.959   6.857  18.205  0.00  0.00    +0.000 A 
ATOM     10  C   UNL     1       2.215   7.684  19.058  0.00  0.00    +0.000 A 
BRANCH   8  11
ATOM     11  S   UNL     1       4.125   4.449  17.472  0.00  0.00    +0.000 S 
ATOM     12  O   UNL     1       5.187   3.849  18.253  0.00  0.00    +0.000 OA
ATOM     13  O   UNL     1       3.133   3.627  16.810  0.00  0.00    +0.000 OA
BRANCH  11  14
ATOM     14  N   UNL     1       4.847   5.422  16.288  0.00  0.00    +0.000 NA
ATOM     15  C   UNL     1       5.463   4.811  15.087  0.00  0.00    +0.000 C 
ATOM     16  C   UNL     1       6.942   4.516  15.336  0.00  0.00    +0.000 C 
ATOM     17  O   UNL     1       7.664   5.675  15.783  0.00  0.00    +0.000 OA
ATOM     18  C   UNL     1       7.061   6.322  16.915  0.00  0.00    +0.000 C 
ATOM     19  C   UNL     1       5.586   6.648  16.673  0.00  0.00    +0.000 C 
ENDBRANCH  11  14
ENDBRANCH   8  11
ENDBRANCH   4   5
ENDBRANCH   1   3
BRANCH   1  20
ATOM     20  O   UNL     1      -0.516  10.409  21.838  0.00  0.00    +0.000 OA
BRANCH  20  21
ATOM     21  C   UNL     1       0.237  11.346  21.060  0.00  0.00    +0.000 C 
BRANCH  21  23
ATOM     22  O   UNL     1      -0.279  12.709  19.163  0.00  0.00    +0.000 OA
ATOM     23  C   UNL     1      -0.528  11.685  19.782  0.00  0.00    +0.000 C 
ATOM     24  N   UNL     1      -1.458  10.725  19.406  0.00  0.00    +0.000 N 
ATOM     25  H   UNL     1      -1.652   9.967  20.062  0.00  0.00    +0.000 HD
BRANCH  24  26
ATOM     26  C   UNL     1      -2.152  10.670  18.177  0.00  0.00    +0.000 A 
ATOM     27  C   UNL     1      -1.751   9.857  17.110  0.00  0.00    +0.000 A 
ATOM     28  C   UNL     1      -2.489   9.828  15.923  0.00  0.00    +0.000 A 
ATOM     29  C   UNL     1      -3.626  10.617  15.798  0.00  0.00    +0.000 A 
ATOM     30  F   UNL     1      -4.320  10.587  14.653  0.00  0.00    +0.000 F 
ATOM     31  C   UNL     1      -4.042  11.423  16.849  0.00  0.00    +0.000 A 
ATOM     32  F   UNL     1      -5.137  12.185  16.718  0.00  0.00    +0.000 F 
ATOM     33  C   UNL     1      -3.318  11.437  18.037  0.00  0.00    +0.000 A 
ATOM     34  F   UNL     1      -3.721  12.220  19.049  0.00  0.00    +0.000 F 
ENDBRANCH  24  26
ENDBRANCH  21  23
ENDBRANCH  20  21
ENDBRANCH   1  20
TORSDOF 8
ENDMDL
MODEL 3
REMARK VINA RESULT:      -8.8      3.785      9.446
REMARK  Name = 
REMARK  8 active torsions:
REMARK  status: ('A' for Active; 'I' for Inactive)
REMARK    1  A    between atoms: C_2  and  C_3
REMARK    2  A    between atoms: C_3  and  O_4
REMARK    3  A    between atoms: O_4  and  C_5
REMARK    4  A    between atoms: C_5  and  C_7
REMARK    5  A    between atoms: C_8  and  C_9
REMARK    6  A    between atoms: C_12  and  S_13
REMARK    7  A    between atoms: S_13  and  N_16
REMARK    8  A    between atoms: N_24  and  C_25
REMARK                            x       y       z     vdW  Elec       q    Type
REMARK                         _______ _______ _______ _____ _____    ______ ____
ROOT
ATOM      1  C   UNL     1       6.135   6.244  16.268  0.00  0.00    +0.000 C 
ATOM      2  O   UNL     1       7.330   6.441  16.113  0.00  0.00    +0.000 OA
ENDROOT
BRANCH   1   3
ATOM      3  C   UNL     1       5.197   7.161  16.943  0.00  0.00    +0.000 C 
ATOM      4  C   UNL     1       4.085   6.656  17.502  0.00  0.00    +0.000 C 
BRANCH   4   5
ATOM      5  C   UNL     1       3.050   7.428  18.207  0.00  0.00    +0.000 A 
ATOM      6  C   UNL     1       2.600   7.084  19.489  0.00  0.00    +0.000 A 
ATOM      7  C   UNL     1       1.726   7.928  20.191  0.00  0.00    +0.000 A 
ATOM      8  C   UNL     1       1.319   9.142  19.627  0.00  0.00    +0.000 A 
ATOM      9  C   UNL     1       1.682   9.447  18.311  0.00  0.00    +0.000 A 
ATOM     10  C   UNL     1       2.565   8.605  17.619  0.00  0.00    +0.000 A 
BRANCH   8  11
ATOM     11  S   UNL     1       0.242  10.240  20.544  0.00  0.00    +0.000 S 
ATOM     12  O   UNL     1      -0.881   9.441  20.988  0.00  0.00    +0.000 OA
ATOM     13  O   UNL     1       1.080  10.939  21.496  0.00  0.00    +0.000 OA
BRANCH  11  14
ATOM     14  N   UNL     1      -0.350  11.392  19.451  0.00  0.00    +0.000 NA
ATOM     15  C   UNL     1       0.258  12.742  19.379  0.00  0.00    +0.000 C 
ATOM     16  C   UNL     1      -0.457  13.701  20.333  0.00  0.00    +0.000 C 
ATOM     17  O   UNL     1      -1.876  13.734  20.112  0.00  0.00    +0.000 OA
ATOM     18  C   UNL     1      -2.487  12.434  20.121  0.00  0.00    +0.000 C 
ATOM     19  C   UNL     1      -1.800  11.469  19.154  0.00  0.00    +0.000 C 
ENDBRANCH  11  14
ENDBRANCH   8  11
ENDBRANCH   4   5
ENDBRANCH   1   3
BRANCH   1  20
ATOM     20  O   UNL     1       5.436   5.191  15.782  0.00  0.00    +0.000 OA
BRANCH  20  21
ATOM     21  C   UNL     1       5.911   3.921  16.241  0.00  0.00    +0.000 C 
BRANCH  21  23
ATOM     22  O   UNL     1       6.154   4.020  18.619  0.00  0.00    +0.000 OA
ATOM     23  C   UNL     1       5.449   3.687  17.679  0.00  0.00    +0.000 C 
ATOM     24  N   UNL     1       4.185   3.120  17.783  0.00  0.00    +0.000 N 
ATOM     25  H   UNL     1       3.742   2.786  16.926  0.00  0.00    +0.000 HD
BRANCH  24  26
ATOM     26  C   UNL     1       3.426   2.985  18.966  0.00  0.00    +0.000 A 
ATOM     27  C   UNL     1       3.894   2.310  20.101  0.00  0.00    +0.000 A 
ATOM     28  C   UNL     1       3.105   2.226  21.252  0.00  0.00    +0.000 A 
ATOM     29  C   UNL     1       1.845   2.810  21.269  0.00  0.00    +0.000 A 
ATOM     30  F   UNL     1       1.096   2.716  22.375  0.00  0.00    +0.000 F 
ATOM     31  C   UNL     1       1.369   3.490  20.156  0.00  0.00    +0.000 A 
ATOM     32  F   UNL     1       0.150   4.047  20.180  0.00  0.00    +0.000 F 
ATOM     33  C   UNL     1       2.161   3.590  19.017  0.00  0.00    +0.000 A 
ATOM     34  F   UNL     1       1.697   4.245  17.942  0.00  0.00    +0.000 F 
ENDBRANCH  24  26
ENDBRANCH  21  23
ENDBRANCH  20  21
ENDBRANCH   1  20
TORSDOF 8
ENDMDL
MODEL 4
REMARK VINA RESULT:      -8.7      7.446     10.529
REMARK  Name = 
REMARK  8 active torsions:
REMARK  status: ('A' for Active; 'I' for Inactive)
REMARK    1  A    between atoms: C_2  and  C_3
REMARK    2  A    between atoms: C_3  and  O_4
REMARK    3  A    between atoms: O_4  and  C_5
REMARK    4  A    between atoms: C_5  and  C_7
REMARK    5  A    between atoms: C_8  and  C_9
REMARK    6  A    between atoms: C_12  and  S_13
REMARK    7  A    between atoms: S_13  and  N_16
REMARK    8  A    between atoms: N_24  and  C_25
REMARK                            x       y       z     vdW  Elec       q    Type
REMARK                         _______ _______ _______ _____ _____    ______ ____
ROOT
ATOM      1  C   UNL     1       7.210   7.006  17.283  0.00  0.00    +0.000 C 
ATOM      2  O   UNL     1       7.852   6.021  17.612  0.00  0.00    +0.000 OA
ENDROOT
BRANCH   1   3
ATOM      3  C   UNL     1       7.693   8.399  17.333  0.00  0.00    +0.000 C 
ATOM      4  C   UNL     1       8.347   8.820  18.427  0.00  0.00    +0.000 C 
BRANCH   4   5
ATOM      5  C   UNL     1       8.888  10.172  18.638  0.00  0.00    +0.000 A 
ATOM      6  C   UNL     1       9.821  10.457  19.644  0.00  0.00    +0.000 A 
ATOM      7  C   UNL     1      10.429  11.720  19.719  0.00  0.00    +0.000 A 
ATOM      8  C   UNL     1      10.132  12.699  18.764  0.00  0.00    +0.000 A 
ATOM      9  C   UNL     1       9.131  12.458  17.818  0.00  0.00    +0.000 A 
ATOM     10  C   UNL     1       8.535  11.191  17.742  0.00  0.00    +0.000 A 
BRANCH   8  11
ATOM     11  S   UNL     1      10.945  14.293  18.833  0.00  0.00    +0.000 S 
ATOM     12  O   UNL     1      12.148  14.110  19.618  0.00  0.00    +0.000 OA
ATOM     13  O   UNL     1      11.014  14.779  17.471  0.00  0.00    +0.000 OA
BRANCH  11  14
ATOM     14  N   UNL     1       9.927  15.340  19.693  0.00  0.00    +0.000 NA
ATOM     15  C   UNL     1       9.957  16.799  19.433  0.00  0.00    +0.000 C 
ATOM     16  C   UNL     1      10.966  17.485  20.356  0.00  0.00    +0.000 C 
ATOM     17  O   UNL     1      10.731  17.187  21.742  0.00  0.00    +0.000 OA
ATOM     18  C   UNL     1      10.642  15.780  22.016  0.00  0.00    +0.000 C 
ATOM     19  C   UNL     1       9.619  15.081  21.120  0.00  0.00    +0.000 C 
ENDBRANCH  11  14
ENDBRANCH   8  11
ENDBRANCH   4   5
ENDBRANCH   1   3
BRANCH   1  20
ATOM     20  O   UNL     1       5.969   6.998  16.740  0.00  0.00    +0.000 OA
BRANCH  20  21
ATOM     21  C   UNL     1       5.688   5.833  15.956  0.00  0.00    +0.000 C 
BRANCH  21  23
ATOM     22  O   UNL     1       5.134   3.653  16.770  0.00  0.00    +0.000 OA
ATOM     23  C   UNL     1       4.865   4.844  16.781  0.00  0.00    +0.000 C 
ATOM     24  N   UNL     1       3.857   5.435  17.532  0.00  0.00    +0.000 N 
ATOM     25  H   UNL     1       3.661   6.424  17.372  0.00  0.00    +0.000 HD
BRANCH  24  26
ATOM     26  C   UNL     1       3.084   4.806  18.533  0.00  0.00    +0.000 A 
ATOM     27  C   UNL     1       3.256   5.056  19.900  0.00  0.00    +0.000 A 
ATOM     28  C   UNL     1       2.447   4.418  20.846  0.00  0.00    +0.000 A 
ATOM     29  C   UNL     1       1.469   3.525  20.427  0.00  0.00    +0.000 A 
ATOM     30  F   UNL     1       0.706   2.914  21.343  0.00  0.00    +0.000 F 
ATOM     31  C   UNL     1       1.279   3.272  19.075  0.00  0.00    +0.000 A 
ATOM     32  F   UNL     1       0.336   2.405  18.680  0.00  0.00    +0.000 F 
ATOM     33  C   UNL     1       2.072   3.921  18.133  0.00  0.00    +0.000 A 
ATOM     34  F   UNL     1       1.888   3.672  16.828  0.00  0.00    +0.000 F 
ENDBRANCH  24  26
ENDBRANCH  21  23
ENDBRANCH  20  21
ENDBRANCH   1  20
TORSDOF 8
ENDMDL
MODEL 5
REMARK VINA RESULT:      -8.7      4.767      9.384
REMARK  Name = 
REMARK  8 active torsions:
REMARK  status: ('A' for Active; 'I' for Inactive)
REMARK    1  A    between atoms: C_2  and  C_3
REMARK    2  A    between atoms: C_3  and  O_4
REMARK    3  A    between atoms: O_4  and  C_5
REMARK    4  A    between atoms: C_5  and  C_7
REMARK    5  A    between atoms: C_8  and  C_9
REMARK    6  A    between atoms: C_12  and  S_13
REMARK    7  A    between atoms: S_13  and  N_16
REMARK    8  A    between atoms: N_24  and  C_25
REMARK                            x       y       z     vdW  Elec       q    Type
REMARK                         _______ _______ _______ _____ _____    ______ ____
ROOT
ATOM      1  C   UNL     1       1.563   2.929  21.254  0.00  0.00    +0.000 C 
ATOM      2  O   UNL     1       1.107   2.479  22.293  0.00  0.00    +0.000 OA
ENDROOT
BRANCH   1   3
ATOM      3  C   UNL     1       1.261   4.259  20.692  0.00  0.00    +0.000 C 
ATOM      4  C   UNL     1       2.148   5.252  20.863  0.00  0.00    +0.000 C 
BRANCH   4   5
ATOM      5  C   UNL     1       2.000   6.632  20.373  0.00  0.00    +0.000 A 
ATOM      6  C   UNL     1       2.412   7.020  19.090  0.00  0.00    +0.000 A 
ATOM      7  C   UNL     1       2.118   8.301  18.601  0.00  0.00    +0.000 A 
ATOM      8  C   UNL     1       1.377   9.196  19.381  0.00  0.00    +0.000 A 
ATOM      9  C   UNL     1       1.047   8.856  20.697  0.00  0.00    +0.000 A 
ATOM     10  C   UNL     1       1.335   7.569  21.176  0.00  0.00    +0.000 A 
BRANCH   8  11
ATOM     11  S   UNL     1       0.960  10.815  18.736  0.00  0.00    +0.000 S 
ATOM     12  O   UNL     1       2.122  11.282  18.009  0.00  0.00    +0.000 OA
ATOM     13  O   UNL     1      -0.323  10.678  18.079  0.00  0.00    +0.000 OA
BRANCH  11  14
ATOM     14  N   UNL     1       0.740  11.843  20.065  0.00  0.00    +0.000 NA
ATOM     15  C   UNL     1      -0.618  12.290  20.452  0.00  0.00    +0.000 C 
ATOM     16  C   UNL     1      -0.972  13.599  19.745  0.00  0.00    +0.000 C 
ATOM     17  O   UNL     1       0.014  14.621  19.960  0.00  0.00    +0.000 OA
ATOM     18  C   UNL     1       1.350  14.200  19.644  0.00  0.00    +0.000 C 
ATOM     19  C   UNL     1       1.731  12.905  20.363  0.00  0.00    +0.000 C 
ENDBRANCH  11  14
ENDBRANCH   8  11
ENDBRANCH   4   5
ENDBRANCH   1   3
BRANCH   1  20
ATOM     20  O   UNL     1       2.487   2.327  20.468  0.00  0.00    +0.000 OA
BRANCH  20  21
ATOM     21  C   UNL     1       2.141   2.307  19.079  0.00  0.00    +0.000 C 
BRANCH  21  23
ATOM     22  O   UNL     1       3.953   1.400  17.807  0.00  0.00    +0.000 OA
ATOM     23  C   UNL     1       3.408   2.408  18.231  0.00  0.00    +0.000 C 
ATOM     24  N   UNL     1       3.820   3.711  17.981  0.00  0.00    +0.000 N 
ATOM     25  H   UNL     1       3.346   4.464  18.480  0.00  0.00    +0.000 HD
BRANCH  24  26
ATOM     26  C   UNL     1       4.822   4.108  17.068  0.00  0.00    +0.000 A 
ATOM     27  C   UNL     1       4.921   3.591  15.770  0.00  0.00    +0.000 A 
ATOM     28  C   UNL     1       5.922   4.038  14.903  0.00  0.00    +0.000 A 
ATOM     29  C   UNL     1       6.830   4.998  15.333  0.00  0.00    +0.000 A 
ATOM     30  F   UNL     1       7.790   5.412  14.495  0.00  0.00    +0.000 F 
ATOM     31  C   UNL     1       6.741   5.527  16.613  0.00  0.00    +0.000 A 
ATOM     32  F   UNL     1       7.624   6.449  17.022  0.00  0.00    +0.000 F 
ATOM     33  C   UNL     1       5.733   5.097  17.470  0.00  0.00    +0.000 A 
ATOM     34  F   UNL     1       5.652   5.608  18.708  0.00  0.00    +0.000 F 
ENDBRANCH  24  26
ENDBRANCH  21  23
ENDBRANCH  20  21
ENDBRANCH   1  20
TORSDOF 8
ENDMDL
MODEL 6
REMARK VINA RESULT:      -8.7      6.925     10.394
REMARK  Name = 
REMARK  8 active torsions:
REMARK  status: ('A' for Active; 'I' for Inactive)
REMARK    1  A    between atoms: C_2  and  C_3
REMARK    2  A    between atoms: C_3  and  O_4
REMARK    3  A    between atoms: O_4  and  C_5
REMARK    4  A    between atoms: C_5  and  C_7
REMARK    5  A    between atoms: C_8  and  C_9
REMARK    6  A    between atoms: C_12  and  S_13
REMARK    7  A    between atoms: S_13  and  N_16
REMARK    8  A    between atoms: N_24  and  C_25
REMARK                            x       y       z     vdW  Elec       q    Type
REMARK                         _______ _______ _______ _____ _____    ______ ____
ROOT
ATOM      1  C   UNL     1       7.167   6.634  17.451  0.00  0.00    +0.000 C 
ATOM      2  O   UNL     1       7.169   5.896  18.423  0.00  0.00    +0.000 OA
ENDROOT
BRANCH   1   3
ATOM      3  C   UNL     1       7.533   8.063  17.462  0.00  0.00    +0.000 C 
ATOM      4  C   UNL     1       8.389   8.507  18.395  0.00  0.00    +0.000 C 
BRANCH   4   5
ATOM      5  C   UNL     1       8.852   9.896  18.546  0.00  0.00    +0.000 A 
ATOM      6  C   UNL     1       8.550  10.894  17.609  0.00  0.00    +0.000 A 
ATOM      7  C   UNL     1       8.877  12.234  17.861  0.00  0.00    +0.000 A 
ATOM      8  C   UNL     1       9.480  12.594  19.072  0.00  0.00    +0.000 A 
ATOM      9  C   UNL     1       9.875  11.596  19.969  0.00  0.00    +0.000 A 
ATOM     10  C   UNL     1       9.536  10.259  19.716  0.00  0.00    +0.000 A 
BRANCH   8  11
ATOM     11  S   UNL     1       9.853  14.313  19.412  0.00  0.00    +0.000 S 
ATOM     12  O   UNL     1      10.373  14.363  20.763  0.00  0.00    +0.000 OA
ATOM     13  O   UNL     1      10.637  14.793  18.294  0.00  0.00    +0.000 OA
BRANCH  11  14
ATOM     14  N   UNL     1       8.383  15.157  19.399  0.00  0.00    +0.000 NA
ATOM     15  C   UNL     1       7.997  15.973  18.223  0.00  0.00    +0.000 C 
ATOM     16  C   UNL     1       8.491  17.411  18.385  0.00  0.00    +0.000 C 
ATOM     17  O   UNL     1       8.058  18.003  19.620  0.00  0.00    +0.000 OA
ATOM     18  C   UNL     1       8.371  17.208  20.775  0.00  0.00    +0.000 C 
ATOM     19  C   UNL     1       7.860  15.772  20.642  0.00  0.00    +0.000 C 
ENDBRANCH  11  14
ENDBRANCH   8  11
ENDBRANCH   4   5
ENDBRANCH   1   3
BRANCH   1  20
ATOM     20  O   UNL     1       6.909   6.264  16.175  0.00  0.00    +0.000 OA
BRANCH  20  21
ATOM     21  C   UNL     1       5.514   6.226  15.854  0.00  0.00    +0.000 C 
BRANCH  21  23
ATOM     22  O   UNL     1       5.168   3.878  16.158  0.00  0.00    +0.000 OA
ATOM     23  C   UNL     1       4.867   5.008  16.512  0.00  0.00    +0.000 C 
ATOM     24  N   UNL     1       3.976   5.321  17.531  0.00  0.00    +0.000 N 
ATOM     25  H   UNL     1       3.726   6.302  17.660  0.00  0.00    +0.000 HD
BRANCH  24  26
ATOM     26  C   UNL     1       3.396   4.410  18.441  0.00  0.00    +0.000 A 
ATOM     27  C   UNL     1       4.115   3.811  19.484  0.00  0.00    +0.000 A 
ATOM     28  C   UNL     1       3.482   2.932  20.368  0.00  0.00    +0.000 A 
ATOM     29  C   UNL     1       2.132   2.645  20.209  0.00  0.00    +0.000 A 
ATOM     30  F   UNL     1       1.540   1.795  21.057  0.00  0.00    +0.000 F 
ATOM     31  C   UNL     1       1.403   3.237  19.186  0.00  0.00    +0.000 A 
ATOM     32  F   UNL     1       0.102   2.951  19.037  0.00  0.00    +0.000 F 
ATOM     33  C   UNL     1       2.028   4.126  18.318  0.00  0.00    +0.000 A 
ATOM     34  F   UNL     1       1.321   4.695  17.329  0.00  0.00    +0.000 F 
ENDBRANCH  24  26
ENDBRANCH  21  23
ENDBRANCH  20  21
ENDBRANCH   1  20
TORSDOF 8
ENDMDL
MODEL 7
REMARK VINA RESULT:      -8.6      7.698     10.650
REMARK  Name = 
REMARK  8 active torsions:
REMARK  status: ('A' for Active; 'I' for Inactive)
REMARK    1  A    between atoms: C_2  and  C_3
REMARK    2  A    between atoms: C_3  and  O_4
REMARK    3  A    between atoms: O_4  and  C_5
REMARK    4  A    between atoms: C_5  and  C_7
REMARK    5  A    between atoms: C_8  and  C_9
REMARK    6  A    between atoms: C_12  and  S_13
REMARK    7  A    between atoms: S_13  and  N_16
REMARK    8  A    between atoms: N_24  and  C_25
REMARK                            x       y       z     vdW  Elec       q    Type
REMARK                         _______ _______ _______ _____ _____    ______ ____
ROOT
ATOM      1  C   UNL     1       7.198   6.865  17.213  0.00  0.00    +0.000 C 
ATOM      2  O   UNL     1       7.825   5.939  17.702  0.00  0.00    +0.000 OA
ENDROOT
BRANCH   1   3
ATOM      3  C   UNL     1       7.448   8.297  17.466  0.00  0.00    +0.000 C 
ATOM      4  C   UNL     1       8.470   8.646  18.263  0.00  0.00    +0.000 C 
BRANCH   4   5
ATOM      5  C   UNL     1       8.852  10.022  18.619  0.00  0.00    +0.000 A 
ATOM      6  C   UNL     1       9.413  10.346  19.862  0.00  0.00    +0.000 A 
ATOM      7  C   UNL     1       9.904  11.637  20.110  0.00  0.00    +0.000 A 
ATOM      8  C   UNL     1       9.868  12.607  19.102  0.00  0.00    +0.000 A 
ATOM      9  C   UNL     1       9.221  12.323  17.895  0.00  0.00    +0.000 A 
ATOM     10  C   UNL     1       8.742  11.028  17.649  0.00  0.00    +0.000 A 
BRANCH   8  11
ATOM     11  S   UNL     1      10.540  14.240  19.404  0.00  0.00    +0.000 S 
ATOM     12  O   UNL     1      10.148  14.605  20.750  0.00  0.00    +0.000 OA
ATOM     13  O   UNL     1      11.936  14.187  19.025  0.00  0.00    +0.000 OA
BRANCH  11  14
ATOM     14  N   UNL     1       9.766  15.306  18.339  0.00  0.00    +0.000 NA
ATOM     15  C   UNL     1      10.476  15.824  17.146  0.00  0.00    +0.000 C 
ATOM     16  C   UNL     1      11.195  17.132  17.478  0.00  0.00    +0.000 C 
ATOM     17  O   UNL     1      10.314  18.112  18.049  0.00  0.00    +0.000 OA
ATOM     18  C   UNL     1       9.570  17.623  19.176  0.00  0.00    +0.000 C 
ATOM     19  C   UNL     1       8.822  16.327  18.854  0.00  0.00    +0.000 C 
ENDBRANCH  11  14
ENDBRANCH   8  11
ENDBRANCH   4   5
ENDBRANCH   1   3
BRANCH   1  20
ATOM     20  O   UNL     1       6.214   6.755  16.290  0.00  0.00    +0.000 OA
BRANCH  20  21
ATOM     21  C   UNL     1       4.921   7.130  16.775  0.00  0.00    +0.000 C 
BRANCH  21  23
ATOM     22  O   UNL     1       4.165   4.861  16.701  0.00  0.00    +0.000 OA
ATOM     23  C   UNL     1       4.206   5.902  17.339  0.00  0.00    +0.000 C 
ATOM     24  N   UNL     1       3.675   6.090  18.609  0.00  0.00    +0.000 N 
ATOM     25  H   UNL     1       3.679   7.036  18.991  0.00  0.00    +0.000 HD
BRANCH  24  26
ATOM     26  C   UNL     1       3.152   5.084  19.451  0.00  0.00    +0.000 A 
ATOM     27  C   UNL     1       1.828   5.084  19.908  0.00  0.00    +0.000 A 
ATOM     28  C   UNL     1       1.359   4.050  20.724  0.00  0.00    +0.000 A 
ATOM     29  C   UNL     1       2.214   3.018  21.089  0.00  0.00    +0.000 A 
ATOM     30  F   UNL     1       1.755   2.037  21.878  0.00  0.00    +0.000 F 
ATOM     31  C   UNL     1       3.526   2.998  20.639  0.00  0.00    +0.000 A 
ATOM     32  F   UNL     1       4.346   2.000  21.001  0.00  0.00    +0.000 F 
ATOM     33  C   UNL     1       3.988   4.017  19.811  0.00  0.00    +0.000 A 
ATOM     34  F   UNL     1       5.258   3.996  19.380  0.00  0.00    +0.000 F 
ENDBRANCH  24  26
ENDBRANCH  21  23
ENDBRANCH  20  21
ENDBRANCH   1  20
TORSDOF 8
ENDMDL
MODEL 8
REMARK VINA RESULT:      -8.6      4.909      9.477
REMARK  Name = 
REMARK  8 active torsions:
REMARK  status: ('A' for Active; 'I' for Inactive)
REMARK    1  A    between atoms: C_2  and  C_3
REMARK    2  A    between atoms: C_3  and  O_4
REMARK    3  A    between atoms: O_4  and  C_5
REMARK    4  A    between atoms: C_5  and  C_7
REMARK    5  A    between atoms: C_8  and  C_9
REMARK    6  A    between atoms: C_12  and  S_13
REMARK    7  A    between atoms: S_13  and  N_16
REMARK    8  A    between atoms: N_24  and  C_25
REMARK                            x       y       z     vdW  Elec       q    Type
REMARK                         _______ _______ _______ _____ _____    ______ ____
ROOT
ATOM      1  C   UNL     1       1.678   3.257  20.389  0.00  0.00    +0.000 C 
ATOM      2  O   UNL     1       2.415   2.769  21.230  0.00  0.00    +0.000 OA
ENDROOT
BRANCH   1   3
ATOM      3  C   UNL     1       1.184   4.647  20.386  0.00  0.00    +0.000 C 
ATOM      4  C   UNL     1       2.073   5.652  20.433  0.00  0.00    +0.000 C 
BRANCH   4   5
ATOM      5  C   UNL     1       1.749   7.087  20.441  0.00  0.00    +0.000 A 
ATOM      6  C   UNL     1       1.859   7.888  19.296  0.00  0.00    +0.000 A 
ATOM      7  C   UNL     1       1.398   9.213  19.301  0.00  0.00    +0.000 A 
ATOM      8  C   UNL     1       0.790   9.739  20.446  0.00  0.00    +0.000 A 
ATOM      9  C   UNL     1       0.764   8.983  21.623  0.00  0.00    +0.000 A 
ATOM     10  C   UNL     1       1.217   7.656  21.607  0.00  0.00    +0.000 A 
BRANCH   8  11
ATOM     11  S   UNL     1       0.157  11.414  20.436  0.00  0.00    +0.000 S 
ATOM     12  O   UNL     1      -1.286  11.312  20.376  0.00  0.00    +0.000 OA
ATOM     13  O   UNL     1       0.809  12.107  21.528  0.00  0.00    +0.000 OA
BRANCH  11  14
ATOM     14  N   UNL     1       0.679  12.139  18.995  0.00  0.00    +0.000 NA
ATOM     15  C   UNL     1       2.077  12.610  18.854  0.00  0.00    +0.000 C 
ATOM     16  C   UNL     1       2.196  14.069  19.295  0.00  0.00    +0.000 C 
ATOM     17  O   UNL     1       1.267  14.925  18.611  0.00  0.00    +0.000 OA
ATOM     18  C   UNL     1      -0.092  14.465  18.684  0.00  0.00    +0.000 C 
ATOM     19  C   UNL     1      -0.234  13.014  18.222  0.00  0.00    +0.000 C 
ENDBRANCH  11  14
ENDBRANCH   8  11
ENDBRANCH   4   5
ENDBRANCH   1   3
BRANCH   1  20
ATOM     20  O   UNL     1       1.242   2.641  19.264  0.00  0.00    +0.000 OA
BRANCH  20  21
ATOM     21  C   UNL     1       2.292   2.092  18.462  0.00  0.00    +0.000 C 
BRANCH  21  23
ATOM     22  O   UNL     1       2.529   4.028  17.077  0.00  0.00    +0.000 OA
ATOM     23  C   UNL     1       3.085   3.222  17.807  0.00  0.00    +0.000 C 
ATOM     24  N   UNL     1       4.430   3.245  18.154  0.00  0.00    +0.000 N 
ATOM     25  H   UNL     1       4.798   2.455  18.684  0.00  0.00    +0.000 HD
BRANCH  24  26
ATOM     26  C   UNL     1       5.347   4.282  17.872  0.00  0.00    +0.000 A 
ATOM     27  C   UNL     1       5.715   5.252  18.812  0.00  0.00    +0.000 A 
ATOM     28  C   UNL     1       6.644   6.243  18.482  0.00  0.00    +0.000 A 
ATOM     29  C   UNL     1       7.203   6.270  17.210  0.00  0.00    +0.000 A 
ATOM     30  F   UNL     1       8.085   7.229  16.903  0.00  0.00    +0.000 F 
ATOM     31  C   UNL     1       6.856   5.310  16.269  0.00  0.00    +0.000 A 
ATOM     32  F   UNL     1       7.395   5.346  15.042  0.00  0.00    +0.000 F 
ATOM     33  C   UNL     1       5.945   4.313  16.603  0.00  0.00    +0.000 A 
ATOM     34  F   UNL     1       5.609   3.389  15.690  0.00  0.00    +0.000 F 
ENDBRANCH  24  26
ENDBRANCH  21  23
ENDBRANCH  20  21
ENDBRANCH   1  20
TORSDOF 8
ENDMDL
MODEL 9
REMARK VINA RESULT:      -8.6      4.877      9.802
REMARK  Name = 
REMARK  8 active torsions:
REMARK  status: ('A' for Active; 'I' for Inactive)
REMARK    1  A    between atoms: C_2  and  C_3
REMARK    2  A    between atoms: C_3  and  O_4
REMARK    3  A    between atoms: O_4  and  C_5
REMARK    4  A    between atoms: C_5  and  C_7
REMARK    5  A    between atoms: C_8  and  C_9
REMARK    6  A    between atoms: C_12  and  S_13
REMARK    7  A    between atoms: S_13  and  N_16
REMARK    8  A    between atoms: N_24  and  C_25
REMARK                            x       y       z     vdW  Elec       q    Type
REMARK                         _______ _______ _______ _____ _____    ______ ____
ROOT
ATOM      1  C   UNL     1       1.720   3.254  20.417  0.00  0.00    +0.000 C 
ATOM      2  O   UNL     1       2.510   2.776  21.216  0.00  0.00    +0.000 OA
ENDROOT
BRANCH   1   3
ATOM      3  C   UNL     1       1.265   4.657  20.398  0.00  0.00    +0.000 C 
ATOM      4  C   UNL     1       2.180   5.634  20.285  0.00  0.00    +0.000 C 
BRANCH   4   5
ATOM      5  C   UNL     1       1.896   7.077  20.254  0.00  0.00    +0.000 A 
ATOM      6  C   UNL     1       1.966   7.830  19.074  0.00  0.00    +0.000 A 
ATOM      7  C   UNL     1       1.542   9.167  19.051  0.00  0.00    +0.000 A 
ATOM      8  C   UNL     1       1.013   9.754  20.206  0.00  0.00    +0.000 A 
ATOM      9  C   UNL     1       1.031   9.045  21.411  0.00  0.00    +0.000 A 
ATOM     10  C   UNL     1       1.445   7.705  21.424  0.00  0.00    +0.000 A 
BRANCH   8  11
ATOM     11  S   UNL     1       0.427  11.447  20.163  0.00  0.00    +0.000 S 
ATOM     12  O   UNL     1       1.353  12.224  20.960  0.00  0.00    +0.000 OA
ATOM     13  O   UNL     1       0.195  11.767  18.771  0.00  0.00    +0.000 OA
BRANCH  11  14
ATOM     14  N   UNL     1      -1.075  11.478  20.947  0.00  0.00    +0.000 NA
ATOM     15  C   UNL     1      -2.219  12.206  20.349  0.00  0.00    +0.000 C 
ATOM     16  C   UNL     1      -2.252  13.652  20.847  0.00  0.00    +0.000 C 
ATOM     17  O   UNL     1      -2.247  13.737  22.281  0.00  0.00    +0.000 OA
ATOM     18  C   UNL     1      -1.180  12.997  22.893  0.00  0.00    +0.000 C 
ATOM     19  C   UNL     1      -1.148  11.540  22.426  0.00  0.00    +0.000 C 
ENDBRANCH  11  14
ENDBRANCH   8  11
ENDBRANCH   4   5
ENDBRANCH   1   3
BRANCH   1  20
ATOM     20  O   UNL     1       1.177   2.608  19.358  0.00  0.00    +0.000 OA
BRANCH  20  21
ATOM     21  C   UNL     1       2.141   1.984  18.504  0.00  0.00    +0.000 C 
BRANCH  21  23
ATOM     22  O   UNL     1       2.458   3.747  16.918  0.00  0.00    +0.000 OA
ATOM     23  C   UNL     1       2.964   3.054  17.787  0.00  0.00    +0.000 C 
ATOM     24  N   UNL     1       4.270   3.165  18.245  0.00  0.00    +0.000 N 
ATOM     25  H   UNL     1       4.607   2.457  18.899  0.00  0.00    +0.000 HD
BRANCH  24  26
ATOM     26  C   UNL     1       5.185   4.191  17.919  0.00  0.00    +0.000 A 
ATOM     27  C   UNL     1       5.484   5.250  18.785  0.00  0.00    +0.000 A 
ATOM     28  C   UNL     1       6.414   6.227  18.417  0.00  0.00    +0.000 A 
ATOM     29  C   UNL     1       7.042   6.150  17.180  0.00  0.00    +0.000 A 
ATOM     30  F   UNL     1       7.925   7.097  16.835  0.00  0.00    +0.000 F 
ATOM     31  C   UNL     1       6.763   5.102  16.313  0.00  0.00    +0.000 A 
ATOM     32  F   UNL     1       7.370   5.039  15.119  0.00  0.00    +0.000 F 
ATOM     33  C   UNL     1       5.852   4.120  16.687  0.00  0.00    +0.000 A 
ATOM     34  F   UNL     1       5.582   3.110  15.846  0.00  0.00    +0.000 F 
ENDBRANCH  24  26
ENDBRANCH  21  23
ENDBRANCH  20  21
ENDBRANCH   1  20
TORSDOF 8
ENDMDL
