MODEL 1
REMARK VINA RESULT:      -8.4      0.000      0.000
REMARK  Name = 
REMARK  5 active torsions:
REMARK  status: ('A' for Active; 'I' for Inactive)
REMARK    1  A    between atoms: C_1  and  C_2
REMARK    2  A    between atoms: C_2  and  C_3
REMARK    3  A    between atoms: C_3  and  N_4
REMARK    4  A    between atoms: N_13  and  C_14
REMARK    5  A    between atoms: C_23  and  C_24
REMARK                            x       y       z     vdW  Elec       q    Type
REMARK                         _______ _______ _______ _____ _____    ______ ____
ROOT
ATOM      1  N   UNL     1      -1.757  14.507  23.102  0.00  0.00    +0.000 N 
ATOM      2  C   UNL     1      -2.120  14.268  21.799  0.00  0.00    +0.000 A 
ATOM      3  C   UNL     1      -1.552  13.068  21.517  0.00  0.00    +0.000 A 
ATOM      4  C   UNL     1      -0.870  12.642  22.658  0.00  0.00    +0.000 A 
ATOM      5  N   UNL     1      -0.158  11.413  22.732  0.00  0.00    +0.000 NA
ATOM      6  C   UNL     1      -0.211  10.674  21.648  0.00  0.00    +0.000 A 
ATOM      7  N   UNL     1       0.487   9.470  21.600  0.00  0.00    +0.000 N 
ATOM      8  C   UNL     1       1.138   8.953  20.481  0.00  0.00    +0.000 C 
ATOM      9  O   UNL     1       1.365   9.617  19.479  0.00  0.00    +0.000 OA
ATOM     10  N   UNL     1       1.554   7.641  20.682  0.00  0.00    +0.000 N 
ATOM     11  N   UNL     1      -0.962  11.000  20.490  0.00  0.00    +0.000 N 
ATOM     12  N   UNL     1      -1.354  10.184  19.480  0.00  0.00    +0.000 NA
ATOM     13  C   UNL     1      -1.997  11.059  18.679  0.00  0.00    +0.000 A 
ATOM     14  N   UNL     1      -2.189  12.315  19.215  0.00  0.00    +0.000 NA
ATOM     15  C   UNL     1      -1.595  12.201  20.361  0.00  0.00    +0.000 A 
ATOM     16  N   UNL     1      -0.993  13.517  23.649  0.00  0.00    +0.000 NA
ATOM     17  H   UNL     1       0.958   9.262  22.466  0.00  0.00    +0.000 HD
ATOM     18  H   UNL     1       1.029   7.113  21.365  0.00  0.00    +0.000 HD
ENDROOT
BRANCH  10  19
ATOM     19  C   UNL     1       2.271   6.888  19.717  0.00  0.00    +0.000 A 
ATOM     20  C   UNL     1       2.833   7.471  18.575  0.00  0.00    +0.000 A 
ATOM     21  C   UNL     1       3.520   6.690  17.637  0.00  0.00    +0.000 A 
ATOM     22  C   UNL     1       3.636   5.317  17.830  0.00  0.00    +0.000 A 
ATOM     23 CL   UNL     1       4.458   4.353  16.666  0.00  0.00    +0.000 Cl
ATOM     24  C   UNL     1       3.086   4.723  18.963  0.00  0.00    +0.000 A 
ATOM     25  C   UNL     1       2.425   5.510  19.917  0.00  0.00    +0.000 A 
ENDBRANCH  10  19
BRANCH  13  26
ATOM     26  C   UNL     1      -2.511  10.731  17.322  0.00  0.00    +0.000 A 
ATOM     27  C   UNL     1      -3.580  11.327  16.685  0.00  0.00    +0.000 A 
ATOM     28  C   UNL     1      -3.707  10.689  15.428  0.00  0.00    +0.000 A 
ATOM     29  C   UNL     1      -2.722   9.734  15.380  0.00  0.00    +0.000 A 
ATOM     30  O   UNL     1      -1.975   9.767  16.511  0.00  0.00    +0.000 OA
ENDBRANCH  13  26
BRANCH   1  31
ATOM     31  C   UNL     1      -2.173  15.667  23.870  0.00  0.00    +0.000 C 
BRANCH  31  33
ATOM     32  C   UNL     1      -1.277  16.017  26.230  0.00  0.00    +0.000 C 
ATOM     33  C   UNL     1      -2.365  15.401  25.360  0.00  0.00    +0.000 C 
ENDBRANCH  31  33
ENDBRANCH   1  31
TORSDOF 4
ENDMDL
MODEL 2
REMARK VINA RESULT:      -8.3      0.745      1.058
REMARK  Name = 
REMARK  5 active torsions:
REMARK  status: ('A' for Active; 'I' for Inactive)
REMARK    1  A    between atoms: C_1  and  C_2
REMARK    2  A    between atoms: C_2  and  C_3
REMARK    3  A    between atoms: C_3  and  N_4
REMARK    4  A    between atoms: N_13  and  C_14
REMARK    5  A    between atoms: C_23  and  C_24
REMARK                            x       y       z     vdW  Elec       q    Type
REMARK                         _______ _______ _______ _____ _____    ______ ____
ROOT
ATOM      1  N   UNL     1      -1.640  14.612  22.973  0.00  0.00    +0.000 N 
ATOM      2  C   UNL     1      -2.011  14.355  21.675  0.00  0.00    +0.000 A 
ATOM      3  C   UNL     1      -1.468  13.138  21.416  0.00  0.00    +0.000 A 
ATOM      4  C   UNL     1      -0.791  12.721  22.565  0.00  0.00    +0.000 A 
ATOM      5  N   UNL     1      -0.105  11.480  22.661  0.00  0.00    +0.000 NA
ATOM      6  C   UNL     1      -0.175  10.721  21.593  0.00  0.00    +0.000 A 
ATOM      7  N   UNL     1       0.499   9.503  21.567  0.00  0.00    +0.000 N 
ATOM      8  C   UNL     1       1.137   8.950  20.458  0.00  0.00    +0.000 C 
ATOM      9  O   UNL     1       1.374   9.589  19.442  0.00  0.00    +0.000 OA
ATOM     10  N   UNL     1       1.527   7.634  20.684  0.00  0.00    +0.000 N 
ATOM     11  N   UNL     1      -0.922  11.038  20.430  0.00  0.00    +0.000 N 
ATOM     12  N   UNL     1      -1.333  10.210  19.437  0.00  0.00    +0.000 NA
ATOM     13  C   UNL     1      -1.960  11.082  18.621  0.00  0.00    +0.000 A 
ATOM     14  N   UNL     1      -2.126  12.352  19.132  0.00  0.00    +0.000 NA
ATOM     15  C   UNL     1      -1.531  12.249  20.278  0.00  0.00    +0.000 A 
ATOM     16  N   UNL     1      -0.894  13.618  23.538  0.00  0.00    +0.000 NA
ATOM     17  H   UNL     1       0.967   9.302  22.437  0.00  0.00    +0.000 HD
ATOM     18  H   UNL     1       0.993   7.131  21.379  0.00  0.00    +0.000 HD
ENDROOT
BRANCH  10  19
ATOM     19  C   UNL     1       2.226   6.848  19.732  0.00  0.00    +0.000 A 
ATOM     20  C   UNL     1       2.859   7.406  18.615  0.00  0.00    +0.000 A 
ATOM     21  C   UNL     1       3.526   6.593  17.690  0.00  0.00    +0.000 A 
ATOM     22  C   UNL     1       3.550   5.214  17.870  0.00  0.00    +0.000 A 
ATOM     23 CL   UNL     1       4.348   4.212  16.721  0.00  0.00    +0.000 Cl
ATOM     24  C   UNL     1       2.929   4.644  18.979  0.00  0.00    +0.000 A 
ATOM     25  C   UNL     1       2.288   5.461  19.921  0.00  0.00    +0.000 A 
ENDBRANCH  10  19
BRANCH  13  26
ATOM     26  C   UNL     1      -2.484  10.737  17.272  0.00  0.00    +0.000 A 
ATOM     27  C   UNL     1      -2.052   9.705  16.464  0.00  0.00    +0.000 A 
ATOM     28  C   UNL     1      -2.825   9.768  15.280  0.00  0.00    +0.000 A 
ATOM     29  C   UNL     1      -3.669  10.841  15.429  0.00  0.00    +0.000 A 
ATOM     30  O   UNL     1      -3.489  11.420  16.642  0.00  0.00    +0.000 OA
ENDBRANCH  13  26
BRANCH   1  31
ATOM     31  C   UNL     1      -2.031  15.796  23.719  0.00  0.00    +0.000 C 
BRANCH  31  33
ATOM     32  C   UNL     1      -4.522  15.614  24.227  0.00  0.00    +0.000 C 
ATOM     33  C   UNL     1      -3.437  16.301  23.408  0.00  0.00    +0.000 C 
ENDBRANCH  31  33
ENDBRANCH   1  31
TORSDOF 4
ENDMDL
MODEL 3
REMARK VINA RESULT:      -7.9      0.699      1.214
REMARK  Name = 
REMARK  5 active torsions:
REMARK  status: ('A' for Active; 'I' for Inactive)
REMARK    1  A    between atoms: C_1  and  C_2
REMARK    2  A    between atoms: C_2  and  C_3
REMARK    3  A    between atoms: C_3  and  N_4
REMARK    4  A    between atoms: N_13  and  C_14
REMARK    5  A    between atoms: C_23  and  C_24
REMARK                            x       y       z     vdW  Elec       q    Type
REMARK                         _______ _______ _______ _____ _____    ______ ____
ROOT
ATOM      1  N   UNL     1      -1.503  14.849  22.918  0.00  0.00    +0.000 N 
ATOM      2  C   UNL     1      -1.899  14.568  21.633  0.00  0.00    +0.000 A 
ATOM      3  C   UNL     1      -1.386  13.334  21.396  0.00  0.00    +0.000 A 
ATOM      4  C   UNL     1      -0.700  12.931  22.545  0.00  0.00    +0.000 A 
ATOM      5  N   UNL     1      -0.038  11.679  22.662  0.00  0.00    +0.000 NA
ATOM      6  C   UNL     1      -0.141  10.895  21.615  0.00  0.00    +0.000 A 
ATOM      7  N   UNL     1       0.507   9.662  21.610  0.00  0.00    +0.000 N 
ATOM      8  C   UNL     1       1.116   9.069  20.506  0.00  0.00    +0.000 C 
ATOM      9  O   UNL     1       1.351   9.676  19.470  0.00  0.00    +0.000 OA
ATOM     10  N   UNL     1       1.482   7.750  20.759  0.00  0.00    +0.000 N 
ATOM     11  N   UNL     1      -0.899  11.199  20.455  0.00  0.00    +0.000 N 
ATOM     12  N   UNL     1      -1.343  10.355  19.490  0.00  0.00    +0.000 NA
ATOM     13  C   UNL     1      -1.963  11.219  18.661  0.00  0.00    +0.000 A 
ATOM     14  N   UNL     1      -2.095  12.505  19.143  0.00  0.00    +0.000 NA
ATOM     15  C   UNL     1      -1.485  12.419  20.282  0.00  0.00    +0.000 A 
ATOM     16  N   UNL     1      -0.770  13.855  23.497  0.00  0.00    +0.000 NA
ATOM     17  H   UNL     1       0.984   9.473  22.477  0.00  0.00    +0.000 HD
ATOM     18  H   UNL     1       0.948   7.276  21.474  0.00  0.00    +0.000 HD
ENDROOT
BRANCH  10  19
ATOM     19  C   UNL     1       2.150   6.926  19.817  0.00  0.00    +0.000 A 
ATOM     20  C   UNL     1       2.279   5.543  19.986  0.00  0.00    +0.000 A 
ATOM     21  C   UNL     1       2.960   4.767  19.040  0.00  0.00    +0.000 A 
ATOM     22  C   UNL     1       3.530   5.375  17.926  0.00  0.00    +0.000 A 
ATOM     23 CL   UNL     1       4.389   4.426  16.775  0.00  0.00    +0.000 Cl
ATOM     24  C   UNL     1       3.406   6.750  17.741  0.00  0.00    +0.000 A 
ATOM     25  C   UNL     1       2.697   7.522  18.672  0.00  0.00    +0.000 A 
ENDBRANCH  10  19
BRANCH  13  26
ATOM     26  C   UNL     1      -2.516  10.852  17.329  0.00  0.00    +0.000 A 
ATOM     27  C   UNL     1      -2.055   9.851  16.499  0.00  0.00    +0.000 A 
ATOM     28  C   UNL     1      -2.872   9.876  15.344  0.00  0.00    +0.000 A 
ATOM     29  C   UNL     1      -3.770  10.898  15.531  0.00  0.00    +0.000 A 
ATOM     30  O   UNL     1      -3.580  11.480  16.741  0.00  0.00    +0.000 OA
ENDBRANCH  13  26
BRANCH   1  31
ATOM     31  C   UNL     1      -1.857  16.060  23.639  0.00  0.00    +0.000 C 
BRANCH  31  33
ATOM     32  C   UNL     1       0.066  17.078  24.965  0.00  0.00    +0.000 C 
ATOM     33  C   UNL     1      -1.181  16.204  24.999  0.00  0.00    +0.000 C 
ENDBRANCH  31  33
ENDBRANCH   1  31
TORSDOF 4
ENDMDL
MODEL 4
REMARK VINA RESULT:      -7.5      2.479      2.743
REMARK  Name = 
REMARK  5 active torsions:
REMARK  status: ('A' for Active; 'I' for Inactive)
REMARK    1  A    between atoms: C_1  and  C_2
REMARK    2  A    between atoms: C_2  and  C_3
REMARK    3  A    between atoms: C_3  and  N_4
REMARK    4  A    between atoms: N_13  and  C_14
REMARK    5  A    between atoms: C_23  and  C_24
REMARK                            x       y       z     vdW  Elec       q    Type
REMARK                         _______ _______ _______ _____ _____    ______ ____
ROOT
ATOM      1  N   UNL     1       1.088  15.599  20.980  0.00  0.00    +0.000 N 
ATOM      2  C   UNL     1       0.339  15.140  19.923  0.00  0.00    +0.000 A 
ATOM      3  C   UNL     1       0.459  13.789  20.002  0.00  0.00    +0.000 A 
ATOM      4  C   UNL     1       1.277  13.498  21.096  0.00  0.00    +0.000 A 
ATOM      5  N   UNL     1       1.616  12.175  21.489  0.00  0.00    +0.000 NA
ATOM      6  C   UNL     1       1.075  11.223  20.764  0.00  0.00    +0.000 A 
ATOM      7  N   UNL     1       1.376   9.892  21.038  0.00  0.00    +0.000 N 
ATOM      8  C   UNL     1       1.537   8.884  20.090  0.00  0.00    +0.000 C 
ATOM      9  O   UNL     1       1.662   9.110  18.894  0.00  0.00    +0.000 OA
ATOM     10  N   UNL     1       1.615   7.624  20.677  0.00  0.00    +0.000 N 
ATOM     11  N   UNL     1       0.162  11.444  19.701  0.00  0.00    +0.000 N 
ATOM     12  N   UNL     1      -0.694  10.563  19.126  0.00  0.00    +0.000 NA
ATOM     13  C   UNL     1      -1.261  11.339  18.180  0.00  0.00    +0.000 A 
ATOM     14  N   UNL     1      -0.951  12.680  18.255  0.00  0.00    +0.000 NA
ATOM     15  C   UNL     1      -0.127  12.700  19.255  0.00  0.00    +0.000 A 
ATOM     16  N   UNL     1       1.668  14.606  21.715  0.00  0.00    +0.000 NA
ATOM     17  H   UNL     1       1.985   9.790  21.835  0.00  0.00    +0.000 HD
ATOM     18  H   UNL     1       1.167   7.532  21.578  0.00  0.00    +0.000 HD
ENDROOT
BRANCH  10  19
ATOM     19  C   UNL     1       1.813   6.427  19.943  0.00  0.00    +0.000 A 
ATOM     20  C   UNL     1       2.524   6.392  18.738  0.00  0.00    +0.000 A 
ATOM     21  C   UNL     1       2.684   5.191  18.035  0.00  0.00    +0.000 A 
ATOM     22  C   UNL     1       2.118   4.020  18.528  0.00  0.00    +0.000 A 
ATOM     23 CL   UNL     1       2.292   2.548  17.653  0.00  0.00    +0.000 Cl
ATOM     24  C   UNL     1       1.411   4.037  19.728  0.00  0.00    +0.000 A 
ATOM     25  C   UNL     1       1.278   5.233  20.447  0.00  0.00    +0.000 A 
ENDBRANCH  10  19
BRANCH  13  26
ATOM     26  C   UNL     1      -2.189  10.836  17.130  0.00  0.00    +0.000 A 
ATOM     27  C   UNL     1      -2.024   9.698  16.368  0.00  0.00    +0.000 A 
ATOM     28  C   UNL     1      -3.140   9.628  15.501  0.00  0.00    +0.000 A 
ATOM     29  C   UNL     1      -3.909  10.733  15.774  0.00  0.00    +0.000 A 
ATOM     30  O   UNL     1      -3.356  11.459  16.776  0.00  0.00    +0.000 OA
ENDBRANCH  13  26
BRANCH   1  31
ATOM     31  C   UNL     1       1.227  17.000  21.338  0.00  0.00    +0.000 C 
BRANCH  31  33
ATOM     32  C   UNL     1       3.510  17.362  20.265  0.00  0.00    +0.000 C 
ATOM     33  C   UNL     1       2.669  17.461  21.531  0.00  0.00    +0.000 C 
ENDBRANCH  31  33
ENDBRANCH   1  31
TORSDOF 4
ENDMDL
MODEL 5
REMARK VINA RESULT:      -7.5      2.047      2.258
REMARK  Name = 
REMARK  5 active torsions:
REMARK  status: ('A' for Active; 'I' for Inactive)
REMARK    1  A    between atoms: C_1  and  C_2
REMARK    2  A    between atoms: C_2  and  C_3
REMARK    3  A    between atoms: C_3  and  N_4
REMARK    4  A    between atoms: N_13  and  C_14
REMARK    5  A    between atoms: C_23  and  C_24
REMARK                            x       y       z     vdW  Elec       q    Type
REMARK                         _______ _______ _______ _____ _____    ______ ____
ROOT
ATOM      1  N   UNL     1       0.831  15.583  21.233  0.00  0.00    +0.000 N 
ATOM      2  C   UNL     1       0.107  15.137  20.154  0.00  0.00    +0.000 A 
ATOM      3  C   UNL     1       0.263  13.789  20.192  0.00  0.00    +0.000 A 
ATOM      4  C   UNL     1       1.076  13.485  21.287  0.00  0.00    +0.000 A 
ATOM      5  N   UNL     1       1.447  12.160  21.642  0.00  0.00    +0.000 NA
ATOM      6  C   UNL     1       0.941  11.218  20.881  0.00  0.00    +0.000 A 
ATOM      7  N   UNL     1       1.276   9.887  21.118  0.00  0.00    +0.000 N 
ATOM      8  C   UNL     1       1.475   8.914  20.141  0.00  0.00    +0.000 C 
ATOM      9  O   UNL     1       1.607   9.181  18.954  0.00  0.00    +0.000 OA
ATOM     10  N   UNL     1       1.580   7.639  20.689  0.00  0.00    +0.000 N 
ATOM     11  N   UNL     1       0.034  11.447  19.815  0.00  0.00    +0.000 N 
ATOM     12  N   UNL     1      -0.790  10.561  19.202  0.00  0.00    +0.000 NA
ATOM     13  C   UNL     1      -1.367  11.351  18.272  0.00  0.00    +0.000 A 
ATOM     14  N   UNL     1      -1.095  12.698  18.393  0.00  0.00    +0.000 NA
ATOM     15  C   UNL     1      -0.283  12.708  19.404  0.00  0.00    +0.000 A 
ATOM     16  N   UNL     1       1.429  14.584  21.945  0.00  0.00    +0.000 NA
ATOM     17  H   UNL     1       1.877   9.777  21.919  0.00  0.00    +0.000 HD
ATOM     18  H   UNL     1       1.124   7.507  21.581  0.00  0.00    +0.000 HD
ENDROOT
BRANCH  10  19
ATOM     19  C   UNL     1       1.820   6.471  19.921  0.00  0.00    +0.000 A 
ATOM     20  C   UNL     1       2.500   6.502  18.697  0.00  0.00    +0.000 A 
ATOM     21  C   UNL     1       2.702   5.328  17.961  0.00  0.00    +0.000 A 
ATOM     22  C   UNL     1       2.210   4.117  18.439  0.00  0.00    +0.000 A 
ATOM     23 CL   UNL     1       2.436   2.678  17.523  0.00  0.00    +0.000 Cl
ATOM     24  C   UNL     1       1.536   4.069  19.656  0.00  0.00    +0.000 A 
ATOM     25  C   UNL     1       1.361   5.240  20.408  0.00  0.00    +0.000 A 
ENDBRANCH  10  19
BRANCH  13  26
ATOM     26  C   UNL     1      -2.268  10.857  17.196  0.00  0.00    +0.000 A 
ATOM     27  C   UNL     1      -2.067   9.743  16.407  0.00  0.00    +0.000 A 
ATOM     28  C   UNL     1      -3.169   9.673  15.521  0.00  0.00    +0.000 A 
ATOM     29  C   UNL     1      -3.965  10.753  15.811  0.00  0.00    +0.000 A 
ATOM     30  O   UNL     1      -3.442  11.464  16.840  0.00  0.00    +0.000 OA
ENDBRANCH  13  26
BRANCH   1  31
ATOM     31  C   UNL     1       0.927  16.975  21.637  0.00  0.00    +0.000 C 
BRANCH  31  33
ATOM     32  C   UNL     1      -1.205  18.239  22.228  0.00  0.00    +0.000 C 
ATOM     33  C   UNL     1      -0.213  17.857  21.138  0.00  0.00    +0.000 C 
ENDBRANCH  31  33
ENDBRANCH   1  31
TORSDOF 4
ENDMDL
MODEL 6
REMARK VINA RESULT:      -7.5      4.527      8.897
REMARK  Name = 
REMARK  5 active torsions:
REMARK  status: ('A' for Active; 'I' for Inactive)
REMARK    1  A    between atoms: C_1  and  C_2
REMARK    2  A    between atoms: C_2  and  C_3
REMARK    3  A    between atoms: C_3  and  N_4
REMARK    4  A    between atoms: N_13  and  C_14
REMARK    5  A    between atoms: C_23  and  C_24
REMARK                            x       y       z     vdW  Elec       q    Type
REMARK                         _______ _______ _______ _____ _____    ______ ____
ROOT
ATOM      1  N   UNL     1       1.716   7.471  20.263  0.00  0.00    +0.000 N 
ATOM      2  C   UNL     1       1.789   8.679  19.611  0.00  0.00    +0.000 A 
ATOM      3  C   UNL     1       0.988   9.494  20.344  0.00  0.00    +0.000 A 
ATOM      4  C   UNL     1       0.466   8.741  21.399  0.00  0.00    +0.000 A 
ATOM      5  N   UNL     1      -0.413   9.273  22.381  0.00  0.00    +0.000 NA
ATOM      6  C   UNL     1      -0.683  10.551  22.250  0.00  0.00    +0.000 A 
ATOM      7  N   UNL     1      -1.567  11.162  23.136  0.00  0.00    +0.000 N 
ATOM      8  C   UNL     1      -2.489  12.154  22.807  0.00  0.00    +0.000 C 
ATOM      9  O   UNL     1      -2.784  12.432  21.653  0.00  0.00    +0.000 OA
ATOM     10  N   UNL     1      -3.072  12.718  23.938  0.00  0.00    +0.000 N 
ATOM     11  N   UNL     1      -0.115  11.396  21.263  0.00  0.00    +0.000 N 
ATOM     12  N   UNL     1      -0.055  12.751  21.242  0.00  0.00    +0.000 NA
ATOM     13  C   UNL     1       0.564  12.961  20.063  0.00  0.00    +0.000 A 
ATOM     14  N   UNL     1       1.057  11.830  19.447  0.00  0.00    +0.000 NA
ATOM     15  C   UNL     1       0.673  10.902  20.265  0.00  0.00    +0.000 A 
ATOM     16  N   UNL     1       0.913   7.490  21.366  0.00  0.00    +0.000 NA
ATOM     17  H   UNL     1      -1.898  10.531  23.848  0.00  0.00    +0.000 HD
ATOM     18  H   UNL     1      -2.525  12.667  24.785  0.00  0.00    +0.000 HD
ENDROOT
BRANCH  10  19
ATOM     19  C   UNL     1      -4.069  13.726  23.887  0.00  0.00    +0.000 A 
ATOM     20  C   UNL     1      -5.424  13.435  23.689  0.00  0.00    +0.000 A 
ATOM     21  C   UNL     1      -6.375  14.462  23.630  0.00  0.00    +0.000 A 
ATOM     22  C   UNL     1      -5.973  15.788  23.753  0.00  0.00    +0.000 A 
ATOM     23 CL   UNL     1      -7.137  17.051  23.655  0.00  0.00    +0.000 Cl
ATOM     24  C   UNL     1      -4.629  16.093  23.955  0.00  0.00    +0.000 A 
ATOM     25  C   UNL     1      -3.681  15.064  24.046  0.00  0.00    +0.000 A 
ENDBRANCH  10  19
BRANCH  13  26
ATOM     26  C   UNL     1       0.759  14.302  19.446  0.00  0.00    +0.000 A 
ATOM     27  C   UNL     1       1.966  14.889  19.127  0.00  0.00    +0.000 A 
ATOM     28  C   UNL     1       1.664  16.158  18.577  0.00  0.00    +0.000 A 
ATOM     29  C   UNL     1       0.296  16.275  18.608  0.00  0.00    +0.000 A 
ATOM     30  O   UNL     1      -0.264  15.147  19.110  0.00  0.00    +0.000 OA
ENDBRANCH  13  26
BRANCH   1  31
ATOM     31  C   UNL     1       2.452   6.282  19.871  0.00  0.00    +0.000 C 
BRANCH  31  33
ATOM     32  C   UNL     1       1.175   4.103  20.207  0.00  0.00    +0.000 C 
ATOM     33  C   UNL     1       2.212   5.069  20.764  0.00  0.00    +0.000 C 
ENDBRANCH  31  33
ENDBRANCH   1  31
TORSDOF 4
ENDMDL
MODEL 7
REMARK VINA RESULT:      -7.5      4.518      8.859
REMARK  Name = 
REMARK  5 active torsions:
REMARK  status: ('A' for Active; 'I' for Inactive)
REMARK    1  A    between atoms: C_1  and  C_2
REMARK    2  A    between atoms: C_2  and  C_3
REMARK    3  A    between atoms: C_3  and  N_4
REMARK    4  A    between atoms: N_13  and  C_14
REMARK    5  A    between atoms: C_23  and  C_24
REMARK                            x       y       z     vdW  Elec       q    Type
REMARK                         _______ _______ _______ _____ _____    ______ ____
ROOT
ATOM      1  N   UNL     1       1.661   7.317  20.300  0.00  0.00    +0.000 N 
ATOM      2  C   UNL     1       1.782   8.520  19.648  0.00  0.00    +0.000 A 
ATOM      3  C   UNL     1       0.997   9.361  20.368  0.00  0.00    +0.000 A 
ATOM      4  C   UNL     1       0.435   8.627  21.416  0.00  0.00    +0.000 A 
ATOM      5  N   UNL     1      -0.441   9.189  22.383  0.00  0.00    +0.000 NA
ATOM      6  C   UNL     1      -0.668  10.474  22.248  0.00  0.00    +0.000 A 
ATOM      7  N   UNL     1      -1.546  11.115  23.119  0.00  0.00    +0.000 N 
ATOM      8  C   UNL     1      -2.431  12.135  22.776  0.00  0.00    +0.000 C 
ATOM      9  O   UNL     1      -2.699  12.420  21.616  0.00  0.00    +0.000 OA
ATOM     10  N   UNL     1      -3.013  12.719  23.897  0.00  0.00    +0.000 N 
ATOM     11  N   UNL     1      -0.058  11.299  21.268  0.00  0.00    +0.000 N 
ATOM     12  N   UNL     1       0.045  12.652  21.247  0.00  0.00    +0.000 NA
ATOM     13  C   UNL     1       0.689  12.840  20.077  0.00  0.00    +0.000 A 
ATOM     14  N   UNL     1       1.154  11.693  19.470  0.00  0.00    +0.000 NA
ATOM     15  C   UNL     1       0.728  10.779  20.283  0.00  0.00    +0.000 A 
ATOM     16  N   UNL     1       0.842   7.363  21.391  0.00  0.00    +0.000 NA
ATOM     17  H   UNL     1      -1.908  10.496  23.827  0.00  0.00    +0.000 HD
ATOM     18  H   UNL     1      -2.480  12.652  24.753  0.00  0.00    +0.000 HD
ENDROOT
BRANCH  10  19
ATOM     19  C   UNL     1      -3.976  13.758  23.830  0.00  0.00    +0.000 A 
ATOM     20  C   UNL     1      -3.626  15.112  23.881  0.00  0.00    +0.000 A 
ATOM     21  C   UNL     1      -4.610  16.108  23.827  0.00  0.00    +0.000 A 
ATOM     22  C   UNL     1      -5.952  15.753  23.739  0.00  0.00    +0.000 A 
ATOM     23 CL   UNL     1      -7.163  16.975  23.699  0.00  0.00    +0.000 Cl
ATOM     24  C   UNL     1      -6.316  14.409  23.684  0.00  0.00    +0.000 A 
ATOM     25  C   UNL     1      -5.329  13.414  23.705  0.00  0.00    +0.000 A 
ENDBRANCH  10  19
BRANCH  13  26
ATOM     26  C   UNL     1       0.935  14.173  19.463  0.00  0.00    +0.000 A 
ATOM     27  C   UNL     1       0.005  15.176  19.280  0.00  0.00    +0.000 A 
ATOM     28  C   UNL     1       0.684  16.246  18.652  0.00  0.00    +0.000 A 
ATOM     29  C   UNL     1       1.981  15.829  18.475  0.00  0.00    +0.000 A 
ATOM     30  O   UNL     1       2.150  14.584  18.985  0.00  0.00    +0.000 OA
ENDBRANCH  13  26
BRANCH   1  31
ATOM     31  C   UNL     1       2.365   6.104  19.921  0.00  0.00    +0.000 C 
BRANCH  31  33
ATOM     32  C   UNL     1       1.066   3.942  20.289  0.00  0.00    +0.000 C 
ATOM     33  C   UNL     1       2.105   4.912  20.837  0.00  0.00    +0.000 C 
ENDBRANCH  31  33
ENDBRANCH   1  31
TORSDOF 4
ENDMDL
MODEL 8
REMARK VINA RESULT:      -7.4      4.249      8.798
REMARK  Name = 
REMARK  5 active torsions:
REMARK  status: ('A' for Active; 'I' for Inactive)
REMARK    1  A    between atoms: C_1  and  C_2
REMARK    2  A    between atoms: C_2  and  C_3
REMARK    3  A    between atoms: C_3  and  N_4
REMARK    4  A    between atoms: N_13  and  C_14
REMARK    5  A    between atoms: C_23  and  C_24
REMARK                            x       y       z     vdW  Elec       q    Type
REMARK                         _______ _______ _______ _____ _____    ______ ____
ROOT
ATOM      1  N   UNL     1       2.593   7.263  18.429  0.00  0.00    +0.000 N 
ATOM      2  C   UNL     1       2.628   8.557  17.967  0.00  0.00    +0.000 A 
ATOM      3  C   UNL     1       1.932   9.255  18.901  0.00  0.00    +0.000 A 
ATOM      4  C   UNL     1       1.506   8.352  19.877  0.00  0.00    +0.000 A 
ATOM      5  N   UNL     1       0.751   8.733  21.019  0.00  0.00    +0.000 NA
ATOM      6  C   UNL     1       0.502  10.018  21.119  0.00  0.00    +0.000 A 
ATOM      7  N   UNL     1      -0.266  10.492  22.179  0.00  0.00    +0.000 N 
ATOM      8  C   UNL     1      -1.190  11.532  22.111  0.00  0.00    +0.000 C 
ATOM      9  O   UNL     1      -1.599  11.990  21.052  0.00  0.00    +0.000 OA
ATOM     10  N   UNL     1      -1.635  11.917  23.372  0.00  0.00    +0.000 N 
ATOM     11  N   UNL     1       0.985  11.001  20.218  0.00  0.00    +0.000 N 
ATOM     12  N   UNL     1       1.078  12.342  20.400  0.00  0.00    +0.000 NA
ATOM     13  C   UNL     1       1.575  12.728  19.207  0.00  0.00    +0.000 A 
ATOM     14  N   UNL     1       1.969  11.702  18.374  0.00  0.00    +0.000 NA
ATOM     15  C   UNL     1       1.649  10.661  19.076  0.00  0.00    +0.000 A 
ATOM     16  N   UNL     1       1.912   7.117  19.603  0.00  0.00    +0.000 NA
ATOM     17  H   UNL     1      -0.536   9.760  22.817  0.00  0.00    +0.000 HD
ATOM     18  H   UNL     1      -1.002  11.729  24.136  0.00  0.00    +0.000 HD
ENDROOT
BRANCH  10  19
ATOM     19  C   UNL     1      -2.604  12.931  23.587  0.00  0.00    +0.000 A 
ATOM     20  C   UNL     1      -3.978  12.666  23.605  0.00  0.00    +0.000 A 
ATOM     21  C   UNL     1      -4.903  13.698  23.805  0.00  0.00    +0.000 A 
ATOM     22  C   UNL     1      -4.458  15.005  23.972  0.00  0.00    +0.000 A 
ATOM     23 CL   UNL     1      -5.595  16.278  24.193  0.00  0.00    +0.000 Cl
ATOM     24  C   UNL     1      -3.093  15.285  23.961  0.00  0.00    +0.000 A 
ATOM     25  C   UNL     1      -2.166  14.246  23.792  0.00  0.00    +0.000 A 
ENDBRANCH  10  19
BRANCH  13  26
ATOM     26  C   UNL     1       1.739  14.146  18.788  0.00  0.00    +0.000 A 
ATOM     27  C   UNL     1       2.837  14.692  18.156  0.00  0.00    +0.000 A 
ATOM     28  C   UNL     1       2.552  16.065  17.965  0.00  0.00    +0.000 A 
ATOM     29  C   UNL     1       1.307  16.278  18.503  0.00  0.00    +0.000 A 
ATOM     30  O   UNL     1       0.794  15.118  18.982  0.00  0.00    +0.000 OA
ENDBRANCH  13  26
BRANCH   1  31
ATOM     31  C   UNL     1       3.251   6.142  17.780  0.00  0.00    +0.000 C 
BRANCH  31  33
ATOM     32  C   UNL     1       1.745   4.091  17.653  0.00  0.00    +0.000 C 
ATOM     33  C   UNL     1       2.900   4.779  18.368  0.00  0.00    +0.000 C 
ENDBRANCH  31  33
ENDBRANCH   1  31
TORSDOF 4
ENDMDL
MODEL 9
REMARK VINA RESULT:      -7.4      2.107      2.476
REMARK  Name = 
REMARK  5 active torsions:
REMARK  status: ('A' for Active; 'I' for Inactive)
REMARK    1  A    between atoms: C_1  and  C_2
REMARK    2  A    between atoms: C_2  and  C_3
REMARK    3  A    between atoms: C_3  and  N_4
REMARK    4  A    between atoms: N_13  and  C_14
REMARK    5  A    between atoms: C_23  and  C_24
REMARK                            x       y       z     vdW  Elec       q    Type
REMARK                         _______ _______ _______ _____ _____    ______ ____
ROOT
ATOM      1  N   UNL     1       0.983  15.726  20.627  0.00  0.00    +0.000 N 
ATOM      2  C   UNL     1       0.240  15.206  19.594  0.00  0.00    +0.000 A 
ATOM      3  C   UNL     1       0.371  13.863  19.745  0.00  0.00    +0.000 A 
ATOM      4  C   UNL     1       1.189  13.636  20.854  0.00  0.00    +0.000 A 
ATOM      5  N   UNL     1       1.538  12.338  21.317  0.00  0.00    +0.000 NA
ATOM      6  C   UNL     1       1.007  11.346  20.642  0.00  0.00    +0.000 A 
ATOM      7  N   UNL     1       1.319  10.033  20.986  0.00  0.00    +0.000 N 
ATOM      8  C   UNL     1       1.490   8.978  20.093  0.00  0.00    +0.000 C 
ATOM      9  O   UNL     1       1.616   9.142  18.887  0.00  0.00    +0.000 OA
ATOM     10  N   UNL     1       1.577   7.752  20.746  0.00  0.00    +0.000 N 
ATOM     11  N   UNL     1       0.095  11.502  19.567  0.00  0.00    +0.000 N 
ATOM     12  N   UNL     1      -0.752  10.585  19.037  0.00  0.00    +0.000 NA
ATOM     13  C   UNL     1      -1.323  11.305  18.050  0.00  0.00    +0.000 A 
ATOM     14  N   UNL     1      -1.024  12.651  18.055  0.00  0.00    +0.000 NA
ATOM     15  C   UNL     1      -0.203  12.731  19.054  0.00  0.00    +0.000 A 
ATOM     16  N   UNL     1       1.569  14.778  21.415  0.00  0.00    +0.000 NA
ATOM     17  H   UNL     1       1.926   9.978  21.789  0.00  0.00    +0.000 HD
ATOM     18  H   UNL     1       1.127   7.703  21.649  0.00  0.00    +0.000 HD
ENDROOT
BRANCH  10  19
ATOM     19  C   UNL     1       1.787   6.519  20.076  0.00  0.00    +0.000 A 
ATOM     20  C   UNL     1       1.288   5.305  20.561  0.00  0.00    +0.000 A 
ATOM     21  C   UNL     1       1.531   4.107  19.877  0.00  0.00    +0.000 A 
ATOM     22  C   UNL     1       2.289   4.116  18.711  0.00  0.00    +0.000 A 
ATOM     23 CL   UNL     1       2.610   2.641  17.884  0.00  0.00    +0.000 Cl
ATOM     24  C   UNL     1       2.789   5.317  18.213  0.00  0.00    +0.000 A 
ATOM     25  C   UNL     1       2.519   6.519  18.881  0.00  0.00    +0.000 A 
ENDBRANCH  10  19
BRANCH  13  26
ATOM     26  C   UNL     1      -2.244  10.741  17.026  0.00  0.00    +0.000 A 
ATOM     27  C   UNL     1      -3.124   9.693  17.204  0.00  0.00    +0.000 A 
ATOM     28  C   UNL     1      -3.777   9.499  15.964  0.00  0.00    +0.000 A 
ATOM     29  C   UNL     1      -3.247  10.427  15.101  0.00  0.00    +0.000 A 
ATOM     30  O   UNL     1      -2.336  11.201  15.740  0.00  0.00    +0.000 OA
ENDBRANCH  13  26
BRANCH   1  31
ATOM     31  C   UNL     1       1.110  17.145  20.912  0.00  0.00    +0.000 C 
BRANCH  31  33
ATOM     32  C   UNL     1      -0.839  16.970  22.545  0.00  0.00    +0.000 C 
ATOM     33  C   UNL     1      -0.158  17.794  21.459  0.00  0.00    +0.000 C 
ENDBRANCH  31  33
ENDBRANCH   1  31
TORSDOF 4
ENDMDL
