MODEL 1
REMARK VINA RESULT:      -9.4      0.000      0.000
REMARK  Name = 
REMARK  2 active torsions:
REMARK  status: ('A' for Active; 'I' for Inactive)
REMARK    1  A    between atoms: C_4  and  C_5
REMARK    2  A    between atoms: C_13  and  C_15
REMARK                            x       y       z     vdW  Elec       q    Type
REMARK                         _______ _______ _______ _____ _____    ______ ____
ROOT
ATOM      1  N   UNL     1       7.572   6.971  18.299  0.00  0.00    +0.000 N 
ATOM      2  C   UNL     1       7.193   6.044  17.400  0.00  0.00    +0.000 A 
ATOM      3  N   UNL     1       7.468   6.055  16.120  0.00  0.00    +0.000 NA
ATOM      4  C   UNL     1       6.775   4.972  15.617  0.00  0.00    +0.000 A 
ATOM      5  N   UNL     1       6.086   4.290  16.548  0.00  0.00    +0.000 NA
ATOM      6  N   UNL     1       6.365   4.968  17.687  0.00  0.00    +0.000 N 
ATOM      7  C   UNL     1       5.808   4.580  18.921  0.00  0.00    +0.000 C 
ATOM      8  O   UNL     1       6.324   5.043  19.939  0.00  0.00    +0.000 OA
ATOM      9  H   UNL     1       8.272   7.654  18.033  0.00  0.00    +0.000 HD
ATOM     10  H   UNL     1       7.512   6.769  19.298  0.00  0.00    +0.000 HD
ENDROOT
BRANCH   7  11
ATOM     11  C   UNL     1       4.585   3.724  19.037  0.00  0.00    +0.000 A 
ATOM     12  C   UNL     1       4.684   2.413  18.534  0.00  0.00    +0.000 A 
ATOM     13  C   UNL     1       3.574   1.580  18.502  0.00  0.00    +0.000 A 
ATOM     14  C   UNL     1       2.349   2.051  18.957  0.00  0.00    +0.000 A 
ATOM     15  C   UNL     1       2.217   3.352  19.469  0.00  0.00    +0.000 A 
ATOM     16  C   UNL     1       0.961   3.788  19.918  0.00  0.00    +0.000 A 
ATOM     17  C   UNL     1       0.791   5.067  20.439  0.00  0.00    +0.000 A 
ATOM     18  C   UNL     1       1.878   5.927  20.519  0.00  0.00    +0.000 A 
ATOM     19  C   UNL     1       3.136   5.510  20.067  0.00  0.00    +0.000 A 
ATOM     20  C   UNL     1       3.343   4.217  19.521  0.00  0.00    +0.000 A 
ENDBRANCH   7  11
BRANCH   4  21
ATOM     21  C   UNL     1       6.770   4.645  14.184  0.00  0.00    +0.000 A 
ATOM     22  C   UNL     1       5.917   3.660  13.688  0.00  0.00    +0.000 A 
ATOM     23  C   UNL     1       5.967   3.347  12.332  0.00  0.00    +0.000 A 
ATOM     24  C   UNL     1       6.857   4.025  11.508  0.00  0.00    +0.000 A 
ATOM     25  C   UNL     1       7.664   4.996  12.076  0.00  0.00    +0.000 A 
ATOM     26  N   UNL     1       7.643   5.318  13.387  0.00  0.00    +0.000 NA
ENDBRANCH   4  21
TORSDOF 2
ENDMDL
MODEL 2
REMARK VINA RESULT:      -8.8      1.059      2.242
REMARK  Name = 
REMARK  2 active torsions:
REMARK  status: ('A' for Active; 'I' for Inactive)
REMARK    1  A    between atoms: C_4  and  C_5
REMARK    2  A    between atoms: C_13  and  C_15
REMARK                            x       y       z     vdW  Elec       q    Type
REMARK                         _______ _______ _______ _____ _____    ______ ____
ROOT
ATOM      1  N   UNL     1       8.445   4.946  19.030  0.00  0.00    +0.000 N 
ATOM      2  C   UNL     1       7.662   4.715  17.961  0.00  0.00    +0.000 A 
ATOM      3  N   UNL     1       8.056   4.668  16.713  0.00  0.00    +0.000 NA
ATOM      4  C   UNL     1       6.885   4.519  15.995  0.00  0.00    +0.000 A 
ATOM      5  N   UNL     1       5.783   4.467  16.761  0.00  0.00    +0.000 NA
ATOM      6  N   UNL     1       6.281   4.578  18.016  0.00  0.00    +0.000 N 
ATOM      7  C   UNL     1       5.433   4.589  19.140  0.00  0.00    +0.000 C 
ATOM      8  O   UNL     1       5.954   4.396  20.239  0.00  0.00    +0.000 OA
ATOM      9  H   UNL     1       9.452   4.914  18.916  0.00  0.00    +0.000 HD
ATOM     10  H   UNL     1       8.102   4.740  19.969  0.00  0.00    +0.000 HD
ENDROOT
BRANCH   7  11
ATOM     11  C   UNL     1       3.972   4.910  19.062  0.00  0.00    +0.000 A 
ATOM     12  C   UNL     1       3.618   6.267  19.178  0.00  0.00    +0.000 A 
ATOM     13  C   UNL     1       2.284   6.650  19.224  0.00  0.00    +0.000 A 
ATOM     14  C   UNL     1       1.289   5.683  19.169  0.00  0.00    +0.000 A 
ATOM     15  C   UNL     1       1.609   4.320  19.050  0.00  0.00    +0.000 A 
ATOM     16  C   UNL     1       0.573   3.375  18.998  0.00  0.00    +0.000 A 
ATOM     17  C   UNL     1       0.848   2.017  18.872  0.00  0.00    +0.000 A 
ATOM     18  C   UNL     1       2.165   1.587  18.794  0.00  0.00    +0.000 A 
ATOM     19  C   UNL     1       3.210   2.516  18.853  0.00  0.00    +0.000 A 
ATOM     20  C   UNL     1       2.967   3.907  18.990  0.00  0.00    +0.000 A 
ENDBRANCH   7  11
BRANCH   4  21
ATOM     21  C   UNL     1       6.871   4.472  14.525  0.00  0.00    +0.000 A 
ATOM     22  C   UNL     1       6.028   3.586  13.857  0.00  0.00    +0.000 A 
ATOM     23  C   UNL     1       6.068   3.539  12.465  0.00  0.00    +0.000 A 
ATOM     24  C   UNL     1       6.940   4.378  11.780  0.00  0.00    +0.000 A 
ATOM     25  C   UNL     1       7.737   5.235  12.518  0.00  0.00    +0.000 A 
ATOM     26  N   UNL     1       7.725   5.300  13.866  0.00  0.00    +0.000 NA
ENDBRANCH   4  21
TORSDOF 2
ENDMDL
MODEL 3
REMARK VINA RESULT:      -8.7      2.940      7.216
REMARK  Name = 
REMARK  2 active torsions:
REMARK  status: ('A' for Active; 'I' for Inactive)
REMARK    1  A    between atoms: C_4  and  C_5
REMARK    2  A    between atoms: C_13  and  C_15
REMARK                            x       y       z     vdW  Elec       q    Type
REMARK                         _______ _______ _______ _____ _____    ______ ____
ROOT
ATOM      1  N   UNL     1       2.041   2.840  20.141  0.00  0.00    +0.000 N 
ATOM      2  C   UNL     1       2.313   4.158  20.139  0.00  0.00    +0.000 A 
ATOM      3  N   UNL     1       1.458   5.120  20.381  0.00  0.00    +0.000 NA
ATOM      4  C   UNL     1       2.179   6.276  20.151  0.00  0.00    +0.000 A 
ATOM      5  N   UNL     1       3.452   6.056  19.781  0.00  0.00    +0.000 NA
ATOM      6  N   UNL     1       3.539   4.704  19.786  0.00  0.00    +0.000 N 
ATOM      7  C   UNL     1       4.732   4.048  19.427  0.00  0.00    +0.000 C 
ATOM      8  O   UNL     1       4.834   2.860  19.733  0.00  0.00    +0.000 OA
ATOM      9  H   UNL     1       1.158   2.522  20.524  0.00  0.00    +0.000 HD
ATOM     10  H   UNL     1       2.803   2.161  20.168  0.00  0.00    +0.000 HD
ENDROOT
BRANCH   7  11
ATOM     11  C   UNL     1       5.817   4.699  18.625  0.00  0.00    +0.000 A 
ATOM     12  C   UNL     1       6.728   5.505  19.334  0.00  0.00    +0.000 A 
ATOM     13  C   UNL     1       7.702   6.232  18.663  0.00  0.00    +0.000 A 
ATOM     14  C   UNL     1       7.769   6.174  17.277  0.00  0.00    +0.000 A 
ATOM     15  C   UNL     1       6.878   5.376  16.540  0.00  0.00    +0.000 A 
ATOM     16  C   UNL     1       6.980   5.347  15.141  0.00  0.00    +0.000 A 
ATOM     17  C   UNL     1       6.122   4.564  14.376  0.00  0.00    +0.000 A 
ATOM     18  C   UNL     1       5.149   3.797  15.003  0.00  0.00    +0.000 A 
ATOM     19  C   UNL     1       5.028   3.822  16.397  0.00  0.00    +0.000 A 
ATOM     20  C   UNL     1       5.880   4.616  17.208  0.00  0.00    +0.000 A 
ENDBRANCH   7  11
BRANCH   4  21
ATOM     21  C   UNL     1       1.572   7.610  20.263  0.00  0.00    +0.000 A 
ATOM     22  C   UNL     1       0.890   7.980  21.421  0.00  0.00    +0.000 A 
ATOM     23  C   UNL     1       0.292   9.237  21.477  0.00  0.00    +0.000 A 
ATOM     24  C   UNL     1       0.396  10.091  20.385  0.00  0.00    +0.000 A 
ATOM     25  C   UNL     1       1.099   9.652  19.276  0.00  0.00    +0.000 A 
ATOM     26  N   UNL     1       1.684   8.439  19.189  0.00  0.00    +0.000 NA
ENDBRANCH   4  21
TORSDOF 2
ENDMDL
MODEL 4
REMARK VINA RESULT:      -8.7      1.097      1.145
REMARK  Name = 
REMARK  2 active torsions:
REMARK  status: ('A' for Active; 'I' for Inactive)
REMARK    1  A    between atoms: C_4  and  C_5
REMARK    2  A    between atoms: C_13  and  C_15
REMARK                            x       y       z     vdW  Elec       q    Type
REMARK                         _______ _______ _______ _____ _____    ______ ____
ROOT
ATOM      1  N   UNL     1       7.823   7.347  18.293  0.00  0.00    +0.000 N 
ATOM      2  C   UNL     1       7.442   6.368  17.452  0.00  0.00    +0.000 A 
ATOM      3  N   UNL     1       7.666   6.330  16.162  0.00  0.00    +0.000 NA
ATOM      4  C   UNL     1       6.993   5.202  15.736  0.00  0.00    +0.000 A 
ATOM      5  N   UNL     1       6.365   4.541  16.723  0.00  0.00    +0.000 NA
ATOM      6  N   UNL     1       6.663   5.280  17.819  0.00  0.00    +0.000 N 
ATOM      7  C   UNL     1       6.169   4.931  19.091  0.00  0.00    +0.000 C 
ATOM      8  O   UNL     1       6.707   5.456  20.066  0.00  0.00    +0.000 OA
ATOM      9  H   UNL     1       8.487   8.041  17.969  0.00  0.00    +0.000 HD
ATOM     10  H   UNL     1       7.808   7.190  19.301  0.00  0.00    +0.000 HD
ENDROOT
BRANCH   7  11
ATOM     11  C   UNL     1       4.982   4.040  19.293  0.00  0.00    +0.000 A 
ATOM     12  C   UNL     1       5.220   2.810  19.936  0.00  0.00    +0.000 A 
ATOM     13  C   UNL     1       4.203   1.874  20.074  0.00  0.00    +0.000 A 
ATOM     14  C   UNL     1       2.943   2.149  19.560  0.00  0.00    +0.000 A 
ATOM     15  C   UNL     1       2.671   3.368  18.917  0.00  0.00    +0.000 A 
ATOM     16  C   UNL     1       1.384   3.604  18.412  0.00  0.00    +0.000 A 
ATOM     17  C   UNL     1       1.074   4.802  17.775  0.00  0.00    +0.000 A 
ATOM     18  C   UNL     1       2.048   5.780  17.638  0.00  0.00    +0.000 A 
ATOM     19  C   UNL     1       3.340   5.556  18.129  0.00  0.00    +0.000 A 
ATOM     20  C   UNL     1       3.694   4.344  18.774  0.00  0.00    +0.000 A 
ENDBRANCH   7  11
BRANCH   4  21
ATOM     21  C   UNL     1       6.944   4.810  14.320  0.00  0.00    +0.000 A 
ATOM     22  C   UNL     1       6.034   3.847  13.886  0.00  0.00    +0.000 A 
ATOM     23  C   UNL     1       6.042   3.469  12.545  0.00  0.00    +0.000 A 
ATOM     24  C   UNL     1       6.949   4.064  11.675  0.00  0.00    +0.000 A 
ATOM     25  C   UNL     1       7.813   5.019  12.183  0.00  0.00    +0.000 A 
ATOM     26  N   UNL     1       7.833   5.402  13.477  0.00  0.00    +0.000 NA
ENDBRANCH   4  21
TORSDOF 2
ENDMDL
MODEL 5
REMARK VINA RESULT:      -8.6      1.308      1.718
REMARK  Name = 
REMARK  2 active torsions:
REMARK  status: ('A' for Active; 'I' for Inactive)
REMARK    1  A    between atoms: C_4  and  C_5
REMARK    2  A    between atoms: C_13  and  C_15
REMARK                            x       y       z     vdW  Elec       q    Type
REMARK                         _______ _______ _______ _____ _____    ______ ____
ROOT
ATOM      1  N   UNL     1       8.003   5.379  19.007  0.00  0.00    +0.000 N 
ATOM      2  C   UNL     1       7.394   4.941  17.890  0.00  0.00    +0.000 A 
ATOM      3  N   UNL     1       7.863   5.033  16.671  0.00  0.00    +0.000 NA
ATOM      4  C   UNL     1       6.839   4.552  15.879  0.00  0.00    +0.000 A 
ATOM      5  N   UNL     1       5.755   4.163  16.571  0.00  0.00    +0.000 NA
ATOM      6  N   UNL     1       6.116   4.400  17.856  0.00  0.00    +0.000 N 
ATOM      7  C   UNL     1       5.233   4.141  18.921  0.00  0.00    +0.000 C 
ATOM      8  O   UNL     1       5.716   4.097  20.053  0.00  0.00    +0.000 OA
ATOM      9  H   UNL     1       8.978   5.650  18.960  0.00  0.00    +0.000 HD
ATOM     10  H   UNL     1       7.677   5.067  19.923  0.00  0.00    +0.000 HD
ENDROOT
BRANCH   7  11
ATOM     11  C   UNL     1       3.751   4.014  18.747  0.00  0.00    +0.000 A 
ATOM     12  C   UNL     1       3.209   4.542  17.559  0.00  0.00    +0.000 A 
ATOM     13  C   UNL     1       1.835   4.565  17.357  0.00  0.00    +0.000 A 
ATOM     14  C   UNL     1       0.987   4.075  18.341  0.00  0.00    +0.000 A 
ATOM     15  C   UNL     1       1.496   3.538  19.535  0.00  0.00    +0.000 A 
ATOM     16  C   UNL     1       0.604   3.054  20.504  0.00  0.00    +0.000 A 
ATOM     17  C   UNL     1       1.069   2.508  21.696  0.00  0.00    +0.000 A 
ATOM     18  C   UNL     1       2.434   2.436  21.933  0.00  0.00    +0.000 A 
ATOM     19  C   UNL     1       3.338   2.923  20.980  0.00  0.00    +0.000 A 
ATOM     20  C   UNL     1       2.899   3.495  19.759  0.00  0.00    +0.000 A 
ENDBRANCH   7  11
BRANCH   4  21
ATOM     21  C   UNL     1       6.933   4.525  14.412  0.00  0.00    +0.000 A 
ATOM     22  C   UNL     1       6.180   3.613  13.674  0.00  0.00    +0.000 A 
ATOM     23  C   UNL     1       6.323   3.587  12.288  0.00  0.00    +0.000 A 
ATOM     24  C   UNL     1       7.206   4.471  11.678  0.00  0.00    +0.000 A 
ATOM     25  C   UNL     1       7.910   5.351  12.481  0.00  0.00    +0.000 A 
ATOM     26  N   UNL     1       7.797   5.397  13.825  0.00  0.00    +0.000 NA
ENDBRANCH   4  21
TORSDOF 2
ENDMDL
MODEL 6
REMARK VINA RESULT:      -8.1      1.672      1.973
REMARK  Name = 
REMARK  2 active torsions:
REMARK  status: ('A' for Active; 'I' for Inactive)
REMARK    1  A    between atoms: C_4  and  C_5
REMARK    2  A    between atoms: C_13  and  C_15
REMARK                            x       y       z     vdW  Elec       q    Type
REMARK                         _______ _______ _______ _____ _____    ______ ____
ROOT
ATOM      1  N   UNL     1       8.222   4.967  18.962  0.00  0.00    +0.000 N 
ATOM      2  C   UNL     1       7.540   4.692  17.836  0.00  0.00    +0.000 A 
ATOM      3  N   UNL     1       8.013   4.746  16.616  0.00  0.00    +0.000 NA
ATOM      4  C   UNL     1       6.916   4.492  15.817  0.00  0.00    +0.000 A 
ATOM      5  N   UNL     1       5.782   4.278  16.506  0.00  0.00    +0.000 NA
ATOM      6  N   UNL     1       6.185   4.394  17.794  0.00  0.00    +0.000 N 
ATOM      7  C   UNL     1       5.273   4.257  18.858  0.00  0.00    +0.000 C 
ATOM      8  O   UNL     1       5.744   4.080  19.982  0.00  0.00    +0.000 OA
ATOM      9  H   UNL     1       9.230   5.058  18.914  0.00  0.00    +0.000 HD
ATOM     10  H   UNL     1       7.848   4.683  19.868  0.00  0.00    +0.000 HD
ENDROOT
BRANCH   7  11
ATOM     11  C   UNL     1       3.792   4.408  18.695  0.00  0.00    +0.000 A 
ATOM     12  C   UNL     1       3.025   3.231  18.782  0.00  0.00    +0.000 A 
ATOM     13  C   UNL     1       1.658   3.256  18.540  0.00  0.00    +0.000 A 
ATOM     14  C   UNL     1       1.044   4.453  18.194  0.00  0.00    +0.000 A 
ATOM     15  C   UNL     1       1.780   5.645  18.102  0.00  0.00    +0.000 A 
ATOM     16  C   UNL     1       1.120   6.832  17.748  0.00  0.00    +0.000 A 
ATOM     17  C   UNL     1       1.812   8.036  17.654  0.00  0.00    +0.000 A 
ATOM     18  C   UNL     1       3.174   8.067  17.915  0.00  0.00    +0.000 A 
ATOM     19  C   UNL     1       3.849   6.890  18.260  0.00  0.00    +0.000 A 
ATOM     20  C   UNL     1       3.178   5.645  18.356  0.00  0.00    +0.000 A 
ENDBRANCH   7  11
BRANCH   4  21
ATOM     21  C   UNL     1       6.998   4.506  14.349  0.00  0.00    +0.000 A 
ATOM     22  C   UNL     1       6.245   3.611  13.592  0.00  0.00    +0.000 A 
ATOM     23  C   UNL     1       6.377   3.625  12.205  0.00  0.00    +0.000 A 
ATOM     24  C   UNL     1       7.248   4.531  11.612  0.00  0.00    +0.000 A 
ATOM     25  C   UNL     1       7.953   5.394  12.434  0.00  0.00    +0.000 A 
ATOM     26  N   UNL     1       7.851   5.401  13.780  0.00  0.00    +0.000 NA
ENDBRANCH   4  21
TORSDOF 2
ENDMDL
MODEL 7
REMARK VINA RESULT:      -8.1      1.378      2.326
REMARK  Name = 
REMARK  2 active torsions:
REMARK  status: ('A' for Active; 'I' for Inactive)
REMARK    1  A    between atoms: C_4  and  C_5
REMARK    2  A    between atoms: C_13  and  C_15
REMARK                            x       y       z     vdW  Elec       q    Type
REMARK                         _______ _______ _______ _____ _____    ______ ____
ROOT
ATOM      1  N   UNL     1       8.544   4.849  18.559  0.00  0.00    +0.000 N 
ATOM      2  C   UNL     1       7.646   4.597  17.589  0.00  0.00    +0.000 A 
ATOM      3  N   UNL     1       7.911   4.430  16.318  0.00  0.00    +0.000 NA
ATOM      4  C   UNL     1       6.668   4.315  15.727  0.00  0.00    +0.000 A 
ATOM      5  N   UNL     1       5.645   4.400  16.594  0.00  0.00    +0.000 NA
ATOM      6  N   UNL     1       6.272   4.568  17.784  0.00  0.00    +0.000 N 
ATOM      7  C   UNL     1       5.540   4.723  18.977  0.00  0.00    +0.000 C 
ATOM      8  O   UNL     1       6.154   4.575  20.035  0.00  0.00    +0.000 OA
ATOM      9  H   UNL     1       9.530   4.734  18.354  0.00  0.00    +0.000 HD
ATOM     10  H   UNL     1       8.282   4.739  19.539  0.00  0.00    +0.000 HD
ENDROOT
BRANCH   7  11
ATOM     11  C   UNL     1       4.104   5.144  19.011  0.00  0.00    +0.000 A 
ATOM     12  C   UNL     1       3.802   6.402  18.455  0.00  0.00    +0.000 A 
ATOM     13  C   UNL     1       2.517   6.923  18.535  0.00  0.00    +0.000 A 
ATOM     14  C   UNL     1       1.523   6.200  19.182  0.00  0.00    +0.000 A 
ATOM     15  C   UNL     1       1.790   4.941  19.743  0.00  0.00    +0.000 A 
ATOM     16  C   UNL     1       0.756   4.245  20.388  0.00  0.00    +0.000 A 
ATOM     17  C   UNL     1       0.978   2.992  20.950  0.00  0.00    +0.000 A 
ATOM     18  C   UNL     1       2.238   2.417  20.871  0.00  0.00    +0.000 A 
ATOM     19  C   UNL     1       3.283   3.102  20.239  0.00  0.00    +0.000 A 
ATOM     20  C   UNL     1       3.095   4.385  19.664  0.00  0.00    +0.000 A 
ENDBRANCH   7  11
BRANCH   4  21
ATOM     21  C   UNL     1       6.505   4.160  14.274  0.00  0.00    +0.000 A 
ATOM     22  C   UNL     1       7.425   4.732  13.397  0.00  0.00    +0.000 A 
ATOM     23  C   UNL     1       7.219   4.601  12.025  0.00  0.00    +0.000 A 
ATOM     24  C   UNL     1       6.109   3.901  11.567  0.00  0.00    +0.000 A 
ATOM     25  C   UNL     1       5.248   3.355  12.503  0.00  0.00    +0.000 A 
ATOM     26  N   UNL     1       5.417   3.469  13.837  0.00  0.00    +0.000 NA
ENDBRANCH   4  21
TORSDOF 2
ENDMDL
MODEL 8
REMARK VINA RESULT:      -8.0      1.313      1.960
REMARK  Name = 
REMARK  2 active torsions:
REMARK  status: ('A' for Active; 'I' for Inactive)
REMARK    1  A    between atoms: C_4  and  C_5
REMARK    2  A    between atoms: C_13  and  C_15
REMARK                            x       y       z     vdW  Elec       q    Type
REMARK                         _______ _______ _______ _____ _____    ______ ____
ROOT
ATOM      1  N   UNL     1       7.648   6.746  18.328  0.00  0.00    +0.000 N 
ATOM      2  C   UNL     1       7.143   5.939  17.378  0.00  0.00    +0.000 A 
ATOM      3  N   UNL     1       7.595   5.811  16.155  0.00  0.00    +0.000 NA
ATOM      4  C   UNL     1       6.687   4.967  15.547  0.00  0.00    +0.000 A 
ATOM      5  N   UNL     1       5.693   4.565  16.357  0.00  0.00    +0.000 NA
ATOM      6  N   UNL     1       5.993   5.176  17.529  0.00  0.00    +0.000 N 
ATOM      7  C   UNL     1       5.168   5.029  18.660  0.00  0.00    +0.000 C 
ATOM      8  O   UNL     1       5.643   5.357  19.748  0.00  0.00    +0.000 OA
ATOM      9  H   UNL     1       8.554   7.175  18.176  0.00  0.00    +0.000 HD
ATOM     10  H   UNL     1       7.382   6.616  19.305  0.00  0.00    +0.000 HD
ENDROOT
BRANCH   7  11
ATOM     11  C   UNL     1       3.740   4.587  18.583  0.00  0.00    +0.000 A 
ATOM     12  C   UNL     1       2.982   5.089  17.507  0.00  0.00    +0.000 A 
ATOM     13  C   UNL     1       1.623   4.820  17.411  0.00  0.00    +0.000 A 
ATOM     14  C   UNL     1       1.002   4.059  18.393  0.00  0.00    +0.000 A 
ATOM     15  C   UNL     1       1.730   3.540  19.476  0.00  0.00    +0.000 A 
ATOM     16  C   UNL     1       1.064   2.777  20.447  0.00  0.00    +0.000 A 
ATOM     17  C   UNL     1       1.750   2.239  21.531  0.00  0.00    +0.000 A 
ATOM     18  C   UNL     1       3.115   2.456  21.656  0.00  0.00    +0.000 A 
ATOM     19  C   UNL     1       3.793   3.222  20.701  0.00  0.00    +0.000 A 
ATOM     20  C   UNL     1       3.124   3.794  19.589  0.00  0.00    +0.000 A 
ENDBRANCH   7  11
BRANCH   4  21
ATOM     21  C   UNL     1       6.796   4.594  14.129  0.00  0.00    +0.000 A 
ATOM     22  C   UNL     1       7.704   5.246  13.297  0.00  0.00    +0.000 A 
ATOM     23  C   UNL     1       7.753   4.896  11.949  0.00  0.00    +0.000 A 
ATOM     24  C   UNL     1       6.902   3.906  11.471  0.00  0.00    +0.000 A 
ATOM     25  C   UNL     1       6.035   3.301  12.364  0.00  0.00    +0.000 A 
ATOM     26  N   UNL     1       5.961   3.621  13.673  0.00  0.00    +0.000 NA
ENDBRANCH   4  21
TORSDOF 2
ENDMDL
MODEL 9
REMARK VINA RESULT:      -7.9      0.957      2.435
REMARK  Name = 
REMARK  2 active torsions:
REMARK  status: ('A' for Active; 'I' for Inactive)
REMARK    1  A    between atoms: C_4  and  C_5
REMARK    2  A    between atoms: C_13  and  C_15
REMARK                            x       y       z     vdW  Elec       q    Type
REMARK                         _______ _______ _______ _____ _____    ______ ____
ROOT
ATOM      1  N   UNL     1       8.080   6.664  17.967  0.00  0.00    +0.000 N 
ATOM      2  C   UNL     1       7.313   5.876  17.192  0.00  0.00    +0.000 A 
ATOM      3  N   UNL     1       7.526   5.592  15.932  0.00  0.00    +0.000 NA
ATOM      4  C   UNL     1       6.420   4.853  15.561  0.00  0.00    +0.000 A 
ATOM      5  N   UNL     1       5.534   4.668  16.554  0.00  0.00    +0.000 NA
ATOM      6  N   UNL     1       6.112   5.310  17.598  0.00  0.00    +0.000 N 
ATOM      7  C   UNL     1       5.481   5.373  18.855  0.00  0.00    +0.000 C 
ATOM      8  O   UNL     1       6.176   5.704  19.816  0.00  0.00    +0.000 OA
ATOM      9  H   UNL     1       8.997   6.938  17.631  0.00  0.00    +0.000 HD
ATOM     10  H   UNL     1       7.970   6.648  18.981  0.00  0.00    +0.000 HD
ENDROOT
BRANCH   7  11
ATOM     11  C   UNL     1       4.013   5.149  19.049  0.00  0.00    +0.000 A 
ATOM     12  C   UNL     1       3.250   6.268  19.433  0.00  0.00    +0.000 A 
ATOM     13  C   UNL     1       1.902   6.136  19.739  0.00  0.00    +0.000 A 
ATOM     14  C   UNL     1       1.303   4.884  19.677  0.00  0.00    +0.000 A 
ATOM     15  C   UNL     1       2.035   3.748  19.293  0.00  0.00    +0.000 A 
ATOM     16  C   UNL     1       1.392   2.502  19.245  0.00  0.00    +0.000 A 
ATOM     17  C   UNL     1       2.080   1.355  18.862  0.00  0.00    +0.000 A 
ATOM     18  C   UNL     1       3.422   1.441  18.520  0.00  0.00    +0.000 A 
ATOM     19  C   UNL     1       4.081   2.675  18.572  0.00  0.00    +0.000 A 
ATOM     20  C   UNL     1       3.414   3.863  18.966  0.00  0.00    +0.000 A 
ENDBRANCH   7  11
BRANCH   4  21
ATOM     21  C   UNL     1       6.231   4.365  14.187  0.00  0.00    +0.000 A 
ATOM     22  C   UNL     1       7.268   4.451  13.259  0.00  0.00    +0.000 A 
ATOM     23  C   UNL     1       7.043   4.017  11.955  0.00  0.00    +0.000 A 
ATOM     24  C   UNL     1       5.796   3.506  11.613  0.00  0.00    +0.000 A 
ATOM     25  C   UNL     1       4.822   3.446  12.595  0.00  0.00    +0.000 A 
ATOM     26  N   UNL     1       5.008   3.863  13.865  0.00  0.00    +0.000 NA
ENDBRANCH   4  21
TORSDOF 2
ENDMDL
