MODEL 1
REMARK VINA RESULT:      -7.3      0.000      0.000
REMARK  Name = 
REMARK  8 active torsions:
REMARK  status: ('A' for Active; 'I' for Inactive)
REMARK    1  A    between atoms: C_1  and  O_2
REMARK    2  A    between atoms: O_2  and  C_3
REMARK    3  A    between atoms: C_6  and  N_7
REMARK    4  A    between atoms: N_10  and  C_11
REMARK    5  A    between atoms: C_21  and  O_22
REMARK    6  A    between atoms: O_22  and  C_23
REMARK    7  A    between atoms: C_23  and  C_24
REMARK    8  A    between atoms: C_24  and  N_25
REMARK                            x       y       z     vdW  Elec       q    Type
REMARK                         _______ _______ _______ _____ _____    ______ ____
ROOT
ATOM      1  C   UNL     1       5.512   5.653  16.657  0.00  0.00    +0.000 A 
ATOM      2  C   UNL     1       5.734   6.987  17.048  0.00  0.00    +0.000 A 
ATOM      3  C   UNL     1       4.749   7.750  17.682  0.00  0.00    +0.000 A 
ATOM      4  C   UNL     1       3.548   7.157  18.042  0.00  0.00    +0.000 A 
ATOM      5  C   UNL     1       3.353   5.816  17.704  0.00  0.00    +0.000 A 
ATOM      6  C   UNL     1       4.266   5.075  16.922  0.00  0.00    +0.000 A 
ENDROOT
BRANCH   4   7
ATOM      7  N   UNL     1       2.539   7.852  18.738  0.00  0.00    +0.000 N 
ATOM      8  C   UNL     1       1.935   7.362  19.954  0.00  0.00    +0.000 C 
ATOM      9  C   UNL     1       1.250   8.589  20.515  0.00  0.00    +0.000 C 
ATOM     10  N   UNL     1       0.950   9.367  19.341  0.00  0.00    +0.000 N 
ATOM     11  C   UNL     1       1.833   8.995  18.288  0.00  0.00    +0.000 C 
ATOM     12  O   UNL     1       1.946   9.545  17.203  0.00  0.00    +0.000 OA
BRANCH  10  13
ATOM     13  C   UNL     1      -0.088  10.326  19.253  0.00  0.00    +0.000 A 
ATOM     14  C   UNL     1      -1.254   9.987  18.544  0.00  0.00    +0.000 A 
ATOM     15  C   UNL     1      -2.353  10.847  18.476  0.00  0.00    +0.000 A 
ATOM     16  C   UNL     1      -2.303  12.082  19.105  0.00  0.00    +0.000 A 
ATOM     17  C   UNL     1      -1.158  12.454  19.803  0.00  0.00    +0.000 A 
ATOM     18  C   UNL     1      -0.058  11.590  19.887  0.00  0.00    +0.000 A 
ATOM     19 CL   UNL     1       1.320  12.232  20.714  0.00  0.00    +0.000 Cl
ENDBRANCH  10  13
ENDBRANCH   4   7
BRANCH   1  21
ATOM     20  C   UNL     1       7.564   4.405  16.805  0.00  0.00    +0.000 C 
ATOM     21  O   UNL     1       6.616   5.132  16.050  0.00  0.00    +0.000 OA
ENDBRANCH   1  21
BRANCH   6  22
ATOM     22  O   UNL     1       3.899   3.836  16.410  0.00  0.00    +0.000 OA
BRANCH  22  23
ATOM     23  C   UNL     1       4.003   2.789  17.403  0.00  0.00    +0.000 C 
BRANCH  23  24
ATOM     24  C   UNL     1       2.727   1.982  17.677  0.00  0.00    +0.000 C 
BRANCH  24  25
ATOM     25  N   UNL     1       2.219   2.219  19.062  0.00  0.00    +0.000 NA
ATOM     26  C   UNL     1       3.313   2.441  20.027  0.00  0.00    +0.000 C 
ATOM     27  C   UNL     1       2.815   2.725  21.449  0.00  0.00    +0.000 C 
ATOM     28  C   UNL     1       1.831   3.880  21.473  0.00  0.00    +0.000 C 
ATOM     29  C   UNL     1       0.713   3.620  20.473  0.00  0.00    +0.000 C 
ATOM     30  C   UNL     1       1.272   3.347  19.071  0.00  0.00    +0.000 C 
ENDBRANCH  24  25
ENDBRANCH  23  24
ENDBRANCH  22  23
ENDBRANCH   6  22
TORSDOF 7
ENDMDL
MODEL 2
REMARK VINA RESULT:      -7.2      2.263      4.439
REMARK  Name = 
REMARK  8 active torsions:
REMARK  status: ('A' for Active; 'I' for Inactive)
REMARK    1  A    between atoms: C_1  and  O_2
REMARK    2  A    between atoms: O_2  and  C_3
REMARK    3  A    between atoms: C_6  and  N_7
REMARK    4  A    between atoms: N_10  and  C_11
REMARK    5  A    between atoms: C_21  and  O_22
REMARK    6  A    between atoms: O_22  and  C_23
REMARK    7  A    between atoms: C_23  and  C_24
REMARK    8  A    between atoms: C_24  and  N_25
REMARK                            x       y       z     vdW  Elec       q    Type
REMARK                         _______ _______ _______ _____ _____    ______ ____
ROOT
ATOM      1  C   UNL     1       3.714   3.529  19.631  0.00  0.00    +0.000 A 
ATOM      2  C   UNL     1       2.329   3.781  19.639  0.00  0.00    +0.000 A 
ATOM      3  C   UNL     1       1.807   5.068  19.485  0.00  0.00    +0.000 A 
ATOM      4  C   UNL     1       2.659   6.126  19.207  0.00  0.00    +0.000 A 
ATOM      5  C   UNL     1       4.030   5.862  19.142  0.00  0.00    +0.000 A 
ATOM      6  C   UNL     1       4.590   4.605  19.454  0.00  0.00    +0.000 A 
ENDROOT
BRANCH   4   7
ATOM      7  N   UNL     1       2.192   7.436  18.979  0.00  0.00    +0.000 N 
ATOM      8  C   UNL     1       2.650   8.261  17.887  0.00  0.00    +0.000 C 
ATOM      9  C   UNL     1       1.606   9.354  17.823  0.00  0.00    +0.000 C 
ATOM     10  N   UNL     1       1.133   9.441  19.180  0.00  0.00    +0.000 N 
ATOM     11  C   UNL     1       1.384   8.210  19.849  0.00  0.00    +0.000 C 
ATOM     12  O   UNL     1       0.993   7.891  20.962  0.00  0.00    +0.000 OA
BRANCH  10  13
ATOM     13  C   UNL     1       0.541  10.591  19.755  0.00  0.00    +0.000 A 
ATOM     14  C   UNL     1       1.312  11.370  20.637  0.00  0.00    +0.000 A 
ATOM     15  C   UNL     1       0.828  12.561  21.185  0.00  0.00    +0.000 A 
ATOM     16  C   UNL     1      -0.454  12.992  20.877  0.00  0.00    +0.000 A 
ATOM     17  C   UNL     1      -1.248  12.238  20.019  0.00  0.00    +0.000 A 
ATOM     18  C   UNL     1      -0.763  11.050  19.454  0.00  0.00    +0.000 A 
ATOM     19 CL   UNL     1      -1.900  10.181  18.480  0.00  0.00    +0.000 Cl
ENDBRANCH  10  13
ENDBRANCH   4   7
BRANCH   1  21
ATOM     20  C   UNL     1       3.709   1.282  18.770  0.00  0.00    +0.000 C 
ATOM     21  O   UNL     1       3.969   2.202  19.811  0.00  0.00    +0.000 OA
ENDBRANCH   1  21
BRANCH   6  22
ATOM     22  O   UNL     1       5.965   4.476  19.617  0.00  0.00    +0.000 OA
BRANCH  22  23
ATOM     23  C   UNL     1       6.674   5.658  19.176  0.00  0.00    +0.000 C 
BRANCH  23  24
ATOM     24  C   UNL     1       7.798   5.435  18.155  0.00  0.00    +0.000 C 
BRANCH  24  25
ATOM     25  N   UNL     1       7.282   5.500  16.754  0.00  0.00    +0.000 NA
ATOM     26  C   UNL     1       7.103   4.160  16.162  0.00  0.00    +0.000 C 
ATOM     27  C   UNL     1       6.538   4.199  14.738  0.00  0.00    +0.000 C 
ATOM     28  C   UNL     1       5.246   4.993  14.675  0.00  0.00    +0.000 C 
ATOM     29  C   UNL     1       5.462   6.370  15.286  0.00  0.00    +0.000 C 
ATOM     30  C   UNL     1       6.024   6.265  16.709  0.00  0.00    +0.000 C 
ENDBRANCH  24  25
ENDBRANCH  23  24
ENDBRANCH  22  23
ENDBRANCH   6  22
TORSDOF 7
ENDMDL
MODEL 3
REMARK VINA RESULT:      -7.2      2.146      4.426
REMARK  Name = 
REMARK  8 active torsions:
REMARK  status: ('A' for Active; 'I' for Inactive)
REMARK    1  A    between atoms: C_1  and  O_2
REMARK    2  A    between atoms: O_2  and  C_3
REMARK    3  A    between atoms: C_6  and  N_7
REMARK    4  A    between atoms: N_10  and  C_11
REMARK    5  A    between atoms: C_21  and  O_22
REMARK    6  A    between atoms: O_22  and  C_23
REMARK    7  A    between atoms: C_23  and  C_24
REMARK    8  A    between atoms: C_24  and  N_25
REMARK                            x       y       z     vdW  Elec       q    Type
REMARK                         _______ _______ _______ _____ _____    ______ ____
ROOT
ATOM      1  C   UNL     1       2.923   3.585  19.653  0.00  0.00    +0.000 A 
ATOM      2  C   UNL     1       1.584   3.850  20.000  0.00  0.00    +0.000 A 
ATOM      3  C   UNL     1       1.137   5.137  20.311  0.00  0.00    +0.000 A 
ATOM      4  C   UNL     1       1.999   6.215  20.175  0.00  0.00    +0.000 A 
ATOM      5  C   UNL     1       3.312   5.956  19.773  0.00  0.00    +0.000 A 
ATOM      6  C   UNL     1       3.828   4.652  19.612  0.00  0.00    +0.000 A 
ENDROOT
BRANCH   4   7
ATOM      7  N   UNL     1       1.594   7.544  20.413  0.00  0.00    +0.000 N 
ATOM      8  C   UNL     1       0.981   7.975  21.646  0.00  0.00    +0.000 C 
ATOM      9  C   UNL     1       1.108   9.481  21.582  0.00  0.00    +0.000 C 
ATOM     10  N   UNL     1       1.109   9.754  20.168  0.00  0.00    +0.000 N 
ATOM     11  C   UNL     1       1.531   8.593  19.462  0.00  0.00    +0.000 C 
ATOM     12  O   UNL     1       1.776   8.513  18.268  0.00  0.00    +0.000 OA
BRANCH  10  13
ATOM     13  C   UNL     1       0.717  10.983  19.584  0.00  0.00    +0.000 A 
ATOM     14  C   UNL     1       1.569  12.093  19.725  0.00  0.00    +0.000 A 
ATOM     15  C   UNL     1       1.292  13.318  19.113  0.00  0.00    +0.000 A 
ATOM     16  C   UNL     1       0.140  13.467  18.357  0.00  0.00    +0.000 A 
ATOM     17  C   UNL     1      -0.732  12.393  18.209  0.00  0.00    +0.000 A 
ATOM     18  C   UNL     1      -0.453  11.157  18.807  0.00  0.00    +0.000 A 
ATOM     19 CL   UNL     1      -1.674   9.948  18.604  0.00  0.00    +0.000 Cl
ENDBRANCH  10  13
ENDBRANCH   4   7
BRANCH   1  21
ATOM     20  C   UNL     1       3.028   1.763  18.086  0.00  0.00    +0.000 C 
ATOM     21  O   UNL     1       3.110   2.258  19.407  0.00  0.00    +0.000 OA
ENDBRANCH   1  21
BRANCH   6  22
ATOM     22  O   UNL     1       5.197   4.458  19.462  0.00  0.00    +0.000 OA
BRANCH  22  23
ATOM     23  C   UNL     1       5.904   5.709  19.298  0.00  0.00    +0.000 C 
BRANCH  23  24
ATOM     24  C   UNL     1       7.213   5.651  18.498  0.00  0.00    +0.000 C 
BRANCH  24  25
ATOM     25  N   UNL     1       6.955   5.703  17.027  0.00  0.00    +0.000 NA
ATOM     26  C   UNL     1       7.155   4.393  16.379  0.00  0.00    +0.000 C 
ATOM     27  C   UNL     1       6.860   4.412  14.874  0.00  0.00    +0.000 C 
ATOM     28  C   UNL     1       5.469   4.949  14.589  0.00  0.00    +0.000 C 
ATOM     29  C   UNL     1       5.294   6.301  15.266  0.00  0.00    +0.000 C 
ATOM     30  C   UNL     1       5.600   6.217  16.766  0.00  0.00    +0.000 C 
ENDBRANCH  24  25
ENDBRANCH  23  24
ENDBRANCH  22  23
ENDBRANCH   6  22
TORSDOF 7
ENDMDL
MODEL 4
REMARK VINA RESULT:      -7.2      2.535      4.787
REMARK  Name = 
REMARK  8 active torsions:
REMARK  status: ('A' for Active; 'I' for Inactive)
REMARK    1  A    between atoms: C_1  and  O_2
REMARK    2  A    between atoms: O_2  and  C_3
REMARK    3  A    between atoms: C_6  and  N_7
REMARK    4  A    between atoms: N_10  and  C_11
REMARK    5  A    between atoms: C_21  and  O_22
REMARK    6  A    between atoms: O_22  and  C_23
REMARK    7  A    between atoms: C_23  and  C_24
REMARK    8  A    between atoms: C_24  and  N_25
REMARK                            x       y       z     vdW  Elec       q    Type
REMARK                         _______ _______ _______ _____ _____    ______ ____
ROOT
ATOM      1  C   UNL     1       3.503   4.110  19.259  0.00  0.00    +0.000 A 
ATOM      2  C   UNL     1       2.334   4.184  20.040  0.00  0.00    +0.000 A 
ATOM      3  C   UNL     1       1.764   5.406  20.409  0.00  0.00    +0.000 A 
ATOM      4  C   UNL     1       2.290   6.588  19.909  0.00  0.00    +0.000 A 
ATOM      5  C   UNL     1       3.415   6.507  19.087  0.00  0.00    +0.000 A 
ATOM      6  C   UNL     1       4.103   5.300  18.834  0.00  0.00    +0.000 A 
ENDROOT
BRANCH   4   7
ATOM      7  N   UNL     1       1.724   7.848  20.192  0.00  0.00    +0.000 N 
ATOM      8  C   UNL     1       1.003   8.136  21.409  0.00  0.00    +0.000 C 
ATOM      9  C   UNL     1       0.961   9.648  21.430  0.00  0.00    +0.000 C 
ATOM     10  N   UNL     1       1.004  10.002  20.035  0.00  0.00    +0.000 N 
ATOM     11  C   UNL     1       1.592   8.937  19.296  0.00  0.00    +0.000 C 
ATOM     12  O   UNL     1       1.906   8.955  18.115  0.00  0.00    +0.000 OA
BRANCH  10  13
ATOM     13  C   UNL     1       0.506  11.211  19.494  0.00  0.00    +0.000 A 
ATOM     14  C   UNL     1       1.250  12.388  19.690  0.00  0.00    +0.000 A 
ATOM     15  C   UNL     1       0.866  13.607  19.123  0.00  0.00    +0.000 A 
ATOM     16  C   UNL     1      -0.288  13.679  18.357  0.00  0.00    +0.000 A 
ATOM     17  C   UNL     1      -1.054  12.535  18.155  0.00  0.00    +0.000 A 
ATOM     18  C   UNL     1      -0.667  11.307  18.709  0.00  0.00    +0.000 A 
ATOM     19 CL   UNL     1      -1.769  10.000  18.441  0.00  0.00    +0.000 Cl
ENDBRANCH  10  13
ENDBRANCH   4   7
BRANCH   1  21
ATOM     20  C   UNL     1       4.456   2.061  20.086  0.00  0.00    +0.000 C 
ATOM     21  O   UNL     1       3.866   2.813  19.046  0.00  0.00    +0.000 OA
ENDBRANCH   1  21
BRANCH   6  22
ATOM     22  O   UNL     1       5.352   5.324  18.222  0.00  0.00    +0.000 OA
BRANCH  22  23
ATOM     23  C   UNL     1       5.254   5.139  16.791  0.00  0.00    +0.000 C 
BRANCH  23  24
ATOM     24  C   UNL     1       6.430   5.664  15.955  0.00  0.00    +0.000 C 
BRANCH  24  25
ATOM     25  N   UNL     1       6.275   5.308  14.512  0.00  0.00    +0.000 NA
ATOM     26  C   UNL     1       7.575   5.099  13.847  0.00  0.00    +0.000 C 
ATOM     27  C   UNL     1       7.442   4.696  12.373  0.00  0.00    +0.000 C 
ATOM     28  C   UNL     1       6.550   3.478  12.210  0.00  0.00    +0.000 C 
ATOM     29  C   UNL     1       5.216   3.726  12.902  0.00  0.00    +0.000 C 
ATOM     30  C   UNL     1       5.415   4.121  14.370  0.00  0.00    +0.000 C 
ENDBRANCH  24  25
ENDBRANCH  23  24
ENDBRANCH  22  23
ENDBRANCH   6  22
TORSDOF 7
ENDMDL
MODEL 5
REMARK VINA RESULT:      -7.1      2.370      4.414
REMARK  Name = 
REMARK  8 active torsions:
REMARK  status: ('A' for Active; 'I' for Inactive)
REMARK    1  A    between atoms: C_1  and  O_2
REMARK    2  A    between atoms: O_2  and  C_3
REMARK    3  A    between atoms: C_6  and  N_7
REMARK    4  A    between atoms: N_10  and  C_11
REMARK    5  A    between atoms: C_21  and  O_22
REMARK    6  A    between atoms: O_22  and  C_23
REMARK    7  A    between atoms: C_23  and  C_24
REMARK    8  A    between atoms: C_24  and  N_25
REMARK                            x       y       z     vdW  Elec       q    Type
REMARK                         _______ _______ _______ _____ _____    ______ ____
ROOT
ATOM      1  C   UNL     1       3.923   3.865  19.349  0.00  0.00    +0.000 A 
ATOM      2  C   UNL     1       2.527   3.999  19.222  0.00  0.00    +0.000 A 
ATOM      3  C   UNL     1       1.900   5.247  19.191  0.00  0.00    +0.000 A 
ATOM      4  C   UNL     1       2.669   6.401  19.176  0.00  0.00    +0.000 A 
ATOM      5  C   UNL     1       4.057   6.264  19.243  0.00  0.00    +0.000 A 
ATOM      6  C   UNL     1       4.702   5.023  19.438  0.00  0.00    +0.000 A 
ENDROOT
BRANCH   4   7
ATOM      7  N   UNL     1       2.101   7.688  19.083  0.00  0.00    +0.000 N 
ATOM      8  C   UNL     1       2.217   8.521  17.910  0.00  0.00    +0.000 C 
ATOM      9  C   UNL     1       1.146   9.568  18.127  0.00  0.00    +0.000 C 
ATOM     10  N   UNL     1       1.046   9.648  19.561  0.00  0.00    +0.000 N 
ATOM     11  C   UNL     1       1.519   8.435  20.137  0.00  0.00    +0.000 C 
ATOM     12  O   UNL     1       1.450   8.110  21.313  0.00  0.00    +0.000 OA
BRANCH  10  13
ATOM     13  C   UNL     1       0.578  10.777  20.275  0.00  0.00    +0.000 A 
ATOM     14  C   UNL     1      -0.434  10.591  21.234  0.00  0.00    +0.000 A 
ATOM     15  C   UNL     1      -0.895  11.639  22.034  0.00  0.00    +0.000 A 
ATOM     16  C   UNL     1      -0.364  12.911  21.879  0.00  0.00    +0.000 A 
ATOM     17  C   UNL     1       0.629  13.133  20.929  0.00  0.00    +0.000 A 
ATOM     18  C   UNL     1       1.106  12.083  20.134  0.00  0.00    +0.000 A 
ATOM     19 CL   UNL     1       2.276  12.535  18.941  0.00  0.00    +0.000 Cl
ENDBRANCH  10  13
ENDBRANCH   4   7
BRANCH   1  21
ATOM     20  C   UNL     1       3.634   1.622  18.526  0.00  0.00    +0.000 C 
ATOM     21  O   UNL     1       4.288   2.551  19.366  0.00  0.00    +0.000 OA
ENDBRANCH   1  21
BRANCH   6  22
ATOM     22  O   UNL     1       6.057   4.984  19.749  0.00  0.00    +0.000 OA
BRANCH  22  23
ATOM     23  C   UNL     1       6.867   5.580  18.709  0.00  0.00    +0.000 C 
BRANCH  23  24
ATOM     24  C   UNL     1       7.414   4.623  17.641  0.00  0.00    +0.000 C 
BRANCH  24  25
ATOM     25  N   UNL     1       6.721   4.814  16.331  0.00  0.00    +0.000 NA
ATOM     26  C   UNL     1       7.670   4.896  15.204  0.00  0.00    +0.000 C 
ATOM     27  C   UNL     1       6.980   5.053  13.844  0.00  0.00    +0.000 C 
ATOM     28  C   UNL     1       5.957   3.956  13.610  0.00  0.00    +0.000 C 
ATOM     29  C   UNL     1       4.991   3.900  14.785  0.00  0.00    +0.000 C 
ATOM     30  C   UNL     1       5.738   3.738  16.113  0.00  0.00    +0.000 C 
ENDBRANCH  24  25
ENDBRANCH  23  24
ENDBRANCH  22  23
ENDBRANCH   6  22
TORSDOF 7
ENDMDL
MODEL 6
REMARK VINA RESULT:      -7.1      1.381      1.831
REMARK  Name = 
REMARK  8 active torsions:
REMARK  status: ('A' for Active; 'I' for Inactive)
REMARK    1  A    between atoms: C_1  and  O_2
REMARK    2  A    between atoms: O_2  and  C_3
REMARK    3  A    between atoms: C_6  and  N_7
REMARK    4  A    between atoms: N_10  and  C_11
REMARK    5  A    between atoms: C_21  and  O_22
REMARK    6  A    between atoms: O_22  and  C_23
REMARK    7  A    between atoms: C_23  and  C_24
REMARK    8  A    between atoms: C_24  and  N_25
REMARK                            x       y       z     vdW  Elec       q    Type
REMARK                         _______ _______ _______ _____ _____    ______ ____
ROOT
ATOM      1  C   UNL     1       5.317   5.531  16.388  0.00  0.00    +0.000 A 
ATOM      2  C   UNL     1       4.940   6.840  16.031  0.00  0.00    +0.000 A 
ATOM      3  C   UNL     1       3.988   7.564  16.755  0.00  0.00    +0.000 A 
ATOM      4  C   UNL     1       3.467   7.033  17.926  0.00  0.00    +0.000 A 
ATOM      5  C   UNL     1       3.887   5.757  18.309  0.00  0.00    +0.000 A 
ATOM      6  C   UNL     1       4.721   4.945  17.510  0.00  0.00    +0.000 A 
ENDROOT
BRANCH   4   7
ATOM      7  N   UNL     1       2.552   7.737  18.734  0.00  0.00    +0.000 N 
ATOM      8  C   UNL     1       1.923   7.163  19.900  0.00  0.00    +0.000 C 
ATOM      9  C   UNL     1       1.384   8.375  20.628  0.00  0.00    +0.000 C 
ATOM     10  N   UNL     1       1.145   9.320  19.569  0.00  0.00    +0.000 N 
ATOM     11  C   UNL     1       1.963   8.993  18.450  0.00  0.00    +0.000 C 
ATOM     12  O   UNL     1       2.113   9.660  17.437  0.00  0.00    +0.000 OA
BRANCH  10  13
ATOM     13  C   UNL     1       0.214  10.384  19.632  0.00  0.00    +0.000 A 
ATOM     14  C   UNL     1       0.337  11.319  20.675  0.00  0.00    +0.000 A 
ATOM     15  C   UNL     1      -0.493  12.440  20.764  0.00  0.00    +0.000 A 
ATOM     16  C   UNL     1      -1.484  12.642  19.815  0.00  0.00    +0.000 A 
ATOM     17  C   UNL     1      -1.642  11.728  18.778  0.00  0.00    +0.000 A 
ATOM     18  C   UNL     1      -0.803  10.610  18.674  0.00  0.00    +0.000 A 
ATOM     19 CL   UNL     1      -1.182   9.522  17.382  0.00  0.00    +0.000 Cl
ENDBRANCH  10  13
ENDBRANCH   4   7
BRANCH   1  21
ATOM     20  C   UNL     1       5.840   4.347  14.361  0.00  0.00    +0.000 C 
ATOM     21  O   UNL     1       6.248   5.038  15.523  0.00  0.00    +0.000 OA
ENDBRANCH   1  21
BRANCH   6  22
ATOM     22  O   UNL     1       4.893   3.602  17.824  0.00  0.00    +0.000 OA
BRANCH  22  23
ATOM     23  C   UNL     1       5.113   3.403  19.241  0.00  0.00    +0.000 C 
BRANCH  23  24
ATOM     24  C   UNL     1       4.546   2.109  19.842  0.00  0.00    +0.000 C 
BRANCH  24  25
ATOM     25  N   UNL     1       3.075   2.219  20.082  0.00  0.00    +0.000 NA
ATOM     26  C   UNL     1       2.722   3.440  20.833  0.00  0.00    +0.000 C 
ATOM     27  C   UNL     1       1.214   3.595  21.059  0.00  0.00    +0.000 C 
ATOM     28  C   UNL     1       0.447   3.525  19.751  0.00  0.00    +0.000 C 
ATOM     29  C   UNL     1       0.827   2.255  19.003  0.00  0.00    +0.000 C 
ATOM     30  C   UNL     1       2.344   2.159  18.805  0.00  0.00    +0.000 C 
ENDBRANCH  24  25
ENDBRANCH  23  24
ENDBRANCH  22  23
ENDBRANCH   6  22
TORSDOF 7
ENDMDL
MODEL 7
REMARK VINA RESULT:      -7.0      2.117      4.229
REMARK  Name = 
REMARK  8 active torsions:
REMARK  status: ('A' for Active; 'I' for Inactive)
REMARK    1  A    between atoms: C_1  and  O_2
REMARK    2  A    between atoms: O_2  and  C_3
REMARK    3  A    between atoms: C_6  and  N_7
REMARK    4  A    between atoms: N_10  and  C_11
REMARK    5  A    between atoms: C_21  and  O_22
REMARK    6  A    between atoms: O_22  and  C_23
REMARK    7  A    between atoms: C_23  and  C_24
REMARK    8  A    between atoms: C_24  and  N_25
REMARK                            x       y       z     vdW  Elec       q    Type
REMARK                         _______ _______ _______ _____ _____    ______ ____
ROOT
ATOM      1  C   UNL     1       2.303   4.040  19.857  0.00  0.00    +0.000 A 
ATOM      2  C   UNL     1       2.226   4.995  20.889  0.00  0.00    +0.000 A 
ATOM      3  C   UNL     1       2.143   6.365  20.629  0.00  0.00    +0.000 A 
ATOM      4  C   UNL     1       2.022   6.809  19.321  0.00  0.00    +0.000 A 
ATOM      5  C   UNL     1       2.039   5.854  18.301  0.00  0.00    +0.000 A 
ATOM      6  C   UNL     1       2.285   4.484  18.531  0.00  0.00    +0.000 A 
ENDROOT
BRANCH   4   7
ATOM      7  N   UNL     1       1.871   8.172  18.994  0.00  0.00    +0.000 N 
ATOM      8  C   UNL     1       2.644   8.831  17.969  0.00  0.00    +0.000 C 
ATOM      9  C   UNL     1       1.866  10.104  17.719  0.00  0.00    +0.000 C 
ATOM     10  N   UNL     1       1.227  10.356  18.984  0.00  0.00    +0.000 N 
ATOM     11  C   UNL     1       1.119   9.136  19.711  0.00  0.00    +0.000 C 
ATOM     12  O   UNL     1       0.511   8.961  20.756  0.00  0.00    +0.000 OA
BRANCH  10  13
ATOM     13  C   UNL     1       0.804  11.629  19.436  0.00  0.00    +0.000 A 
ATOM     14  C   UNL     1       1.776  12.522  19.924  0.00  0.00    +0.000 A 
ATOM     15  C   UNL     1       1.451  13.824  20.315  0.00  0.00    +0.000 A 
ATOM     16  C   UNL     1       0.137  14.258  20.244  0.00  0.00    +0.000 A 
ATOM     17  C   UNL     1      -0.851  13.396  19.779  0.00  0.00    +0.000 A 
ATOM     18  C   UNL     1      -0.531  12.094  19.371  0.00  0.00    +0.000 A 
ATOM     19 CL   UNL     1      -1.879  11.117  18.901  0.00  0.00    +0.000 Cl
ENDBRANCH  10  13
ENDBRANCH   4   7
BRANCH   1  21
ATOM     20  C   UNL     1       1.702   2.444  21.555  0.00  0.00    +0.000 C 
ATOM     21  O   UNL     1       2.389   2.778  20.366  0.00  0.00    +0.000 OA
ENDBRANCH   1  21
BRANCH   6  22
ATOM     22  O   UNL     1       2.542   3.633  17.461  0.00  0.00    +0.000 OA
BRANCH  22  23
ATOM     23  C   UNL     1       3.954   3.349  17.323  0.00  0.00    +0.000 C 
BRANCH  23  24
ATOM     24  C   UNL     1       4.768   4.343  16.483  0.00  0.00    +0.000 C 
BRANCH  24  25
ATOM     25  N   UNL     1       5.514   5.306  17.350  0.00  0.00    +0.000 NA
ATOM     26  C   UNL     1       6.007   4.674  18.589  0.00  0.00    +0.000 C 
ATOM     27  C   UNL     1       6.809   5.632  19.478  0.00  0.00    +0.000 C 
ATOM     28  C   UNL     1       7.948   6.278  18.710  0.00  0.00    +0.000 C 
ATOM     29  C   UNL     1       7.408   6.925  17.442  0.00  0.00    +0.000 C 
ATOM     30  C   UNL     1       6.621   5.918  16.596  0.00  0.00    +0.000 C 
ENDBRANCH  24  25
ENDBRANCH  23  24
ENDBRANCH  22  23
ENDBRANCH   6  22
TORSDOF 7
ENDMDL
MODEL 8
REMARK VINA RESULT:      -7.0      0.709      1.106
REMARK  Name = 
REMARK  8 active torsions:
REMARK  status: ('A' for Active; 'I' for Inactive)
REMARK    1  A    between atoms: C_1  and  O_2
REMARK    2  A    between atoms: O_2  and  C_3
REMARK    3  A    between atoms: C_6  and  N_7
REMARK    4  A    between atoms: N_10  and  C_11
REMARK    5  A    between atoms: C_21  and  O_22
REMARK    6  A    between atoms: O_22  and  C_23
REMARK    7  A    between atoms: C_23  and  C_24
REMARK    8  A    between atoms: C_24  and  N_25
REMARK                            x       y       z     vdW  Elec       q    Type
REMARK                         _______ _______ _______ _____ _____    ______ ____
ROOT
ATOM      1  C   UNL     1       5.192   5.113  16.783  0.00  0.00    +0.000 A 
ATOM      2  C   UNL     1       5.535   6.444  17.087  0.00  0.00    +0.000 A 
ATOM      3  C   UNL     1       4.640   7.320  17.706  0.00  0.00    +0.000 A 
ATOM      4  C   UNL     1       3.409   6.851  18.139  0.00  0.00    +0.000 A 
ATOM      5  C   UNL     1       3.094   5.513  17.889  0.00  0.00    +0.000 A 
ATOM      6  C   UNL     1       3.914   4.657  17.123  0.00  0.00    +0.000 A 
ENDROOT
BRANCH   4   7
ATOM      7  N   UNL     1       2.486   7.666  18.826  0.00  0.00    +0.000 N 
ATOM      8  C   UNL     1       1.898   7.301  20.092  0.00  0.00    +0.000 C 
ATOM      9  C   UNL     1       1.333   8.611  20.597  0.00  0.00    +0.000 C 
ATOM     10  N   UNL     1       1.045   9.336  19.387  0.00  0.00    +0.000 N 
ATOM     11  C   UNL     1       1.852   8.831  18.328  0.00  0.00    +0.000 C 
ATOM     12  O   UNL     1       1.962   9.302  17.206  0.00  0.00    +0.000 OA
BRANCH  10  13
ATOM     13  C   UNL     1       0.081  10.367  19.275  0.00  0.00    +0.000 A 
ATOM     14  C   UNL     1      -1.121  10.088  18.600  0.00  0.00    +0.000 A 
ATOM     15  C   UNL     1      -2.154  11.027  18.514  0.00  0.00    +0.000 A 
ATOM     16  C   UNL     1      -1.997  12.280  19.088  0.00  0.00    +0.000 A 
ATOM     17  C   UNL     1      -0.814  12.592  19.749  0.00  0.00    +0.000 A 
ATOM     18  C   UNL     1       0.219  11.651  19.853  0.00  0.00    +0.000 A 
ATOM     19 CL   UNL     1       1.658  12.220  20.628  0.00  0.00    +0.000 Cl
ENDBRANCH  10  13
ENDBRANCH   4   7
BRANCH   1  21
ATOM     20  C   UNL     1       6.409   4.584  14.776  0.00  0.00    +0.000 C 
ATOM     21  O   UNL     1       6.227   4.469  16.172  0.00  0.00    +0.000 OA
ENDBRANCH   1  21
BRANCH   6  22
ATOM     22  O   UNL     1       3.429   3.425  16.698  0.00  0.00    +0.000 OA
BRANCH  22  23
ATOM     23  C   UNL     1       4.222   2.327  17.208  0.00  0.00    +0.000 C 
BRANCH  23  24
ATOM     24  C   UNL     1       3.630   1.556  18.396  0.00  0.00    +0.000 C 
BRANCH  24  25
ATOM     25  N   UNL     1       2.871   2.462  19.310  0.00  0.00    +0.000 NA
ATOM     26  C   UNL     1       1.415   2.233  19.239  0.00  0.00    +0.000 C 
ATOM     27  C   UNL     1       0.616   3.125  20.197  0.00  0.00    +0.000 C 
ATOM     28  C   UNL     1       1.114   2.994  21.624  0.00  0.00    +0.000 C 
ATOM     29  C   UNL     1       2.616   3.240  21.666  0.00  0.00    +0.000 C 
ATOM     30  C   UNL     1       3.359   2.318  20.692  0.00  0.00    +0.000 C 
ENDBRANCH  24  25
ENDBRANCH  23  24
ENDBRANCH  22  23
ENDBRANCH   6  22
TORSDOF 7
ENDMDL
MODEL 9
REMARK VINA RESULT:      -7.0      2.721      8.687
REMARK  Name = 
REMARK  8 active torsions:
REMARK  status: ('A' for Active; 'I' for Inactive)
REMARK    1  A    between atoms: C_1  and  O_2
REMARK    2  A    between atoms: O_2  and  C_3
REMARK    3  A    between atoms: C_6  and  N_7
REMARK    4  A    between atoms: N_10  and  C_11
REMARK    5  A    between atoms: C_21  and  O_22
REMARK    6  A    between atoms: O_22  and  C_23
REMARK    7  A    between atoms: C_23  and  C_24
REMARK    8  A    between atoms: C_24  and  N_25
REMARK                            x       y       z     vdW  Elec       q    Type
REMARK                         _______ _______ _______ _____ _____    ______ ____
ROOT
ATOM      1  C   UNL     1       0.180  10.294  20.505  0.00  0.00    +0.000 A 
ATOM      2  C   UNL     1       0.683   9.413  21.480  0.00  0.00    +0.000 A 
ATOM      3  C   UNL     1       1.387   8.254  21.142  0.00  0.00    +0.000 A 
ATOM      4  C   UNL     1       1.703   8.004  19.815  0.00  0.00    +0.000 A 
ATOM      5  C   UNL     1       1.252   8.912  18.854  0.00  0.00    +0.000 A 
ATOM      6  C   UNL     1       0.403   9.999  19.156  0.00  0.00    +0.000 A 
ENDROOT
BRANCH   4   7
ATOM      7  N   UNL     1       2.464   6.887  19.414  0.00  0.00    +0.000 N 
ATOM      8  C   UNL     1       2.574   5.682  20.200  0.00  0.00    +0.000 C 
ATOM      9  C   UNL     1       3.120   4.677  19.210  0.00  0.00    +0.000 C 
ATOM     10  N   UNL     1       3.865   5.492  18.286  0.00  0.00    +0.000 N 
ATOM     11  C   UNL     1       3.369   6.826  18.326  0.00  0.00    +0.000 C 
ATOM     12  O   UNL     1       3.678   7.742  17.578  0.00  0.00    +0.000 OA
BRANCH  10  13
ATOM     13  C   UNL     1       4.942   5.031  17.491  0.00  0.00    +0.000 A 
ATOM     14  C   UNL     1       4.664   4.565  16.194  0.00  0.00    +0.000 A 
ATOM     15  C   UNL     1       5.679   4.167  15.320  0.00  0.00    +0.000 A 
ATOM     16  C   UNL     1       7.002   4.208  15.734  0.00  0.00    +0.000 A 
ATOM     17  C   UNL     1       7.310   4.650  17.017  0.00  0.00    +0.000 A 
ATOM     18  C   UNL     1       6.298   5.065  17.893  0.00  0.00    +0.000 A 
ATOM     19 CL   UNL     1       6.832   5.504  19.480  0.00  0.00    +0.000 Cl
ENDBRANCH  10  13
ENDBRANCH   4   7
BRANCH   1  21
ATOM     20  C   UNL     1       0.206  12.549  21.345  0.00  0.00    +0.000 C 
ATOM     21  O   UNL     1      -0.477  11.339  21.083  0.00  0.00    +0.000 OA
ENDBRANCH   1  21
BRANCH   6  22
ATOM     22  O   UNL     1      -0.212  10.708  18.129  0.00  0.00    +0.000 OA
BRANCH  22  23
ATOM     23  C   UNL     1      -1.417  10.054  17.669  0.00  0.00    +0.000 C 
BRANCH  23  24
ATOM     24  C   UNL     1      -2.242  10.811  16.618  0.00  0.00    +0.000 C 
BRANCH  24  25
ATOM     25  N   UNL     1      -3.302  11.648  17.257  0.00  0.00    +0.000 NA
ATOM     26  C   UNL     1      -4.639  11.382  16.691  0.00  0.00    +0.000 C 
ATOM     27  C   UNL     1      -5.751  12.201  17.358  0.00  0.00    +0.000 C 
ATOM     28  C   UNL     1      -5.755  12.010  18.864  0.00  0.00    +0.000 C 
ATOM     29  C   UNL     1      -4.366  12.296  19.418  0.00  0.00    +0.000 C 
ATOM     30  C   UNL     1      -3.300  11.446  18.716  0.00  0.00    +0.000 C 
ENDBRANCH  24  25
ENDBRANCH  23  24
ENDBRANCH  22  23
ENDBRANCH   6  22
TORSDOF 7
ENDMDL
