MODEL 1
REMARK VINA RESULT:      -6.6      0.000      0.000
REMARK  Name = 
REMARK  5 active torsions:
REMARK  status: ('A' for Active; 'I' for Inactive)
REMARK    1  A    between atoms: C_1  and  O_2
REMARK    2  A    between atoms: O_2  and  C_3
REMARK    3  A    between atoms: N_9  and  C_10
REMARK    4  A    between atoms: C_16  and  S_17
REMARK    5  A    between atoms: S_17  and  C_18
REMARK                            x       y       z     vdW  Elec       q    Type
REMARK                         _______ _______ _______ _____ _____    ______ ____
ROOT
ATOM      1  C   UNL     1       5.605   5.018  16.187  0.00  0.00    +0.000 A 
ATOM      2  C   UNL     1       5.431   6.374  15.967  0.00  0.00    +0.000 A 
ATOM      3  C   UNL     1       4.452   7.081  16.684  0.00  0.00    +0.000 A 
ATOM      4  C   UNL     1       3.652   6.461  17.643  0.00  0.00    +0.000 A 
ATOM      5  N   UNL     1       2.803   7.193  18.416  0.00  0.00    +0.000 NA
ATOM      6  C   UNL     1       2.129   6.547  19.401  0.00  0.00    +0.000 A 
ATOM      7  N   UNL     1       1.318   7.259  20.315  0.00  0.00    +0.000 N 
ATOM      8  C   UNL     1       2.236   5.145  19.499  0.00  0.00    +0.000 A 
ATOM      9  N   UNL     1       3.042   4.389  18.717  0.00  0.00    +0.000 NA
ATOM     10  C   UNL     1       3.789   5.069  17.821  0.00  0.00    +0.000 A 
ATOM     11  C   UNL     1       4.756   4.384  17.103  0.00  0.00    +0.000 A 
ATOM     12  H   UNL     1       1.121   6.692  21.140  0.00  0.00    +0.000 HD
ENDROOT
BRANCH   7  13
ATOM     13  C   UNL     1       1.729   8.597  20.749  0.00  0.00    +0.000 C 
ATOM     14  C   UNL     1       0.989   9.634  19.877  0.00  0.00    +0.000 C 
ATOM     15  C   UNL     1      -0.388  10.102  20.348  0.00  0.00    +0.000 C 
ATOM     16  C   UNL     1      -0.562  10.311  21.842  0.00  0.00    +0.000 C 
ATOM     17  C   UNL     1       0.194   9.354  22.744  0.00  0.00    +0.000 C 
ATOM     18  C   UNL     1       1.545   8.850  22.252  0.00  0.00    +0.000 C 
ENDBRANCH   7  13
BRANCH   8  19
ATOM     19  S   UNL     1       1.397   4.260  20.821  0.00  0.00    +0.000 S 
ATOM     20  C   UNL     1       0.609   2.900  19.968  0.00  0.00    +0.000 C 
ATOM     21  O   UNL     1       2.534   3.687  21.749  0.00  0.00    +0.000 OA
ENDBRANCH   8  19
BRANCH   1  23
ATOM     22  C   UNL     1       6.592   4.124  14.211  0.00  0.00    +0.000 C 
ATOM     23  O   UNL     1       6.547   4.209  15.633  0.00  0.00    +0.000 OA
ENDBRANCH   1  23
TORSDOF 3
ENDMDL
MODEL 2
REMARK VINA RESULT:      -6.5      2.452      4.632
REMARK  Name = 
REMARK  5 active torsions:
REMARK  status: ('A' for Active; 'I' for Inactive)
REMARK    1  A    between atoms: C_1  and  O_2
REMARK    2  A    between atoms: O_2  and  C_3
REMARK    3  A    between atoms: N_9  and  C_10
REMARK    4  A    between atoms: C_16  and  S_17
REMARK    5  A    between atoms: S_17  and  C_18
REMARK                            x       y       z     vdW  Elec       q    Type
REMARK                         _______ _______ _______ _____ _____    ______ ____
ROOT
ATOM      1  C   UNL     1       7.136   5.452  15.907  0.00  0.00    +0.000 A 
ATOM      2  C   UNL     1       7.507   4.553  16.893  0.00  0.00    +0.000 A 
ATOM      3  C   UNL     1       6.737   4.437  18.062  0.00  0.00    +0.000 A 
ATOM      4  C   UNL     1       5.580   5.190  18.258  0.00  0.00    +0.000 A 
ATOM      5  N   UNL     1       4.781   4.966  19.337  0.00  0.00    +0.000 NA
ATOM      6  C   UNL     1       3.617   5.658  19.417  0.00  0.00    +0.000 A 
ATOM      7  N   UNL     1       2.684   5.397  20.447  0.00  0.00    +0.000 N 
ATOM      8  C   UNL     1       3.348   6.658  18.461  0.00  0.00    +0.000 A 
ATOM      9  N   UNL     1       4.144   6.929  17.401  0.00  0.00    +0.000 NA
ATOM     10  C   UNL     1       5.239   6.148  17.280  0.00  0.00    +0.000 A 
ATOM     11  C   UNL     1       6.010   6.254  16.135  0.00  0.00    +0.000 A 
ATOM     12  H   UNL     1       1.768   5.777  20.210  0.00  0.00    +0.000 HD
ENDROOT
BRANCH   7  13
ATOM     13  C   UNL     1       2.514   4.023  20.931  0.00  0.00    +0.000 C 
ATOM     14  C   UNL     1       1.018   3.659  20.828  0.00  0.00    +0.000 C 
ATOM     15  C   UNL     1       0.523   3.062  19.510  0.00  0.00    +0.000 C 
ATOM     16  C   UNL     1       1.450   2.079  18.818  0.00  0.00    +0.000 C 
ATOM     17  C   UNL     1       2.936   2.359  18.940  0.00  0.00    +0.000 C 
ATOM     18  C   UNL     1       3.421   2.998  20.235  0.00  0.00    +0.000 C 
ENDBRANCH   7  13
BRANCH   8  19
ATOM     19  S   UNL     1       1.793   7.563  18.506  0.00  0.00    +0.000 S 
ATOM     20  C   UNL     1       1.777   8.269  20.148  0.00  0.00    +0.000 C 
ATOM     21  O   UNL     1       1.939   8.726  17.453  0.00  0.00    +0.000 OA
ENDBRANCH   8  19
BRANCH   1  23
ATOM     22  C   UNL     1       7.224   4.879  13.596  0.00  0.00    +0.000 C 
ATOM     23  O   UNL     1       7.726   5.634  14.696  0.00  0.00    +0.000 OA
ENDBRANCH   1  23
TORSDOF 3
ENDMDL
MODEL 3
REMARK VINA RESULT:      -6.5      3.754      5.156
REMARK  Name = 
REMARK  5 active torsions:
REMARK  status: ('A' for Active; 'I' for Inactive)
REMARK    1  A    between atoms: C_1  and  O_2
REMARK    2  A    between atoms: O_2  and  C_3
REMARK    3  A    between atoms: N_9  and  C_10
REMARK    4  A    between atoms: C_16  and  S_17
REMARK    5  A    between atoms: S_17  and  C_18
REMARK                            x       y       z     vdW  Elec       q    Type
REMARK                         _______ _______ _______ _____ _____    ______ ____
ROOT
ATOM      1  C   UNL     1       3.149   6.295  19.222  0.00  0.00    +0.000 A 
ATOM      2  C   UNL     1       3.306   6.929  18.001  0.00  0.00    +0.000 A 
ATOM      3  C   UNL     1       2.630   8.133  17.745  0.00  0.00    +0.000 A 
ATOM      4  C   UNL     1       1.812   8.736  18.700  0.00  0.00    +0.000 A 
ATOM      5  N   UNL     1       1.274   9.966  18.477  0.00  0.00    +0.000 NA
ATOM      6  C   UNL     1       0.574  10.543  19.485  0.00  0.00    +0.000 A 
ATOM      7  N   UNL     1       0.083  11.864  19.367  0.00  0.00    +0.000 N 
ATOM      8  C   UNL     1       0.328   9.802  20.659  0.00  0.00    +0.000 A 
ATOM      9  N   UNL     1       0.817   8.562  20.891  0.00  0.00    +0.000 NA
ATOM     10  C   UNL     1       1.607   8.056  19.919  0.00  0.00    +0.000 A 
ATOM     11  C   UNL     1       2.277   6.867  20.156  0.00  0.00    +0.000 A 
ATOM     12  H   UNL     1      -0.157  12.243  20.284  0.00  0.00    +0.000 HD
ENDROOT
BRANCH   7  13
ATOM     13  C   UNL     1       0.871  12.861  18.637  0.00  0.00    +0.000 C 
ATOM     14  C   UNL     1      -0.051  14.054  18.307  0.00  0.00    +0.000 C 
ATOM     15  C   UNL     1      -0.163  15.171  19.344  0.00  0.00    +0.000 C 
ATOM     16  C   UNL     1       1.112  15.555  20.072  0.00  0.00    +0.000 C 
ATOM     17  C   UNL     1       2.081  14.426  20.368  0.00  0.00    +0.000 C 
ATOM     18  C   UNL     1       2.158  13.290  19.356  0.00  0.00    +0.000 C 
ENDBRANCH   7  13
BRANCH   8  19
ATOM     19  S   UNL     1      -0.555  10.551  22.037  0.00  0.00    +0.000 S 
ATOM     20  C   UNL     1      -0.073   9.539  23.430  0.00  0.00    +0.000 C 
ATOM     21  O   UNL     1       0.061  11.989  22.215  0.00  0.00    +0.000 OA
ENDBRANCH   8  19
BRANCH   1  23
ATOM     22  C   UNL     1       5.066   4.884  19.103  0.00  0.00    +0.000 C 
ATOM     23  O   UNL     1       3.782   5.171  19.652  0.00  0.00    +0.000 OA
ENDBRANCH   1  23
TORSDOF 3
ENDMDL
MODEL 4
REMARK VINA RESULT:      -6.4      3.628      5.267
REMARK  Name = 
REMARK  5 active torsions:
REMARK  status: ('A' for Active; 'I' for Inactive)
REMARK    1  A    between atoms: C_1  and  O_2
REMARK    2  A    between atoms: O_2  and  C_3
REMARK    3  A    between atoms: N_9  and  C_10
REMARK    4  A    between atoms: C_16  and  S_17
REMARK    5  A    between atoms: S_17  and  C_18
REMARK                            x       y       z     vdW  Elec       q    Type
REMARK                         _______ _______ _______ _____ _____    ______ ____
ROOT
ATOM      1  C   UNL     1       7.041   4.579  12.777  0.00  0.00    +0.000 A 
ATOM      2  C   UNL     1       5.860   3.872  12.615  0.00  0.00    +0.000 A 
ATOM      3  C   UNL     1       5.107   3.501  13.741  0.00  0.00    +0.000 A 
ATOM      4  C   UNL     1       5.498   3.844  15.035  0.00  0.00    +0.000 A 
ATOM      5  N   UNL     1       4.685   3.588  16.096  0.00  0.00    +0.000 NA
ATOM      6  C   UNL     1       5.075   4.039  17.315  0.00  0.00    +0.000 A 
ATOM      7  N   UNL     1       4.232   3.911  18.442  0.00  0.00    +0.000 N 
ATOM      8  C   UNL     1       6.346   4.634  17.450  0.00  0.00    +0.000 A 
ATOM      9  N   UNL     1       7.191   4.864  16.418  0.00  0.00    +0.000 NA
ATOM     10  C   UNL     1       6.730   4.510  15.199  0.00  0.00    +0.000 A 
ATOM     11  C   UNL     1       7.465   4.866  14.080  0.00  0.00    +0.000 A 
ATOM     12  H   UNL     1       4.531   4.536  19.191  0.00  0.00    +0.000 HD
ENDROOT
BRANCH   7  13
ATOM     13  C   UNL     1       2.781   4.039  18.274  0.00  0.00    +0.000 C 
ATOM     14  C   UNL     1       2.142   2.662  18.551  0.00  0.00    +0.000 C 
ATOM     15  C   UNL     1       1.760   2.336  19.995  0.00  0.00    +0.000 C 
ATOM     16  C   UNL     1       1.174   3.470  20.817  0.00  0.00    +0.000 C 
ATOM     17  C   UNL     1       1.728   4.854  20.540  0.00  0.00    +0.000 C 
ATOM     18  C   UNL     1       2.152   5.163  19.109  0.00  0.00    +0.000 C 
ENDBRANCH   7  13
BRANCH   8  19
ATOM     19  S   UNL     1       6.878   5.288  19.040  0.00  0.00    +0.000 S 
ATOM     20  C   UNL     1       7.908   6.678  18.586  0.00  0.00    +0.000 C 
ATOM     21  O   UNL     1       5.576   5.829  19.743  0.00  0.00    +0.000 OA
ENDBRANCH   8  19
BRANCH   1  23
ATOM     22  C   UNL     1       8.581   6.258  12.081  0.00  0.00    +0.000 C 
ATOM     23  O   UNL     1       7.844   5.072  11.797  0.00  0.00    +0.000 OA
ENDBRANCH   1  23
TORSDOF 3
ENDMDL
MODEL 5
REMARK VINA RESULT:      -6.3      2.003      6.781
REMARK  Name = 
REMARK  5 active torsions:
REMARK  status: ('A' for Active; 'I' for Inactive)
REMARK    1  A    between atoms: C_1  and  O_2
REMARK    2  A    between atoms: O_2  and  C_3
REMARK    3  A    between atoms: N_9  and  C_10
REMARK    4  A    between atoms: C_16  and  S_17
REMARK    5  A    between atoms: S_17  and  C_18
REMARK                            x       y       z     vdW  Elec       q    Type
REMARK                         _______ _______ _______ _____ _____    ______ ____
ROOT
ATOM      1  C   UNL     1       0.247   8.644  21.186  0.00  0.00    +0.000 A 
ATOM      2  C   UNL     1       0.945   9.375  20.239  0.00  0.00    +0.000 A 
ATOM      3  C   UNL     1       1.982   8.769  19.510  0.00  0.00    +0.000 A 
ATOM      4  C   UNL     1       2.324   7.430  19.691  0.00  0.00    +0.000 A 
ATOM      5  N   UNL     1       3.241   6.833  18.882  0.00  0.00    +0.000 NA
ATOM      6  C   UNL     1       3.454   5.502  19.041  0.00  0.00    +0.000 A 
ATOM      7  N   UNL     1       4.306   4.792  18.165  0.00  0.00    +0.000 N 
ATOM      8  C   UNL     1       2.820   4.830  20.106  0.00  0.00    +0.000 A 
ATOM      9  N   UNL     1       1.934   5.409  20.950  0.00  0.00    +0.000 NA
ATOM     10  C   UNL     1       1.653   6.706  20.698  0.00  0.00    +0.000 A 
ATOM     11  C   UNL     1       0.635   7.317  21.412  0.00  0.00    +0.000 A 
ATOM     12  H   UNL     1       4.138   3.788  18.233  0.00  0.00    +0.000 HD
ENDROOT
BRANCH   7  13
ATOM     13  C   UNL     1       4.354   5.166  16.748  0.00  0.00    +0.000 C 
ATOM     14  C   UNL     1       5.357   6.329  16.592  0.00  0.00    +0.000 C 
ATOM     15  C   UNL     1       6.825   5.972  16.359  0.00  0.00    +0.000 C 
ATOM     16  C   UNL     1       7.102   4.787  15.450  0.00  0.00    +0.000 C 
ATOM     17  C   UNL     1       6.110   3.642  15.523  0.00  0.00    +0.000 C 
ATOM     18  C   UNL     1       4.655   3.995  15.802  0.00  0.00    +0.000 C 
ENDBRANCH   7  13
BRANCH   8  19
ATOM     19  S   UNL     1       3.039   3.057  20.319  0.00  0.00    +0.000 S 
ATOM     20  C   UNL     1       1.773   2.628  21.507  0.00  0.00    +0.000 C 
ATOM     21  O   UNL     1       2.677   2.406  18.931  0.00  0.00    +0.000 OA
ENDBRANCH   8  19
BRANCH   1  23
ATOM     22  C   UNL     1      -0.656  10.213  22.734  0.00  0.00    +0.000 C 
ATOM     23  O   UNL     1      -0.821   9.055  21.919  0.00  0.00    +0.000 OA
ENDBRANCH   1  23
TORSDOF 3
ENDMDL
MODEL 6
REMARK VINA RESULT:      -6.1      3.790      5.446
REMARK  Name = 
REMARK  5 active torsions:
REMARK  status: ('A' for Active; 'I' for Inactive)
REMARK    1  A    between atoms: C_1  and  O_2
REMARK    2  A    between atoms: O_2  and  C_3
REMARK    3  A    between atoms: N_9  and  C_10
REMARK    4  A    between atoms: C_16  and  S_17
REMARK    5  A    between atoms: S_17  and  C_18
REMARK                            x       y       z     vdW  Elec       q    Type
REMARK                         _______ _______ _______ _____ _____    ______ ____
ROOT
ATOM      1  C   UNL     1       7.034   4.486  12.595  0.00  0.00    +0.000 A 
ATOM      2  C   UNL     1       6.018   3.549  12.688  0.00  0.00    +0.000 A 
ATOM      3  C   UNL     1       5.410   3.296  13.929  0.00  0.00    +0.000 A 
ATOM      4  C   UNL     1       5.783   3.982  15.085  0.00  0.00    +0.000 A 
ATOM      5  N   UNL     1       5.091   3.814  16.245  0.00  0.00    +0.000 NA
ATOM      6  C   UNL     1       5.436   4.587  17.305  0.00  0.00    +0.000 A 
ATOM      7  N   UNL     1       4.690   4.549  18.506  0.00  0.00    +0.000 N 
ATOM      8  C   UNL     1       6.562   5.428  17.201  0.00  0.00    +0.000 A 
ATOM      9  N   UNL     1       7.292   5.584  16.072  0.00  0.00    +0.000 NA
ATOM     10  C   UNL     1       6.858   4.890  14.998  0.00  0.00    +0.000 A 
ATOM     11  C   UNL     1       7.451   5.126  13.768  0.00  0.00    +0.000 A 
ATOM     12  H   UNL     1       4.890   5.368  19.080  0.00  0.00    +0.000 HD
ENDROOT
BRANCH   7  13
ATOM     13  C   UNL     1       3.238   4.358  18.445  0.00  0.00    +0.000 C 
ATOM     14  C   UNL     1       2.916   2.946  18.978  0.00  0.00    +0.000 C 
ATOM     15  C   UNL     1       2.690   2.790  20.482  0.00  0.00    +0.000 C 
ATOM     16  C   UNL     1       1.924   3.904  21.174  0.00  0.00    +0.000 C 
ATOM     17  C   UNL     1       2.161   5.307  20.647  0.00  0.00    +0.000 C 
ATOM     18  C   UNL     1       2.433   5.456  19.155  0.00  0.00    +0.000 C 
ENDBRANCH   7  13
BRANCH   8  19
ATOM     19  S   UNL     1       7.022   6.503  18.569  0.00  0.00    +0.000 S 
ATOM     20  C   UNL     1       8.052   5.454  19.586  0.00  0.00    +0.000 C 
ATOM     21  O   UNL     1       7.914   7.641  17.943  0.00  0.00    +0.000 OA
ENDBRANCH   8  19
BRANCH   1  23
ATOM     22  C   UNL     1       7.956   6.287  11.337  0.00  0.00    +0.000 C 
ATOM     23  O   UNL     1       7.672   4.897  11.467  0.00  0.00    +0.000 OA
ENDBRANCH   1  23
TORSDOF 3
ENDMDL
MODEL 7
REMARK VINA RESULT:      -6.1      9.630     12.127
REMARK  Name = 
REMARK  5 active torsions:
REMARK  status: ('A' for Active; 'I' for Inactive)
REMARK    1  A    between atoms: C_1  and  O_2
REMARK    2  A    between atoms: O_2  and  C_3
REMARK    3  A    between atoms: N_9  and  C_10
REMARK    4  A    between atoms: C_16  and  S_17
REMARK    5  A    between atoms: S_17  and  C_18
REMARK                            x       y       z     vdW  Elec       q    Type
REMARK                         _______ _______ _______ _____ _____    ______ ____
ROOT
ATOM      1  C   UNL     1       3.678  16.568  18.897  0.00  0.00    +0.000 A 
ATOM      2  C   UNL     1       3.514  15.269  18.446  0.00  0.00    +0.000 A 
ATOM      3  C   UNL     1       4.632  14.524  18.034  0.00  0.00    +0.000 A 
ATOM      4  C   UNL     1       5.924  15.045  18.087  0.00  0.00    +0.000 A 
ATOM      5  N   UNL     1       7.001  14.260  17.809  0.00  0.00    +0.000 NA
ATOM      6  C   UNL     1       8.236  14.797  17.979  0.00  0.00    +0.000 A 
ATOM      7  N   UNL     1       9.399  14.009  17.819  0.00  0.00    +0.000 N 
ATOM      8  C   UNL     1       8.349  16.162  18.309  0.00  0.00    +0.000 A 
ATOM      9  N   UNL     1       7.295  16.975  18.552  0.00  0.00    +0.000 NA
ATOM     10  C   UNL     1       6.080  16.388  18.489  0.00  0.00    +0.000 A 
ATOM     11  C   UNL     1       4.968  17.112  18.888  0.00  0.00    +0.000 A 
ATOM     12  H   UNL     1      10.204  14.463  18.250  0.00  0.00    +0.000 HD
ENDROOT
BRANCH   7  13
ATOM     13  C   UNL     1       9.376  12.601  18.227  0.00  0.00    +0.000 C 
ATOM     14  C   UNL     1      10.581  11.892  17.574  0.00  0.00    +0.000 C 
ATOM     15  C   UNL     1      11.907  11.902  18.335  0.00  0.00    +0.000 C 
ATOM     16  C   UNL     1      11.828  11.731  19.842  0.00  0.00    +0.000 C 
ATOM     17  C   UNL     1      10.629  12.360  20.525  0.00  0.00    +0.000 C 
ATOM     18  C   UNL     1       9.320  12.393  19.747  0.00  0.00    +0.000 C 
ENDBRANCH   7  13
BRANCH   8  19
ATOM     19  S   UNL     1       9.967  16.897  18.591  0.00  0.00    +0.000 S 
ATOM     20  C   UNL     1       9.580  18.438  19.411  0.00  0.00    +0.000 C 
ATOM     21  O   UNL     1      10.702  15.948  19.611  0.00  0.00    +0.000 OA
ENDBRANCH   8  19
BRANCH   1  23
ATOM     22  C   UNL     1       3.031  18.140  20.566  0.00  0.00    +0.000 C 
ATOM     23  O   UNL     1       2.718  17.393  19.394  0.00  0.00    +0.000 OA
ENDBRANCH   1  23
TORSDOF 3
ENDMDL
MODEL 8
REMARK VINA RESULT:      -6.0      2.218      6.698
REMARK  Name = 
REMARK  5 active torsions:
REMARK  status: ('A' for Active; 'I' for Inactive)
REMARK    1  A    between atoms: C_1  and  O_2
REMARK    2  A    between atoms: O_2  and  C_3
REMARK    3  A    between atoms: N_9  and  C_10
REMARK    4  A    between atoms: C_16  and  S_17
REMARK    5  A    between atoms: S_17  and  C_18
REMARK                            x       y       z     vdW  Elec       q    Type
REMARK                         _______ _______ _______ _____ _____    ______ ____
ROOT
ATOM      1  C   UNL     1      -0.004  10.460  19.711  0.00  0.00    +0.000 A 
ATOM      2  C   UNL     1       0.796  10.818  18.638  0.00  0.00    +0.000 A 
ATOM      3  C   UNL     1       1.820   9.957  18.209  0.00  0.00    +0.000 A 
ATOM      4  C   UNL     1       2.048   8.724  18.819  0.00  0.00    +0.000 A 
ATOM      5  N   UNL     1       2.957   7.853  18.303  0.00  0.00    +0.000 NA
ATOM      6  C   UNL     1       3.058   6.628  18.879  0.00  0.00    +0.000 A 
ATOM      7  N   UNL     1       3.897   5.633  18.329  0.00  0.00    +0.000 N 
ATOM      8  C   UNL     1       2.320   6.360  20.050  0.00  0.00    +0.000 A 
ATOM      9  N   UNL     1       1.439   7.223  20.607  0.00  0.00    +0.000 NA
ATOM     10  C   UNL     1       1.272   8.390  19.949  0.00  0.00    +0.000 A 
ATOM     11  C   UNL     1       0.269   9.251  20.363  0.00  0.00    +0.000 A 
ATOM     12  H   UNL     1       3.650   4.712  18.691  0.00  0.00    +0.000 HD
ENDROOT
BRANCH   7  13
ATOM     13  C   UNL     1       4.047   5.542  16.873  0.00  0.00    +0.000 C 
ATOM     14  C   UNL     1       5.163   6.518  16.444  0.00  0.00    +0.000 C 
ATOM     15  C   UNL     1       6.600   5.994  16.441  0.00  0.00    +0.000 C 
ATOM     16  C   UNL     1       6.803   4.568  15.961  0.00  0.00    +0.000 C 
ATOM     17  C   UNL     1       5.704   3.582  16.307  0.00  0.00    +0.000 C 
ATOM     18  C   UNL     1       4.278   4.115  16.356  0.00  0.00    +0.000 C 
ENDBRANCH   7  13
BRANCH   8  19
ATOM     19  S   UNL     1       2.391   4.733  20.815  0.00  0.00    +0.000 S 
ATOM     20  C   UNL     1       0.898   3.940  20.231  0.00  0.00    +0.000 C 
ATOM     21  O   UNL     1       3.636   4.008  20.176  0.00  0.00    +0.000 OA
ENDBRANCH   8  19
BRANCH   1  23
ATOM     22  C   UNL     1      -1.926  11.796  19.266  0.00  0.00    +0.000 C 
ATOM     23  O   UNL     1      -1.074  11.141  20.202  0.00  0.00    +0.000 OA
ENDBRANCH   1  23
TORSDOF 3
ENDMDL
MODEL 9
REMARK VINA RESULT:      -5.9      5.948      8.296
REMARK  Name = 
REMARK  5 active torsions:
REMARK  status: ('A' for Active; 'I' for Inactive)
REMARK    1  A    between atoms: C_1  and  O_2
REMARK    2  A    between atoms: O_2  and  C_3
REMARK    3  A    between atoms: N_9  and  C_10
REMARK    4  A    between atoms: C_16  and  S_17
REMARK    5  A    between atoms: S_17  and  C_18
REMARK                            x       y       z     vdW  Elec       q    Type
REMARK                         _______ _______ _______ _____ _____    ______ ____
ROOT
ATOM      1  C   UNL     1       0.938   9.638  19.502  0.00  0.00    +0.000 A 
ATOM      2  C   UNL     1       0.860  10.351  20.687  0.00  0.00    +0.000 A 
ATOM      3  C   UNL     1      -0.203  11.245  20.898  0.00  0.00    +0.000 A 
ATOM      4  C   UNL     1      -1.213  11.423  19.953  0.00  0.00    +0.000 A 
ATOM      5  N   UNL     1      -2.299  12.193  20.236  0.00  0.00    +0.000 NA
ATOM      6  C   UNL     1      -3.296  12.244  19.317  0.00  0.00    +0.000 A 
ATOM      7  N   UNL     1      -4.502  12.930  19.588  0.00  0.00    +0.000 N 
ATOM      8  C   UNL     1      -3.111  11.610  18.072  0.00  0.00    +0.000 A 
ATOM      9  N   UNL     1      -2.024  10.871  17.749  0.00  0.00    +0.000 NA
ATOM     10  C   UNL     1      -1.098  10.741  18.724  0.00  0.00    +0.000 A 
ATOM     11  C   UNL     1      -0.042   9.867  18.528  0.00  0.00    +0.000 A 
ATOM     12  H   UNL     1      -5.235  12.640  18.942  0.00  0.00    +0.000 HD
ENDROOT
BRANCH   7  13
ATOM     13  C   UNL     1      -5.043  12.920  20.951  0.00  0.00    +0.000 C 
ATOM     14  C   UNL     1      -5.207  14.384  21.413  0.00  0.00    +0.000 C 
ATOM     15  C   UNL     1      -6.526  15.086  21.090  0.00  0.00    +0.000 C 
ATOM     16  C   UNL     1      -7.789  14.252  21.211  0.00  0.00    +0.000 C 
ATOM     17  C   UNL     1      -7.666  12.790  20.824  0.00  0.00    +0.000 C 
ATOM     18  C   UNL     1      -6.335  12.104  21.104  0.00  0.00    +0.000 C 
ENDBRANCH   7  13
BRANCH   8  19
ATOM     19  S   UNL     1      -4.428  11.614  16.846  0.00  0.00    +0.000 S 
ATOM     20  C   UNL     1      -3.810  10.518  15.576  0.00  0.00    +0.000 C 
ATOM     21  O   UNL     1      -5.669  10.937  17.543  0.00  0.00    +0.000 OA
ENDBRANCH   8  19
BRANCH   1  23
ATOM     22  C   UNL     1       2.211   8.564  17.799  0.00  0.00    +0.000 C 
ATOM     23  O   UNL     1       1.854   8.689  19.173  0.00  0.00    +0.000 OA
ENDBRANCH   1  23
TORSDOF 3
ENDMDL
