MODEL 1
REMARK VINA RESULT:      -7.8      0.000      0.000
REMARK  Name = 
REMARK  6 active torsions:
REMARK  status: ('A' for Active; 'I' for Inactive)
REMARK    1  A    between atoms: C_2  and  C_12
REMARK    2  A    between atoms: N_3  and  C_4
REMARK    3  A    between atoms: C_4  and  C_5
REMARK    4  A    between atoms: C_5  and  N_6
REMARK    5  A    between atoms: C_16  and  S_17
REMARK    6  A    between atoms: S_17  and  N_20
REMARK                            x       y       z     vdW  Elec       q    Type
REMARK                         _______ _______ _______ _____ _____    ______ ____
ROOT
ATOM      1  C   UNL     1       2.995   4.845  18.845  0.00  0.00    +0.000 A 
ATOM      2  C   UNL     1       2.870   3.459  18.768  0.00  0.00    +0.000 A 
ATOM      3  C   UNL     1       3.552   2.759  17.768  0.00  0.00    +0.000 A 
ATOM      4  C   UNL     1       4.350   3.444  16.844  0.00  0.00    +0.000 A 
ATOM      5  C   UNL     1       4.455   4.841  16.905  0.00  0.00    +0.000 A 
ATOM      6  C   UNL     1       3.784   5.538  17.913  0.00  0.00    +0.000 A 
ENDROOT
BRANCH   1   8
ATOM      7  O   UNL     1       1.598   5.092  20.696  0.00  0.00    +0.000 OA
ATOM      8  C   UNL     1       2.320   5.656  19.889  0.00  0.00    +0.000 C 
ATOM      9  N   UNL     1       2.500   7.024  19.839  0.00  0.00    +0.000 N 
ATOM     10  H   UNL     1       3.145   7.444  19.182  0.00  0.00    +0.000 HD
BRANCH   9  11
ATOM     11  C   UNL     1       1.804   7.870  20.799  0.00  0.00    +0.000 C 
BRANCH  11  12
ATOM     12  C   UNL     1       1.144   9.115  20.177  0.00  0.00    +0.000 C 
BRANCH  12  13
ATOM     13  N   UNL     1      -0.261   9.318  20.593  0.00  0.00    +0.000 NA
ATOM     14  C   UNL     1      -0.675  10.741  20.630  0.00  0.00    +0.000 C 
ATOM     15  C   UNL     1      -0.030  11.538  21.773  0.00  0.00    +0.000 C 
ATOM     16  O   UNL     1      -0.354  10.955  23.042  0.00  0.00    +0.000 OA
ATOM     17  C   UNL     1       0.072   9.587  23.096  0.00  0.00    +0.000 C 
ATOM     18  C   UNL     1      -0.521   8.755  21.942  0.00  0.00    +0.000 C 
ENDBRANCH  12  13
ENDBRANCH  11  12
ENDBRANCH   9  11
ENDBRANCH   1   8
BRANCH   5  19
ATOM     19  S   UNL     1       5.605   5.703  15.843  0.00  0.00    +0.000 S 
ATOM     20  O   UNL     1       5.776   4.869  14.672  0.00  0.00    +0.000 OA
ATOM     21  O   UNL     1       5.121   7.064  15.722  0.00  0.00    +0.000 OA
BRANCH  19  22
ATOM     22  N   UNL     1       7.071   5.772  16.665  0.00  0.00    +0.000 NA
ATOM     23  C   UNL     1       7.518   4.672  17.531  0.00  0.00    +0.000 C 
ATOM     24  C   UNL     1       7.467   5.276  18.922  0.00  0.00    +0.000 C 
ATOM     25  C   UNL     1       7.876   6.724  18.705  0.00  0.00    +0.000 C 
ATOM     26  C   UNL     1       7.530   7.042  17.249  0.00  0.00    +0.000 C 
ENDBRANCH  19  22
ENDBRANCH   5  19
TORSDOF 6
ENDMDL
MODEL 2
REMARK VINA RESULT:      -7.8      3.960      7.354
REMARK  Name = 
REMARK  6 active torsions:
REMARK  status: ('A' for Active; 'I' for Inactive)
REMARK    1  A    between atoms: C_2  and  C_12
REMARK    2  A    between atoms: N_3  and  C_4
REMARK    3  A    between atoms: C_4  and  C_5
REMARK    4  A    between atoms: C_5  and  N_6
REMARK    5  A    between atoms: C_16  and  S_17
REMARK    6  A    between atoms: S_17  and  N_20
REMARK                            x       y       z     vdW  Elec       q    Type
REMARK                         _______ _______ _______ _____ _____    ______ ____
ROOT
ATOM      1  C   UNL     1       6.674   5.982  17.374  0.00  0.00    +0.000 A 
ATOM      2  C   UNL     1       6.990   5.435  16.132  0.00  0.00    +0.000 A 
ATOM      3  C   UNL     1       6.040   4.664  15.455  0.00  0.00    +0.000 A 
ATOM      4  C   UNL     1       4.780   4.435  16.023  0.00  0.00    +0.000 A 
ATOM      5  C   UNL     1       4.472   4.963  17.285  0.00  0.00    +0.000 A 
ATOM      6  C   UNL     1       5.417   5.744  17.953  0.00  0.00    +0.000 A 
ENDROOT
BRANCH   1   8
ATOM      7  O   UNL     1       8.177   6.349  19.119  0.00  0.00    +0.000 OA
ATOM      8  C   UNL     1       7.621   6.828  18.144  0.00  0.00    +0.000 C 
ATOM      9  N   UNL     1       7.763   8.141  17.743  0.00  0.00    +0.000 N 
ATOM     10  H   UNL     1       7.318   8.483  16.900  0.00  0.00    +0.000 HD
BRANCH   9  11
ATOM     11  C   UNL     1       8.627   9.030  18.507  0.00  0.00    +0.000 C 
BRANCH  11  12
ATOM     12  C   UNL     1       8.862  10.401  17.844  0.00  0.00    +0.000 C 
BRANCH  12  13
ATOM     13  N   UNL     1       9.105  11.497  18.807  0.00  0.00    +0.000 NA
ATOM     14  C   UNL     1       9.184  12.838  18.181  0.00  0.00    +0.000 C 
ATOM     15  C   UNL     1      10.452  13.049  17.341  0.00  0.00    +0.000 C 
ATOM     16  O   UNL     1      11.626  12.872  18.144  0.00  0.00    +0.000 OA
ATOM     17  C   UNL     1      11.643  11.568  18.738  0.00  0.00    +0.000 C 
ATOM     18  C   UNL     1      10.368  11.296  19.561  0.00  0.00    +0.000 C 
ENDBRANCH  12  13
ENDBRANCH  11  12
ENDBRANCH   9  11
ENDBRANCH   1   8
BRANCH   5  19
ATOM     19  S   UNL     1       2.814   4.823  17.937  0.00  0.00    +0.000 S 
ATOM     20  O   UNL     1       2.307   6.175  18.043  0.00  0.00    +0.000 OA
ATOM     21  O   UNL     1       2.130   3.835  17.127  0.00  0.00    +0.000 OA
BRANCH  19  22
ATOM     22  N   UNL     1       2.951   4.184  19.487  0.00  0.00    +0.000 NA
ATOM     23  C   UNL     1       3.141   2.743  19.709  0.00  0.00    +0.000 C 
ATOM     24  C   UNL     1       1.840   2.313  20.361  0.00  0.00    +0.000 C 
ATOM     25  C   UNL     1       1.454   3.505  21.223  0.00  0.00    +0.000 C 
ATOM     26  C   UNL     1       2.126   4.720  20.581  0.00  0.00    +0.000 C 
ENDBRANCH  19  22
ENDBRANCH   5  19
TORSDOF 6
ENDMDL
MODEL 3
REMARK VINA RESULT:      -7.8      4.428      7.418
REMARK  Name = 
REMARK  6 active torsions:
REMARK  status: ('A' for Active; 'I' for Inactive)
REMARK    1  A    between atoms: C_2  and  C_12
REMARK    2  A    between atoms: N_3  and  C_4
REMARK    3  A    between atoms: C_4  and  C_5
REMARK    4  A    between atoms: C_5  and  N_6
REMARK    5  A    between atoms: C_16  and  S_17
REMARK    6  A    between atoms: S_17  and  N_20
REMARK                            x       y       z     vdW  Elec       q    Type
REMARK                         _______ _______ _______ _____ _____    ______ ____
ROOT
ATOM      1  C   UNL     1       6.521   5.834  17.783  0.00  0.00    +0.000 A 
ATOM      2  C   UNL     1       6.050   6.039  16.487  0.00  0.00    +0.000 A 
ATOM      3  C   UNL     1       5.028   5.224  15.987  0.00  0.00    +0.000 A 
ATOM      4  C   UNL     1       4.486   4.205  16.779  0.00  0.00    +0.000 A 
ATOM      5  C   UNL     1       4.979   3.982  18.073  0.00  0.00    +0.000 A 
ATOM      6  C   UNL     1       5.989   4.804  18.575  0.00  0.00    +0.000 A 
ENDROOT
BRANCH   1   8
ATOM      7  O   UNL     1       8.272   6.190  19.281  0.00  0.00    +0.000 OA
ATOM      8  C   UNL     1       7.588   6.668  18.391  0.00  0.00    +0.000 C 
ATOM      9  N   UNL     1       7.695   7.973  17.952  0.00  0.00    +0.000 N 
ATOM     10  H   UNL     1       7.138   8.313  17.178  0.00  0.00    +0.000 HD
BRANCH   9  11
ATOM     11  C   UNL     1       8.680   8.853  18.566  0.00  0.00    +0.000 C 
BRANCH  11  12
ATOM     12  C   UNL     1       8.779  10.242  17.907  0.00  0.00    +0.000 C 
BRANCH  12  13
ATOM     13  N   UNL     1       9.020  11.342  18.866  0.00  0.00    +0.000 NA
ATOM     14  C   UNL     1       9.041  12.687  18.243  0.00  0.00    +0.000 C 
ATOM     15  C   UNL     1      10.275  12.937  17.364  0.00  0.00    +0.000 C 
ATOM     16  O   UNL     1      11.478  12.792  18.129  0.00  0.00    +0.000 OA
ATOM     17  C   UNL     1      11.552  11.487  18.717  0.00  0.00    +0.000 C 
ATOM     18  C   UNL     1      10.312  11.176  19.579  0.00  0.00    +0.000 C 
ENDBRANCH  12  13
ENDBRANCH  11  12
ENDBRANCH   9  11
ENDBRANCH   1   8
BRANCH   5  19
ATOM     19  S   UNL     1       4.176   2.802  19.148  0.00  0.00    +0.000 S 
ATOM     20  O   UNL     1       3.385   1.945  18.289  0.00  0.00    +0.000 OA
ATOM     21  O   UNL     1       5.208   2.248  20.002  0.00  0.00    +0.000 OA
BRANCH  19  22
ATOM     22  N   UNL     1       3.131   3.673  20.137  0.00  0.00    +0.000 NA
ATOM     23  C   UNL     1       2.633   3.119  21.404  0.00  0.00    +0.000 C 
ATOM     24  C   UNL     1       1.153   2.915  21.141  0.00  0.00    +0.000 C 
ATOM     25  C   UNL     1       0.778   4.084  20.242  0.00  0.00    +0.000 C 
ATOM     26  C   UNL     1       2.072   4.503  19.541  0.00  0.00    +0.000 C 
ENDBRANCH  19  22
ENDBRANCH   5  19
TORSDOF 6
ENDMDL
MODEL 4
REMARK VINA RESULT:      -7.7      4.243      7.114
REMARK  Name = 
REMARK  6 active torsions:
REMARK  status: ('A' for Active; 'I' for Inactive)
REMARK    1  A    between atoms: C_2  and  C_12
REMARK    2  A    between atoms: N_3  and  C_4
REMARK    3  A    between atoms: C_4  and  C_5
REMARK    4  A    between atoms: C_5  and  N_6
REMARK    5  A    between atoms: C_16  and  S_17
REMARK    6  A    between atoms: S_17  and  N_20
REMARK                            x       y       z     vdW  Elec       q    Type
REMARK                         _______ _______ _______ _____ _____    ______ ____
ROOT
ATOM      1  C   UNL     1       6.700   5.891  17.429  0.00  0.00    +0.000 A 
ATOM      2  C   UNL     1       6.483   5.981  16.055  0.00  0.00    +0.000 A 
ATOM      3  C   UNL     1       5.564   5.122  15.443  0.00  0.00    +0.000 A 
ATOM      4  C   UNL     1       4.871   4.172  16.203  0.00  0.00    +0.000 A 
ATOM      5  C   UNL     1       5.109   4.063  17.581  0.00  0.00    +0.000 A 
ATOM      6  C   UNL     1       6.017   4.930  18.192  0.00  0.00    +0.000 A 
ENDROOT
BRANCH   1   8
ATOM      7  O   UNL     1       8.218   6.346  19.140  0.00  0.00    +0.000 OA
ATOM      8  C   UNL     1       7.644   6.779  18.153  0.00  0.00    +0.000 C 
ATOM      9  N   UNL     1       7.763   8.077  17.699  0.00  0.00    +0.000 N 
ATOM     10  H   UNL     1       7.303   8.379  16.848  0.00  0.00    +0.000 HD
BRANCH   9  11
ATOM     11  C   UNL     1       8.623   9.008  18.417  0.00  0.00    +0.000 C 
BRANCH  11  12
ATOM     12  C   UNL     1       8.454  10.478  17.987  0.00  0.00    +0.000 C 
BRANCH  12  13
ATOM     13  N   UNL     1       9.714  11.254  18.007  0.00  0.00    +0.000 NA
ATOM     14  C   UNL     1      10.448  11.173  19.292  0.00  0.00    +0.000 C 
ATOM     15  C   UNL     1       9.755  11.920  20.442  0.00  0.00    +0.000 C 
ATOM     16  O   UNL     1       9.593  13.307  20.117  0.00  0.00    +0.000 OA
ATOM     17  C   UNL     1       8.839  13.461  18.909  0.00  0.00    +0.000 C 
ATOM     18  C   UNL     1       9.476  12.693  17.733  0.00  0.00    +0.000 C 
ENDBRANCH  12  13
ENDBRANCH  11  12
ENDBRANCH   9  11
ENDBRANCH   1   8
BRANCH   5  19
ATOM     19  S   UNL     1       4.106   2.976  18.583  0.00  0.00    +0.000 S 
ATOM     20  O   UNL     1       3.714   1.880  17.721  0.00  0.00    +0.000 OA
ATOM     21  O   UNL     1       4.848   2.731  19.804  0.00  0.00    +0.000 OA
BRANCH  19  22
ATOM     22  N   UNL     1       2.726   3.838  19.007  0.00  0.00    +0.000 NA
ATOM     23  C   UNL     1       2.797   5.022  19.876  0.00  0.00    +0.000 C 
ATOM     24  C   UNL     1       2.102   4.569  21.146  0.00  0.00    +0.000 C 
ATOM     25  C   UNL     1       0.997   3.650  20.648  0.00  0.00    +0.000 C 
ATOM     26  C   UNL     1       1.469   3.126  19.291  0.00  0.00    +0.000 C 
ENDBRANCH  19  22
ENDBRANCH   5  19
TORSDOF 6
ENDMDL
MODEL 5
REMARK VINA RESULT:      -7.7      3.939      6.920
REMARK  Name = 
REMARK  6 active torsions:
REMARK  status: ('A' for Active; 'I' for Inactive)
REMARK    1  A    between atoms: C_2  and  C_12
REMARK    2  A    between atoms: N_3  and  C_4
REMARK    3  A    between atoms: C_4  and  C_5
REMARK    4  A    between atoms: C_5  and  N_6
REMARK    5  A    between atoms: C_16  and  S_17
REMARK    6  A    between atoms: S_17  and  N_20
REMARK                            x       y       z     vdW  Elec       q    Type
REMARK                         _______ _______ _______ _____ _____    ______ ____
ROOT
ATOM      1  C   UNL     1       6.785   5.798  17.449  0.00  0.00    +0.000 A 
ATOM      2  C   UNL     1       6.678   5.784  16.059  0.00  0.00    +0.000 A 
ATOM      3  C   UNL     1       5.786   4.899  15.444  0.00  0.00    +0.000 A 
ATOM      4  C   UNL     1       5.011   4.026  16.217  0.00  0.00    +0.000 A 
ATOM      5  C   UNL     1       5.138   4.021  17.614  0.00  0.00    +0.000 A 
ATOM      6  C   UNL     1       6.019   4.915  18.227  0.00  0.00    +0.000 A 
ENDROOT
BRANCH   1   8
ATOM      7  O   UNL     1       8.265   6.317  19.174  0.00  0.00    +0.000 OA
ATOM      8  C   UNL     1       7.692   6.721  18.175  0.00  0.00    +0.000 C 
ATOM      9  N   UNL     1       7.781   8.017  17.707  0.00  0.00    +0.000 N 
ATOM     10  H   UNL     1       7.324   8.296  16.847  0.00  0.00    +0.000 HD
BRANCH   9  11
ATOM     11  C   UNL     1       8.604   8.980  18.426  0.00  0.00    +0.000 C 
BRANCH  11  12
ATOM     12  C   UNL     1       8.486  10.424  17.900  0.00  0.00    +0.000 C 
BRANCH  12  13
ATOM     13  N   UNL     1       9.720  11.222  18.065  0.00  0.00    +0.000 NA
ATOM     14  C   UNL     1      10.259  11.213  19.446  0.00  0.00    +0.000 C 
ATOM     15  C   UNL     1       9.398  11.999  20.446  0.00  0.00    +0.000 C 
ATOM     16  O   UNL     1       9.269  13.366  20.036  0.00  0.00    +0.000 OA
ATOM     17  C   UNL     1       8.698  13.452  18.724  0.00  0.00    +0.000 C 
ATOM     18  C   UNL     1       9.509  12.643  17.692  0.00  0.00    +0.000 C 
ENDBRANCH  12  13
ENDBRANCH  11  12
ENDBRANCH   9  11
ENDBRANCH   1   8
BRANCH   5  19
ATOM     19  S   UNL     1       4.031   3.038  18.614  0.00  0.00    +0.000 S 
ATOM     20  O   UNL     1       3.544   1.980  17.755  0.00  0.00    +0.000 OA
ATOM     21  O   UNL     1       4.739   2.732  19.841  0.00  0.00    +0.000 OA
BRANCH  19  22
ATOM     22  N   UNL     1       2.735   4.028  19.025  0.00  0.00    +0.000 NA
ATOM     23  C   UNL     1       1.958   4.740  18.000  0.00  0.00    +0.000 C 
ATOM     24  C   UNL     1       2.296   6.198  18.252  0.00  0.00    +0.000 C 
ATOM     25  C   UNL     1       2.437   6.282  19.764  0.00  0.00    +0.000 C 
ATOM     26  C   UNL     1       2.803   4.871  20.229  0.00  0.00    +0.000 C 
ENDBRANCH  19  22
ENDBRANCH   5  19
TORSDOF 6
ENDMDL
MODEL 6
REMARK VINA RESULT:      -7.7      4.007      7.252
REMARK  Name = 
REMARK  6 active torsions:
REMARK  status: ('A' for Active; 'I' for Inactive)
REMARK    1  A    between atoms: C_2  and  C_12
REMARK    2  A    between atoms: N_3  and  C_4
REMARK    3  A    between atoms: C_4  and  C_5
REMARK    4  A    between atoms: C_5  and  N_6
REMARK    5  A    between atoms: C_16  and  S_17
REMARK    6  A    between atoms: S_17  and  N_20
REMARK                            x       y       z     vdW  Elec       q    Type
REMARK                         _______ _______ _______ _____ _____    ______ ____
ROOT
ATOM      1  C   UNL     1       6.800   5.888  17.484  0.00  0.00    +0.000 A 
ATOM      2  C   UNL     1       6.662   5.938  16.097  0.00  0.00    +0.000 A 
ATOM      3  C   UNL     1       5.747   5.090  15.464  0.00  0.00    +0.000 A 
ATOM      4  C   UNL     1       4.980   4.190  16.214  0.00  0.00    +0.000 A 
ATOM      5  C   UNL     1       5.139   4.122  17.606  0.00  0.00    +0.000 A 
ATOM      6  C   UNL     1       6.042   4.978  18.238  0.00  0.00    +0.000 A 
ENDROOT
BRANCH   1   8
ATOM      7  O   UNL     1       8.306   6.321  19.210  0.00  0.00    +0.000 OA
ATOM      8  C   UNL     1       7.733   6.769  18.230  0.00  0.00    +0.000 C 
ATOM      9  N   UNL     1       7.845   8.077  17.802  0.00  0.00    +0.000 N 
ATOM     10  H   UNL     1       7.387   8.392  16.955  0.00  0.00    +0.000 HD
BRANCH   9  11
ATOM     11  C   UNL     1       8.695   8.999  18.543  0.00  0.00    +0.000 C 
BRANCH  11  12
ATOM     12  C   UNL     1       8.642  10.451  18.030  0.00  0.00    +0.000 C 
BRANCH  12  13
ATOM     13  N   UNL     1       9.135  11.447  19.006  0.00  0.00    +0.000 NA
ATOM     14  C   UNL     1       9.052  12.848  18.526  0.00  0.00    +0.000 C 
ATOM     15  C   UNL     1      10.055  13.174  17.410  0.00  0.00    +0.000 C 
ATOM     16  O   UNL     1      11.398  12.943  17.854  0.00  0.00    +0.000 OA
ATOM     17  C   UNL     1      11.566  11.585  18.281  0.00  0.00    +0.000 C 
ATOM     18  C   UNL     1      10.551  11.200  19.376  0.00  0.00    +0.000 C 
ENDBRANCH  12  13
ENDBRANCH  11  12
ENDBRANCH   9  11
ENDBRANCH   1   8
BRANCH   5  19
ATOM     19  S   UNL     1       4.044   3.105  18.586  0.00  0.00    +0.000 S 
ATOM     20  O   UNL     1       3.565   2.061  17.703  0.00  0.00    +0.000 OA
ATOM     21  O   UNL     1       4.758   2.777  19.804  0.00  0.00    +0.000 OA
BRANCH  19  22
ATOM     22  N   UNL     1       2.739   4.072  19.022  0.00  0.00    +0.000 NA
ATOM     23  C   UNL     1       1.923   4.762  18.013  0.00  0.00    +0.000 C 
ATOM     24  C   UNL     1       2.238   6.227  18.246  0.00  0.00    +0.000 C 
ATOM     25  C   UNL     1       2.415   6.325  19.754  0.00  0.00    +0.000 C 
ATOM     26  C   UNL     1       2.821   4.925  20.219  0.00  0.00    +0.000 C 
ENDBRANCH  19  22
ENDBRANCH   5  19
TORSDOF 6
ENDMDL
MODEL 7
REMARK VINA RESULT:      -7.6      1.915      2.298
REMARK  Name = 
REMARK  6 active torsions:
REMARK  status: ('A' for Active; 'I' for Inactive)
REMARK    1  A    between atoms: C_2  and  C_12
REMARK    2  A    between atoms: N_3  and  C_4
REMARK    3  A    between atoms: C_4  and  C_5
REMARK    4  A    between atoms: C_5  and  N_6
REMARK    5  A    between atoms: C_16  and  S_17
REMARK    6  A    between atoms: S_17  and  N_20
REMARK                            x       y       z     vdW  Elec       q    Type
REMARK                         _______ _______ _______ _____ _____    ______ ____
ROOT
ATOM      1  C   UNL     1       3.019   6.153  18.306  0.00  0.00    +0.000 A 
ATOM      2  C   UNL     1       2.545   4.958  18.845  0.00  0.00    +0.000 A 
ATOM      3  C   UNL     1       3.086   3.743  18.412  0.00  0.00    +0.000 A 
ATOM      4  C   UNL     1       4.092   3.724  17.438  0.00  0.00    +0.000 A 
ATOM      5  C   UNL     1       4.550   4.925  16.877  0.00  0.00    +0.000 A 
ATOM      6  C   UNL     1       4.019   6.138  17.320  0.00  0.00    +0.000 A 
ENDROOT
BRANCH   1   8
ATOM      7  O   UNL     1       2.091   7.616  19.867  0.00  0.00    +0.000 OA
ATOM      8  C   UNL     1       2.511   7.482  18.729  0.00  0.00    +0.000 C 
ATOM      9  N   UNL     1       2.483   8.479  17.774  0.00  0.00    +0.000 N 
ATOM     10  H   UNL     1       2.886   8.337  16.856  0.00  0.00    +0.000 HD
BRANCH   9  11
ATOM     11  C   UNL     1       1.929   9.781  18.119  0.00  0.00    +0.000 C 
BRANCH  11  12
ATOM     12  C   UNL     1       0.397   9.870  17.977  0.00  0.00    +0.000 C 
BRANCH  12  13
ATOM     13  N   UNL     1      -0.289  10.336  19.202  0.00  0.00    +0.000 NA
ATOM     14  C   UNL     1      -1.665  10.836  18.964  0.00  0.00    +0.000 C 
ATOM     15  C   UNL     1      -1.710  12.173  18.211  0.00  0.00    +0.000 C 
ATOM     16  O   UNL     1      -0.996  13.184  18.933  0.00  0.00    +0.000 OA
ATOM     17  C   UNL     1       0.365  12.790  19.149  0.00  0.00    +0.000 C 
ATOM     18  C   UNL     1       0.460  11.430  19.870  0.00  0.00    +0.000 C 
ENDBRANCH  12  13
ENDBRANCH  11  12
ENDBRANCH   9  11
ENDBRANCH   1   8
BRANCH   5  19
ATOM     19  S   UNL     1       5.949   4.921  15.766  0.00  0.00    +0.000 S 
ATOM     20  O   UNL     1       6.129   3.546  15.348  0.00  0.00    +0.000 OA
ATOM     21  O   UNL     1       5.712   5.968  14.793  0.00  0.00    +0.000 OA
BRANCH  19  22
ATOM     22  N   UNL     1       7.292   5.380  16.669  0.00  0.00    +0.000 NA
ATOM     23  C   UNL     1       7.705   4.633  17.866  0.00  0.00    +0.000 C 
ATOM     24  C   UNL     1       7.435   5.604  18.999  0.00  0.00    +0.000 C 
ATOM     25  C   UNL     1       7.762   6.963  18.399  0.00  0.00    +0.000 C 
ATOM     26  C   UNL     1       7.581   6.807  16.888  0.00  0.00    +0.000 C 
ENDBRANCH  19  22
ENDBRANCH   5  19
TORSDOF 6
ENDMDL
MODEL 8
REMARK VINA RESULT:      -7.6      3.865      6.992
REMARK  Name = 
REMARK  6 active torsions:
REMARK  status: ('A' for Active; 'I' for Inactive)
REMARK    1  A    between atoms: C_2  and  C_12
REMARK    2  A    between atoms: N_3  and  C_4
REMARK    3  A    between atoms: C_4  and  C_5
REMARK    4  A    between atoms: C_5  and  N_6
REMARK    5  A    between atoms: C_16  and  S_17
REMARK    6  A    between atoms: S_17  and  N_20
REMARK                            x       y       z     vdW  Elec       q    Type
REMARK                         _______ _______ _______ _____ _____    ______ ____
ROOT
ATOM      1  C   UNL     1       6.629   5.831  17.371  0.00  0.00    +0.000 A 
ATOM      2  C   UNL     1       6.939   5.237  16.149  0.00  0.00    +0.000 A 
ATOM      3  C   UNL     1       5.972   4.472  15.489  0.00  0.00    +0.000 A 
ATOM      4  C   UNL     1       4.703   4.296  16.054  0.00  0.00    +0.000 A 
ATOM      5  C   UNL     1       4.400   4.871  17.297  0.00  0.00    +0.000 A 
ATOM      6  C   UNL     1       5.363   5.646  17.948  0.00  0.00    +0.000 A 
ENDROOT
BRANCH   1   8
ATOM      7  O   UNL     1       8.176   6.188  19.080  0.00  0.00    +0.000 OA
ATOM      8  C   UNL     1       7.594   6.673  18.122  0.00  0.00    +0.000 C 
ATOM      9  N   UNL     1       7.724   7.989  17.726  0.00  0.00    +0.000 N 
ATOM     10  H   UNL     1       7.258   8.335  16.896  0.00  0.00    +0.000 HD
BRANCH   9  11
ATOM     11  C   UNL     1       8.606   8.875  18.474  0.00  0.00    +0.000 C 
BRANCH  11  12
ATOM     12  C   UNL     1       8.519  10.353  18.049  0.00  0.00    +0.000 C 
BRANCH  12  13
ATOM     13  N   UNL     1       9.768  11.113  18.272  0.00  0.00    +0.000 NA
ATOM     14  C   UNL     1      10.129  11.267  19.702  0.00  0.00    +0.000 C 
ATOM     15  C   UNL     1       9.198  12.217  20.470  0.00  0.00    +0.000 C 
ATOM     16  O   UNL     1       9.203  13.520  19.876  0.00  0.00    +0.000 OA
ATOM     17  C   UNL     1       8.806  13.453  18.500  0.00  0.00    +0.000 C 
ATOM     18  C   UNL     1       9.690  12.479  17.696  0.00  0.00    +0.000 C 
ENDBRANCH  12  13
ENDBRANCH  11  12
ENDBRANCH   9  11
ENDBRANCH   1   8
BRANCH   5  19
ATOM     19  S   UNL     1       2.735   4.797  17.939  0.00  0.00    +0.000 S 
ATOM     20  O   UNL     1       2.245   6.160  17.947  0.00  0.00    +0.000 OA
ATOM     21  O   UNL     1       2.045   3.765  17.192  0.00  0.00    +0.000 OA
BRANCH  19  22
ATOM     22  N   UNL     1       2.848   4.264  19.530  0.00  0.00    +0.000 NA
ATOM     23  C   UNL     1       3.204   2.874  19.851  0.00  0.00    +0.000 C 
ATOM     24  C   UNL     1       1.928   2.314  20.450  0.00  0.00    +0.000 C 
ATOM     25  C   UNL     1       1.338   3.490  21.214  0.00  0.00    +0.000 C 
ATOM     26  C   UNL     1       1.891   4.746  20.539  0.00  0.00    +0.000 C 
ENDBRANCH  19  22
ENDBRANCH   5  19
TORSDOF 6
ENDMDL
MODEL 9
REMARK VINA RESULT:      -7.6      1.606      2.047
REMARK  Name = 
REMARK  6 active torsions:
REMARK  status: ('A' for Active; 'I' for Inactive)
REMARK    1  A    between atoms: C_2  and  C_12
REMARK    2  A    between atoms: N_3  and  C_4
REMARK    3  A    between atoms: C_4  and  C_5
REMARK    4  A    between atoms: C_5  and  N_6
REMARK    5  A    between atoms: C_16  and  S_17
REMARK    6  A    between atoms: S_17  and  N_20
REMARK                            x       y       z     vdW  Elec       q    Type
REMARK                         _______ _______ _______ _____ _____    ______ ____
ROOT
ATOM      1  C   UNL     1       2.970   5.362  18.710  0.00  0.00    +0.000 A 
ATOM      2  C   UNL     1       2.739   3.993  18.835  0.00  0.00    +0.000 A 
ATOM      3  C   UNL     1       3.378   3.104  17.965  0.00  0.00    +0.000 A 
ATOM      4  C   UNL     1       4.237   3.583  16.969  0.00  0.00    +0.000 A 
ATOM      5  C   UNL     1       4.448   4.962  16.826  0.00  0.00    +0.000 A 
ATOM      6  C   UNL     1       3.821   5.848  17.705  0.00  0.00    +0.000 A 
ENDROOT
BRANCH   1   8
ATOM      7  O   UNL     1       1.939   6.006  20.700  0.00  0.00    +0.000 OA
ATOM      8  C   UNL     1       2.346   6.367  19.608  0.00  0.00    +0.000 C 
ATOM      9  N   UNL     1       2.204   7.649  19.116  0.00  0.00    +0.000 N 
ATOM     10  H   UNL     1       2.600   7.915  18.223  0.00  0.00    +0.000 HD
BRANCH   9  11
ATOM     11  C   UNL     1       1.536   8.655  19.931  0.00  0.00    +0.000 C 
BRANCH  11  12
ATOM     12  C   UNL     1       1.116   9.917  19.153  0.00  0.00    +0.000 C 
BRANCH  12  13
ATOM     13  N   UNL     1       0.378  10.904  19.970  0.00  0.00    +0.000 NA
ATOM     14  C   UNL     1      -1.051  11.039  19.600  0.00  0.00    +0.000 C 
ATOM     15  C   UNL     1      -1.271  11.724  18.243  0.00  0.00    +0.000 C 
ATOM     16  O   UNL     1      -0.693  13.035  18.239  0.00  0.00    +0.000 OA
ATOM     17  C   UNL     1       0.708  12.974  18.535  0.00  0.00    +0.000 C 
ATOM     18  C   UNL     1       0.980  12.258  19.873  0.00  0.00    +0.000 C 
ENDBRANCH  12  13
ENDBRANCH  11  12
ENDBRANCH   9  11
ENDBRANCH   1   8
BRANCH   5  19
ATOM     19  S   UNL     1       5.674   5.570  15.677  0.00  0.00    +0.000 S 
ATOM     20  O   UNL     1       5.843   4.531  14.681  0.00  0.00    +0.000 OA
ATOM     21  O   UNL     1       5.261   6.905  15.294  0.00  0.00    +0.000 OA
BRANCH  19  22
ATOM     22  N   UNL     1       7.113   5.724  16.533  0.00  0.00    +0.000 NA
ATOM     23  C   UNL     1       7.607   4.649  17.406  0.00  0.00    +0.000 C 
ATOM     24  C   UNL     1       7.485   5.241  18.797  0.00  0.00    +0.000 C 
ATOM     25  C   UNL     1       7.810   6.713  18.595  0.00  0.00    +0.000 C 
ATOM     26  C   UNL     1       7.480   7.017  17.132  0.00  0.00    +0.000 C 
ENDBRANCH  19  22
ENDBRANCH   5  19
TORSDOF 6
ENDMDL
