MODEL 1
REMARK VINA RESULT:      -7.6      0.000      0.000
REMARK  Name = 
REMARK  8 active torsions:
REMARK  status: ('A' for Active; 'I' for Inactive)
REMARK    1  A    between atoms: C_1  and  N_2
REMARK    2  A    between atoms: C_8  and  C_9
REMARK    3  A    between atoms: C_9  and  N_10
REMARK    4  A    between atoms: N_16  and  C_17
REMARK    5  A    between atoms: C_17  and  C_18
REMARK    6  A    between atoms: C_18  and  C_19
REMARK    7  A    between atoms: C_19  and  C_20
REMARK    8  A    between atoms: N_26  and  C_27
REMARK                            x       y       z     vdW  Elec       q    Type
REMARK                         _______ _______ _______ _____ _____    ______ ____
ROOT
ATOM      1  C   UNL     1       1.333  12.018  18.754  0.00  0.00    +0.000 C 
ATOM      2  N   UNL     1       1.324  10.740  19.437  0.00  0.00    +0.000 N 
ATOM      3  C   UNL     1       1.663   9.582  18.715  0.00  0.00    +0.000 A 
ATOM      4  O   UNL     1       1.967   9.578  17.525  0.00  0.00    +0.000 OA
ATOM      5  C   UNL     1       1.612   8.396  19.510  0.00  0.00    +0.000 A 
ATOM      6  C   UNL     1       1.281   8.428  20.830  0.00  0.00    +0.000 A 
ATOM      7  N   UNL     1       1.286   7.204  21.386  0.00  0.00    +0.000 NA
ATOM      8  C   UNL     1       1.565   6.362  20.407  0.00  0.00    +0.000 A 
ATOM      9  N   UNL     1       1.829   7.062  19.232  0.00  0.00    +0.000 N 
ATOM     10  N   UNL     1       0.959   9.583  21.492  0.00  0.00    +0.000 N 
ATOM     11  C   UNL     1       0.594   9.569  22.896  0.00  0.00    +0.000 C 
ATOM     12  C   UNL     1       0.974  10.787  20.801  0.00  0.00    +0.000 A 
ATOM     13  O   UNL     1       0.692  11.853  21.360  0.00  0.00    +0.000 OA
ENDROOT
BRANCH   8  14
ATOM     14  C   UNL     1       1.588   4.861  20.586  0.00  0.00    +0.000 C 
BRANCH  14  15
ATOM     15  N   UNL     1       2.384   4.180  19.534  0.00  0.00    +0.000 NA
ATOM     16  C   UNL     1       3.478   3.383  20.109  0.00  0.00    +0.000 C 
ATOM     17  C   UNL     1       4.308   2.673  19.036  0.00  0.00    +0.000 C 
ATOM     18  C   UNL     1       3.426   1.817  18.141  0.00  0.00    +0.000 C 
ATOM     19  C   UNL     1       2.315   2.672  17.549  0.00  0.00    +0.000 C 
ATOM     20  C   UNL     1       1.525   3.394  18.644  0.00  0.00    +0.000 C 
ENDBRANCH  14  15
ENDBRANCH   8  14
BRANCH   9  21
ATOM     21  C   UNL     1       2.163   6.507  17.931  0.00  0.00    +0.000 C 
BRANCH  21  22
ATOM     22  C   UNL     1       3.502   6.973  17.346  0.00  0.00    +0.000 C 
BRANCH  22  23
ATOM     23  C   UNL     1       4.521   5.845  17.165  0.00  0.00    +0.000 C 
BRANCH  23  24
ATOM     24  C   UNL     1       5.862   6.188  17.770  0.00  0.00    +0.000 A 
ATOM     25  C   UNL     1       6.605   7.271  17.279  0.00  0.00    +0.000 A 
ATOM     26  C   UNL     1       7.848   7.589  17.831  0.00  0.00    +0.000 A 
ATOM     27  C   UNL     1       8.360   6.831  18.882  0.00  0.00    +0.000 A 
ATOM     28  C   UNL     1       7.635   5.751  19.376  0.00  0.00    +0.000 A 
ATOM     29  C   UNL     1       6.393   5.427  18.821  0.00  0.00    +0.000 A 
ENDBRANCH  23  24
ENDBRANCH  22  23
ENDBRANCH  21  22
ENDBRANCH   9  21
TORSDOF 6
ENDMDL
MODEL 2
REMARK VINA RESULT:      -7.5      1.482      2.042
REMARK  Name = 
REMARK  8 active torsions:
REMARK  status: ('A' for Active; 'I' for Inactive)
REMARK    1  A    between atoms: C_1  and  N_2
REMARK    2  A    between atoms: C_8  and  C_9
REMARK    3  A    between atoms: C_9  and  N_10
REMARK    4  A    between atoms: N_16  and  C_17
REMARK    5  A    between atoms: C_17  and  C_18
REMARK    6  A    between atoms: C_18  and  C_19
REMARK    7  A    between atoms: C_19  and  C_20
REMARK    8  A    between atoms: N_26  and  C_27
REMARK                            x       y       z     vdW  Elec       q    Type
REMARK                         _______ _______ _______ _____ _____    ______ ____
ROOT
ATOM      1  C   UNL     1       1.450  11.593  18.131  0.00  0.00    +0.000 C 
ATOM      2  N   UNL     1       1.417  10.402  18.956  0.00  0.00    +0.000 N 
ATOM      3  C   UNL     1       1.963   9.210  18.448  0.00  0.00    +0.000 A 
ATOM      4  O   UNL     1       2.472   9.105  17.335  0.00  0.00    +0.000 OA
ATOM      5  C   UNL     1       1.863   8.118  19.364  0.00  0.00    +0.000 A 
ATOM      6  C   UNL     1       1.303   8.262  20.597  0.00  0.00    +0.000 A 
ATOM      7  N   UNL     1       1.302   7.112  21.294  0.00  0.00    +0.000 NA
ATOM      8  C   UNL     1       1.812   6.199  20.486  0.00  0.00    +0.000 A 
ATOM      9  N   UNL     1       2.224   6.788  19.294  0.00  0.00    +0.000 N 
ATOM     10  N   UNL     1       0.784   9.446  21.048  0.00  0.00    +0.000 N 
ATOM     11  C   UNL     1       0.180   9.550  22.363  0.00  0.00    +0.000 C 
ATOM     12  C   UNL     1       0.830  10.564  20.226  0.00  0.00    +0.000 A 
ATOM     13  O   UNL     1       0.375  11.653  20.594  0.00  0.00    +0.000 OA
ENDROOT
BRANCH   8  14
ATOM     14  C   UNL     1       1.915   4.736  20.850  0.00  0.00    +0.000 C 
BRANCH  14  15
ATOM     15  N   UNL     1       2.582   3.937  19.792  0.00  0.00    +0.000 NA
ATOM     16  C   UNL     1       3.611   3.045  20.349  0.00  0.00    +0.000 C 
ATOM     17  C   UNL     1       4.308   2.212  19.269  0.00  0.00    +0.000 C 
ATOM     18  C   UNL     1       3.297   1.428  18.447  0.00  0.00    +0.000 C 
ATOM     19  C   UNL     1       2.257   2.379  17.872  0.00  0.00    +0.000 C 
ATOM     20  C   UNL     1       1.602   3.219  18.971  0.00  0.00    +0.000 C 
ENDBRANCH  14  15
ENDBRANCH   8  14
BRANCH   9  21
ATOM     21  C   UNL     1       2.823   6.130  18.145  0.00  0.00    +0.000 C 
BRANCH  21  22
ATOM     22  C   UNL     1       4.318   6.405  17.938  0.00  0.00    +0.000 C 
BRANCH  22  23
ATOM     23  C   UNL     1       5.176   5.138  17.891  0.00  0.00    +0.000 C 
BRANCH  23  24
ATOM     24  C   UNL     1       5.714   4.866  16.505  0.00  0.00    +0.000 A 
ATOM     25  C   UNL     1       4.907   4.246  15.542  0.00  0.00    +0.000 A 
ATOM     26  C   UNL     1       5.400   3.988  14.261  0.00  0.00    +0.000 A 
ATOM     27  C   UNL     1       6.704   4.351  13.928  0.00  0.00    +0.000 A 
ATOM     28  C   UNL     1       7.517   4.963  14.877  0.00  0.00    +0.000 A 
ATOM     29  C   UNL     1       7.027   5.217  16.162  0.00  0.00    +0.000 A 
ENDBRANCH  23  24
ENDBRANCH  22  23
ENDBRANCH  21  22
ENDBRANCH   9  21
TORSDOF 6
ENDMDL
MODEL 3
REMARK VINA RESULT:      -7.4      3.262      6.324
REMARK  Name = 
REMARK  8 active torsions:
REMARK  status: ('A' for Active; 'I' for Inactive)
REMARK    1  A    between atoms: C_1  and  N_2
REMARK    2  A    between atoms: C_8  and  C_9
REMARK    3  A    between atoms: C_9  and  N_10
REMARK    4  A    between atoms: N_16  and  C_17
REMARK    5  A    between atoms: C_17  and  C_18
REMARK    6  A    between atoms: C_18  and  C_19
REMARK    7  A    between atoms: C_19  and  C_20
REMARK    8  A    between atoms: N_26  and  C_27
REMARK                            x       y       z     vdW  Elec       q    Type
REMARK                         _______ _______ _______ _____ _____    ______ ____
ROOT
ATOM      1  C   UNL     1       4.961   1.765  20.454  0.00  0.00    +0.000 C 
ATOM      2  N   UNL     1       4.197   2.895  19.962  0.00  0.00    +0.000 N 
ATOM      3  C   UNL     1       4.870   3.922  19.277  0.00  0.00    +0.000 A 
ATOM      4  O   UNL     1       6.080   3.930  19.065  0.00  0.00    +0.000 OA
ATOM      5  C   UNL     1       3.998   4.970  18.851  0.00  0.00    +0.000 A 
ATOM      6  C   UNL     1       2.658   4.933  19.090  0.00  0.00    +0.000 A 
ATOM      7  N   UNL     1       2.025   6.020  18.613  0.00  0.00    +0.000 NA
ATOM      8  C   UNL     1       2.969   6.798  18.112  0.00  0.00    +0.000 A 
ATOM      9  N   UNL     1       4.206   6.163  18.189  0.00  0.00    +0.000 N 
ATOM     10  N   UNL     1       2.047   3.909  19.762  0.00  0.00    +0.000 N 
ATOM     11  C   UNL     1       0.618   3.919  20.011  0.00  0.00    +0.000 C 
ATOM     12  C   UNL     1       2.813   2.846  20.221  0.00  0.00    +0.000 A 
ATOM     13  O   UNL     1       2.302   1.901  20.831  0.00  0.00    +0.000 OA
ENDROOT
BRANCH   8  14
ATOM     14  C   UNL     1       2.695   8.171  17.543  0.00  0.00    +0.000 C 
BRANCH  14  15
ATOM     15  N   UNL     1       1.982   9.048  18.504  0.00  0.00    +0.000 NA
ATOM     16  C   UNL     1       0.728   9.569  17.940  0.00  0.00    +0.000 C 
ATOM     17  C   UNL     1      -0.020  10.476  18.921  0.00  0.00    +0.000 C 
ATOM     18  C   UNL     1      -0.274   9.763  20.240  0.00  0.00    +0.000 C 
ATOM     19  C   UNL     1       1.043   9.250  20.806  0.00  0.00    +0.000 C 
ATOM     20  C   UNL     1       1.782   8.374  19.790  0.00  0.00    +0.000 C 
ENDBRANCH  14  15
ENDBRANCH   8  14
BRANCH   9  21
ATOM     21  C   UNL     1       5.493   6.683  17.759  0.00  0.00    +0.000 C 
BRANCH  21  22
ATOM     22  C   UNL     1       6.166   5.906  16.622  0.00  0.00    +0.000 C 
BRANCH  22  23
ATOM     23  C   UNL     1       5.180   5.178  15.705  0.00  0.00    +0.000 C 
BRANCH  23  24
ATOM     24  C   UNL     1       5.828   4.724  14.417  0.00  0.00    +0.000 A 
ATOM     25  C   UNL     1       7.073   5.241  14.031  0.00  0.00    +0.000 A 
ATOM     26  C   UNL     1       7.674   4.830  12.840  0.00  0.00    +0.000 A 
ATOM     27  C   UNL     1       7.041   3.894  12.024  0.00  0.00    +0.000 A 
ATOM     28  C   UNL     1       5.803   3.376  12.394  0.00  0.00    +0.000 A 
ATOM     29  C   UNL     1       5.196   3.791  13.583  0.00  0.00    +0.000 A 
ENDBRANCH  23  24
ENDBRANCH  22  23
ENDBRANCH  21  22
ENDBRANCH   9  21
TORSDOF 6
ENDMDL
MODEL 4
REMARK VINA RESULT:      -7.3      1.625      2.325
REMARK  Name = 
REMARK  8 active torsions:
REMARK  status: ('A' for Active; 'I' for Inactive)
REMARK    1  A    between atoms: C_1  and  N_2
REMARK    2  A    between atoms: C_8  and  C_9
REMARK    3  A    between atoms: C_9  and  N_10
REMARK    4  A    between atoms: N_16  and  C_17
REMARK    5  A    between atoms: C_17  and  C_18
REMARK    6  A    between atoms: C_18  and  C_19
REMARK    7  A    between atoms: C_19  and  C_20
REMARK    8  A    between atoms: N_26  and  C_27
REMARK                            x       y       z     vdW  Elec       q    Type
REMARK                         _______ _______ _______ _____ _____    ______ ____
ROOT
ATOM      1  C   UNL     1      -0.755  12.681  19.825  0.00  0.00    +0.000 C 
ATOM      2  N   UNL     1      -0.184  11.388  20.148  0.00  0.00    +0.000 N 
ATOM      3  C   UNL     1       0.676  10.775  19.220  0.00  0.00    +0.000 A 
ATOM      4  O   UNL     1       0.980  11.266  18.136  0.00  0.00    +0.000 OA
ATOM      5  C   UNL     1       1.165   9.509  19.666  0.00  0.00    +0.000 A 
ATOM      6  C   UNL     1       0.820   8.991  20.877  0.00  0.00    +0.000 A 
ATOM      7  N   UNL     1       1.383   7.789  21.096  0.00  0.00    +0.000 NA
ATOM      8  C   UNL     1       2.050   7.496  19.993  0.00  0.00    +0.000 A 
ATOM      9  N   UNL     1       1.987   8.559  19.096  0.00  0.00    +0.000 N 
ATOM     10  N   UNL     1      -0.022   9.627  21.750  0.00  0.00    +0.000 N 
ATOM     11  C   UNL     1      -0.376   9.030  23.024  0.00  0.00    +0.000 C 
ATOM     12  C   UNL     1      -0.553  10.862  21.402  0.00  0.00    +0.000 A 
ATOM     13  O   UNL     1      -1.315  11.471  22.160  0.00  0.00    +0.000 OA
ENDROOT
BRANCH   8  14
ATOM     14  C   UNL     1       2.767   6.182  19.784  0.00  0.00    +0.000 C 
BRANCH  14  15
ATOM     15  N   UNL     1       1.854   5.017  19.898  0.00  0.00    +0.000 NA
ATOM     16  C   UNL     1       1.777   4.260  18.640  0.00  0.00    +0.000 C 
ATOM     17  C   UNL     1       0.839   3.053  18.741  0.00  0.00    +0.000 C 
ATOM     18  C   UNL     1       1.239   2.147  19.895  0.00  0.00    +0.000 C 
ATOM     19  C   UNL     1       1.295   2.955  21.184  0.00  0.00    +0.000 C 
ATOM     20  C   UNL     1       2.214   4.171  21.040  0.00  0.00    +0.000 C 
ENDBRANCH  14  15
ENDBRANCH   8  14
BRANCH   9  21
ATOM     21  C   UNL     1       2.578   8.630  17.771  0.00  0.00    +0.000 C 
BRANCH  21  22
ATOM     22  C   UNL     1       3.333   7.374  17.321  0.00  0.00    +0.000 C 
BRANCH  22  23
ATOM     23  C   UNL     1       4.845   7.450  17.546  0.00  0.00    +0.000 C 
BRANCH  23  24
ATOM     24  C   UNL     1       5.571   6.274  16.937  0.00  0.00    +0.000 A 
ATOM     25  C   UNL     1       6.737   5.775  17.533  0.00  0.00    +0.000 A 
ATOM     26  C   UNL     1       7.415   4.691  16.972  0.00  0.00    +0.000 A 
ATOM     27  C   UNL     1       6.933   4.091  15.810  0.00  0.00    +0.000 A 
ATOM     28  C   UNL     1       5.779   4.579  15.205  0.00  0.00    +0.000 A 
ATOM     29  C   UNL     1       5.102   5.668  15.762  0.00  0.00    +0.000 A 
ENDBRANCH  23  24
ENDBRANCH  22  23
ENDBRANCH  21  22
ENDBRANCH   9  21
TORSDOF 6
ENDMDL
MODEL 5
REMARK VINA RESULT:      -7.3      1.611      4.393
REMARK  Name = 
REMARK  8 active torsions:
REMARK  status: ('A' for Active; 'I' for Inactive)
REMARK    1  A    between atoms: C_1  and  N_2
REMARK    2  A    between atoms: C_8  and  C_9
REMARK    3  A    between atoms: C_9  and  N_10
REMARK    4  A    between atoms: N_16  and  C_17
REMARK    5  A    between atoms: C_17  and  C_18
REMARK    6  A    between atoms: C_18  and  C_19
REMARK    7  A    between atoms: C_19  and  C_20
REMARK    8  A    between atoms: N_26  and  C_27
REMARK                            x       y       z     vdW  Elec       q    Type
REMARK                         _______ _______ _______ _____ _____    ______ ____
ROOT
ATOM      1  C   UNL     1      -0.887  11.075  20.951  0.00  0.00    +0.000 C 
ATOM      2  N   UNL     1       0.117  10.276  20.277  0.00  0.00    +0.000 N 
ATOM      3  C   UNL     1       0.327   8.951  20.700  0.00  0.00    +0.000 A 
ATOM      4  O   UNL     1      -0.290   8.417  21.618  0.00  0.00    +0.000 OA
ATOM      5  C   UNL     1       1.342   8.282  19.950  0.00  0.00    +0.000 A 
ATOM      6  C   UNL     1       2.004   8.893  18.930  0.00  0.00    +0.000 A 
ATOM      7  N   UNL     1       2.923   8.090  18.365  0.00  0.00    +0.000 NA
ATOM      8  C   UNL     1       2.899   6.967  19.061  0.00  0.00    +0.000 A 
ATOM      9  N   UNL     1       1.895   7.019  20.024  0.00  0.00    +0.000 N 
ATOM     10  N   UNL     1       1.764  10.187  18.553  0.00  0.00    +0.000 N 
ATOM     11  C   UNL     1       2.507  10.806  17.471  0.00  0.00    +0.000 C 
ATOM     12  C   UNL     1       0.798  10.922  19.227  0.00  0.00    +0.000 A 
ATOM     13  O   UNL     1       0.548  12.093  18.919  0.00  0.00    +0.000 OA
ENDROOT
BRANCH   8  14
ATOM     14  C   UNL     1       3.845   5.816  18.808  0.00  0.00    +0.000 C 
BRANCH  14  15
ATOM     15  N   UNL     1       4.811   6.108  17.720  0.00  0.00    +0.000 NA
ATOM     16  C   UNL     1       6.203   5.997  18.182  0.00  0.00    +0.000 C 
ATOM     17  C   UNL     1       7.212   6.295  17.070  0.00  0.00    +0.000 C 
ATOM     18  C   UNL     1       6.970   5.406  15.860  0.00  0.00    +0.000 C 
ATOM     19  C   UNL     1       5.528   5.555  15.396  0.00  0.00    +0.000 C 
ATOM     20  C   UNL     1       4.545   5.282  16.538  0.00  0.00    +0.000 C 
ENDBRANCH  14  15
ENDBRANCH   8  14
BRANCH   9  21
ATOM     21  C   UNL     1       1.551   5.996  20.996  0.00  0.00    +0.000 C 
BRANCH  21  22
ATOM     22  C   UNL     1       0.666   4.861  20.467  0.00  0.00    +0.000 C 
BRANCH  22  23
ATOM     23  C   UNL     1       1.135   3.466  20.891  0.00  0.00    +0.000 C 
BRANCH  23  24
ATOM     24  C   UNL     1       2.055   2.840  19.870  0.00  0.00    +0.000 A 
ATOM     25  C   UNL     1       3.335   2.407  20.241  0.00  0.00    +0.000 A 
ATOM     26  C   UNL     1       4.193   1.832  19.301  0.00  0.00    +0.000 A 
ATOM     27  C   UNL     1       3.778   1.680  17.979  0.00  0.00    +0.000 A 
ATOM     28  C   UNL     1       2.511   2.110  17.596  0.00  0.00    +0.000 A 
ATOM     29  C   UNL     1       1.653   2.691  18.534  0.00  0.00    +0.000 A 
ENDBRANCH  23  24
ENDBRANCH  22  23
ENDBRANCH  21  22
ENDBRANCH   9  21
TORSDOF 6
ENDMDL
MODEL 6
REMARK VINA RESULT:      -7.3      1.028      1.495
REMARK  Name = 
REMARK  8 active torsions:
REMARK  status: ('A' for Active; 'I' for Inactive)
REMARK    1  A    between atoms: C_1  and  N_2
REMARK    2  A    between atoms: C_8  and  C_9
REMARK    3  A    between atoms: C_9  and  N_10
REMARK    4  A    between atoms: N_16  and  C_17
REMARK    5  A    between atoms: C_17  and  C_18
REMARK    6  A    between atoms: C_18  and  C_19
REMARK    7  A    between atoms: C_19  and  C_20
REMARK    8  A    between atoms: N_26  and  C_27
REMARK                            x       y       z     vdW  Elec       q    Type
REMARK                         _______ _______ _______ _____ _____    ______ ____
ROOT
ATOM      1  C   UNL     1      -0.375  11.811  18.552  0.00  0.00    +0.000 C 
ATOM      2  N   UNL     1       0.163  10.615  19.169  0.00  0.00    +0.000 N 
ATOM      3  C   UNL     1       1.149   9.882  18.484  0.00  0.00    +0.000 A 
ATOM      4  O   UNL     1       1.591  10.189  17.380  0.00  0.00    +0.000 OA
ATOM      5  C   UNL     1       1.587   8.730  19.206  0.00  0.00    +0.000 A 
ATOM      6  C   UNL     1       1.088   8.417  20.433  0.00  0.00    +0.000 A 
ATOM      7  N   UNL     1       1.630   7.291  20.931  0.00  0.00    +0.000 NA
ATOM      8  C   UNL     1       2.444   6.836  19.995  0.00  0.00    +0.000 A 
ATOM      9  N   UNL     1       2.491   7.726  18.925  0.00  0.00    +0.000 N 
ATOM     10  N   UNL     1       0.127   9.163  21.062  0.00  0.00    +0.000 N 
ATOM     11  C   UNL     1      -0.390   8.782  22.362  0.00  0.00    +0.000 C 
ATOM     12  C   UNL     1      -0.366  10.299  20.436  0.00  0.00    +0.000 A 
ATOM     13  O   UNL     1      -1.233  11.002  20.968  0.00  0.00    +0.000 OA
ENDROOT
BRANCH   8  14
ATOM     14  C   UNL     1       3.199   5.533  20.116  0.00  0.00    +0.000 C 
BRANCH  14  15
ATOM     15  N   UNL     1       2.554   4.434  19.354  0.00  0.00    +0.000 NA
ATOM     16  C   UNL     1       3.451   3.279  19.198  0.00  0.00    +0.000 C 
ATOM     17  C   UNL     1       2.799   2.136  18.414  0.00  0.00    +0.000 C 
ATOM     18  C   UNL     1       1.483   1.719  19.051  0.00  0.00    +0.000 C 
ATOM     19  C   UNL     1       0.571   2.931  19.184  0.00  0.00    +0.000 C 
ATOM     20  C   UNL     1       1.263   4.067  19.943  0.00  0.00    +0.000 C 
ENDBRANCH  14  15
ENDBRANCH   8  14
BRANCH   9  21
ATOM     21  C   UNL     1       3.256   7.589  17.697  0.00  0.00    +0.000 C 
BRANCH  21  22
ATOM     22  C   UNL     1       3.509   6.148  17.240  0.00  0.00    +0.000 C 
BRANCH  22  23
ATOM     23  C   UNL     1       4.833   5.961  16.495  0.00  0.00    +0.000 C 
BRANCH  23  24
ATOM     24  C   UNL     1       6.027   6.224  17.383  0.00  0.00    +0.000 A 
ATOM     25  C   UNL     1       6.338   5.346  18.430  0.00  0.00    +0.000 A 
ATOM     26  C   UNL     1       7.437   5.587  19.257  0.00  0.00    +0.000 A 
ATOM     27  C   UNL     1       8.240   6.706  19.043  0.00  0.00    +0.000 A 
ATOM     28  C   UNL     1       7.940   7.588  18.010  0.00  0.00    +0.000 A 
ATOM     29  C   UNL     1       6.837   7.352  17.184  0.00  0.00    +0.000 A 
ENDBRANCH  23  24
ENDBRANCH  22  23
ENDBRANCH  21  22
ENDBRANCH   9  21
TORSDOF 6
ENDMDL
MODEL 7
REMARK VINA RESULT:      -7.2      3.334      6.514
REMARK  Name = 
REMARK  8 active torsions:
REMARK  status: ('A' for Active; 'I' for Inactive)
REMARK    1  A    between atoms: C_1  and  N_2
REMARK    2  A    between atoms: C_8  and  C_9
REMARK    3  A    between atoms: C_9  and  N_10
REMARK    4  A    between atoms: N_16  and  C_17
REMARK    5  A    between atoms: C_17  and  C_18
REMARK    6  A    between atoms: C_18  and  C_19
REMARK    7  A    between atoms: C_19  and  C_20
REMARK    8  A    between atoms: N_26  and  C_27
REMARK                            x       y       z     vdW  Elec       q    Type
REMARK                         _______ _______ _______ _____ _____    ______ ____
ROOT
ATOM      1  C   UNL     1       4.385   1.192  18.740  0.00  0.00    +0.000 C 
ATOM      2  N   UNL     1       3.723   2.481  18.774  0.00  0.00    +0.000 N 
ATOM      3  C   UNL     1       4.397   3.604  18.261  0.00  0.00    +0.000 A 
ATOM      4  O   UNL     1       5.527   3.568  17.782  0.00  0.00    +0.000 OA
ATOM      5  C   UNL     1       3.631   4.805  18.359  0.00  0.00    +0.000 A 
ATOM      6  C   UNL     1       2.376   4.817  18.887  0.00  0.00    +0.000 A 
ATOM      7  N   UNL     1       1.836   6.049  18.891  0.00  0.00    +0.000 NA
ATOM      8  C   UNL     1       2.771   6.855  18.417  0.00  0.00    +0.000 A 
ATOM      9  N   UNL     1       3.885   6.119  18.023  0.00  0.00    +0.000 N 
ATOM     10  N   UNL     1       1.759   3.696  19.374  0.00  0.00    +0.000 N 
ATOM     11  C   UNL     1       0.427   3.758  19.944  0.00  0.00    +0.000 C 
ATOM     12  C   UNL     1       2.427   2.480  19.328  0.00  0.00    +0.000 A 
ATOM     13  O   UNL     1       1.908   1.443  19.755  0.00  0.00    +0.000 OA
ENDROOT
BRANCH   8  14
ATOM     14  C   UNL     1       2.605   8.355  18.330  0.00  0.00    +0.000 C 
BRANCH  14  15
ATOM     15  N   UNL     1       1.301   8.811  18.875  0.00  0.00    +0.000 NA
ATOM     16  C   UNL     1       1.310   8.855  20.344  0.00  0.00    +0.000 C 
ATOM     17  C   UNL     1      -0.029   9.325  20.921  0.00  0.00    +0.000 C 
ATOM     18  C   UNL     1      -0.431  10.671  20.340  0.00  0.00    +0.000 C 
ATOM     19  C   UNL     1      -0.446  10.588  18.820  0.00  0.00    +0.000 C 
ATOM     20  C   UNL     1       0.893  10.086  18.277  0.00  0.00    +0.000 C 
ENDBRANCH  14  15
ENDBRANCH   8  14
BRANCH   9  21
ATOM     21  C   UNL     1       5.126   6.629  17.463  0.00  0.00    +0.000 C 
BRANCH  21  22
ATOM     22  C   UNL     1       5.346   6.327  15.976  0.00  0.00    +0.000 C 
BRANCH  22  23
ATOM     23  C   UNL     1       6.648   5.576  15.686  0.00  0.00    +0.000 C 
BRANCH  23  24
ATOM     24  C   UNL     1       6.629   4.907  14.331  0.00  0.00    +0.000 A 
ATOM     25  C   UNL     1       5.632   3.974  14.016  0.00  0.00    +0.000 A 
ATOM     26  C   UNL     1       5.612   3.348  12.768  0.00  0.00    +0.000 A 
ATOM     27  C   UNL     1       6.587   3.652  11.819  0.00  0.00    +0.000 A 
ATOM     28  C   UNL     1       7.586   4.573  12.121  0.00  0.00    +0.000 A 
ATOM     29  C   UNL     1       7.611   5.196  13.372  0.00  0.00    +0.000 A 
ENDBRANCH  23  24
ENDBRANCH  22  23
ENDBRANCH  21  22
ENDBRANCH   9  21
TORSDOF 6
ENDMDL
MODEL 8
REMARK VINA RESULT:      -7.2      1.659      2.361
REMARK  Name = 
REMARK  8 active torsions:
REMARK  status: ('A' for Active; 'I' for Inactive)
REMARK    1  A    between atoms: C_1  and  N_2
REMARK    2  A    between atoms: C_8  and  C_9
REMARK    3  A    between atoms: C_9  and  N_10
REMARK    4  A    between atoms: N_16  and  C_17
REMARK    5  A    between atoms: C_17  and  C_18
REMARK    6  A    between atoms: C_18  and  C_19
REMARK    7  A    between atoms: C_19  and  C_20
REMARK    8  A    between atoms: N_26  and  C_27
REMARK                            x       y       z     vdW  Elec       q    Type
REMARK                         _______ _______ _______ _____ _____    ______ ____
ROOT
ATOM      1  C   UNL     1       0.030  12.028  18.711  0.00  0.00    +0.000 C 
ATOM      2  N   UNL     1       0.409  10.768  19.319  0.00  0.00    +0.000 N 
ATOM      3  C   UNL     1       1.326   9.939  18.649  0.00  0.00    +0.000 A 
ATOM      4  O   UNL     1       1.834  10.211  17.564  0.00  0.00    +0.000 OA
ATOM      5  C   UNL     1       1.609   8.733  19.360  0.00  0.00    +0.000 A 
ATOM      6  C   UNL     1       1.040   8.459  20.566  0.00  0.00    +0.000 A 
ATOM      7  N   UNL     1       1.435   7.270  21.058  0.00  0.00    +0.000 NA
ATOM      8  C   UNL     1       2.220   6.741  20.136  0.00  0.00    +0.000 A 
ATOM      9  N   UNL     1       2.401   7.637  19.086  0.00  0.00    +0.000 N 
ATOM     10  N   UNL     1       0.151   9.299  21.182  0.00  0.00    +0.000 N 
ATOM     11  C   UNL     1      -0.446   8.959  22.460  0.00  0.00    +0.000 C 
ATOM     12  C   UNL     1      -0.191  10.495  20.565  0.00  0.00    +0.000 A 
ATOM     13  O   UNL     1      -0.987  11.283  21.085  0.00  0.00    +0.000 OA
ENDROOT
BRANCH   8  14
ATOM     14  C   UNL     1       2.818   5.358  20.254  0.00  0.00    +0.000 C 
BRANCH  14  15
ATOM     15  N   UNL     1       2.160   4.380  19.351  0.00  0.00    +0.000 NA
ATOM     16  C   UNL     1       3.130   3.451  18.753  0.00  0.00    +0.000 C 
ATOM     17  C   UNL     1       2.466   2.435  17.819  0.00  0.00    +0.000 C 
ATOM     18  C   UNL     1       1.360   1.677  18.536  0.00  0.00    +0.000 C 
ATOM     19  C   UNL     1       0.364   2.664  19.129  0.00  0.00    +0.000 C 
ATOM     20  C   UNL     1       1.063   3.685  20.031  0.00  0.00    +0.000 C 
ENDBRANCH  14  15
ENDBRANCH   8  14
BRANCH   9  21
ATOM     21  C   UNL     1       3.182   7.433  17.878  0.00  0.00    +0.000 C 
BRANCH  21  22
ATOM     22  C   UNL     1       4.367   6.470  18.018  0.00  0.00    +0.000 C 
BRANCH  22  23
ATOM     23  C   UNL     1       5.558   6.825  17.124  0.00  0.00    +0.000 C 
BRANCH  23  24
ATOM     24  C   UNL     1       5.812   5.773  16.070  0.00  0.00    +0.000 A 
ATOM     25  C   UNL     1       4.988   4.642  15.986  0.00  0.00    +0.000 A 
ATOM     26  C   UNL     1       5.220   3.663  15.017  0.00  0.00    +0.000 A 
ATOM     27  C   UNL     1       6.276   3.807  14.119  0.00  0.00    +0.000 A 
ATOM     28  C   UNL     1       7.104   4.923  14.194  0.00  0.00    +0.000 A 
ATOM     29  C   UNL     1       6.877   5.901  15.167  0.00  0.00    +0.000 A 
ENDBRANCH  23  24
ENDBRANCH  22  23
ENDBRANCH  21  22
ENDBRANCH   9  21
TORSDOF 6
ENDMDL
MODEL 9
REMARK VINA RESULT:      -7.1      1.996      4.946
REMARK  Name = 
REMARK  8 active torsions:
REMARK  status: ('A' for Active; 'I' for Inactive)
REMARK    1  A    between atoms: C_1  and  N_2
REMARK    2  A    between atoms: C_8  and  C_9
REMARK    3  A    between atoms: C_9  and  N_10
REMARK    4  A    between atoms: N_16  and  C_17
REMARK    5  A    between atoms: C_17  and  C_18
REMARK    6  A    between atoms: C_18  and  C_19
REMARK    7  A    between atoms: C_19  and  C_20
REMARK    8  A    between atoms: N_26  and  C_27
REMARK                            x       y       z     vdW  Elec       q    Type
REMARK                         _______ _______ _______ _____ _____    ______ ____
ROOT
ATOM      1  C   UNL     1       0.358   8.251  21.583  0.00  0.00    +0.000 C 
ATOM      2  N   UNL     1       1.167   8.258  20.380  0.00  0.00    +0.000 N 
ATOM      3  C   UNL     1       1.784   7.062  19.971  0.00  0.00    +0.000 A 
ATOM      4  O   UNL     1       1.686   5.996  20.573  0.00  0.00    +0.000 OA
ATOM      5  C   UNL     1       2.550   7.213  18.774  0.00  0.00    +0.000 A 
ATOM      6  C   UNL     1       2.635   8.404  18.120  0.00  0.00    +0.000 A 
ATOM      7  N   UNL     1       3.410   8.328  17.023  0.00  0.00    +0.000 NA
ATOM      8  C   UNL     1       3.881   7.094  16.997  0.00  0.00    +0.000 A 
ATOM      9  N   UNL     1       3.331   6.347  18.036  0.00  0.00    +0.000 N 
ATOM     10  N   UNL     1       2.014   9.543  18.557  0.00  0.00    +0.000 N 
ATOM     11  C   UNL     1       2.147  10.796  17.838  0.00  0.00    +0.000 C 
ATOM     12  C   UNL     1       1.251   9.498  19.716  0.00  0.00    +0.000 A 
ATOM     13  O   UNL     1       0.673  10.501  20.146  0.00  0.00    +0.000 OA
ENDROOT
BRANCH   8  14
ATOM     14  C   UNL     1       4.869   6.606  15.963  0.00  0.00    +0.000 C 
BRANCH  14  15
ATOM     15  N   UNL     1       6.211   6.348  16.542  0.00  0.00    +0.000 NA
ATOM     16  C   UNL     1       6.488   7.226  17.688  0.00  0.00    +0.000 C 
ATOM     17  C   UNL     1       7.870   6.972  18.298  0.00  0.00    +0.000 C 
ATOM     18  C   UNL     1       8.035   5.510  18.683  0.00  0.00    +0.000 C 
ATOM     19  C   UNL     1       7.758   4.628  17.473  0.00  0.00    +0.000 C 
ATOM     20  C   UNL     1       6.384   4.929  16.868  0.00  0.00    +0.000 C 
ENDBRANCH  14  15
ENDBRANCH   8  14
BRANCH   9  21
ATOM     21  C   UNL     1       3.597   4.956  18.360  0.00  0.00    +0.000 C 
BRANCH  21  22
ATOM     22  C   UNL     1       3.364   3.961  17.216  0.00  0.00    +0.000 C 
BRANCH  22  23
ATOM     23  C   UNL     1       2.843   2.599  17.681  0.00  0.00    +0.000 C 
BRANCH  23  24
ATOM     24  C   UNL     1       2.399   2.622  19.125  0.00  0.00    +0.000 A 
ATOM     25  C   UNL     1       1.046   2.797  19.447  0.00  0.00    +0.000 A 
ATOM     26  C   UNL     1       0.630   2.825  20.780  0.00  0.00    +0.000 A 
ATOM     27  C   UNL     1       1.562   2.673  21.805  0.00  0.00    +0.000 A 
ATOM     28  C   UNL     1       2.909   2.504  21.500  0.00  0.00    +0.000 A 
ATOM     29  C   UNL     1       3.328   2.482  20.166  0.00  0.00    +0.000 A 
ENDBRANCH  23  24
ENDBRANCH  22  23
ENDBRANCH  21  22
ENDBRANCH   9  21
TORSDOF 6
ENDMDL
