MODEL 1
REMARK VINA RESULT:      -6.6      0.000      0.000
REMARK  Name = 
REMARK  7 active torsions:
REMARK  status: ('A' for Active; 'I' for Inactive)
REMARK    1  A    between atoms: C_1  and  O_2
REMARK    2  A    between atoms: O_2  and  C_3
REMARK    3  A    between atoms: C_5  and  O_6
REMARK    4  A    between atoms: O_6  and  C_7
REMARK    5  A    between atoms: C_12  and  C_13
REMARK    6  A    between atoms: C_15  and  C_16
REMARK    7  A    between atoms: C_21  and  C_22
REMARK                            x       y       z     vdW  Elec       q    Type
REMARK                         _______ _______ _______ _____ _____    ______ ____
ROOT
ATOM      1  C   UNL     1       2.418   8.095  18.300  0.00  0.00    +0.000 A 
ATOM      2  C   UNL     1       1.637   8.338  19.425  0.00  0.00    +0.000 A 
ATOM      3  C   UNL     1       1.481   7.345  20.399  0.00  0.00    +0.000 A 
ATOM      4  C   UNL     1       2.176   6.126  20.288  0.00  0.00    +0.000 A 
ATOM      5  N   UNL     1       2.031   5.161  21.316  0.00  0.00    +0.000 NA
ATOM      6  N   UNL     1       2.648   4.079  21.235  0.00  0.00    +0.000 NA
ATOM      7  C   UNL     1       3.518   3.814  20.227  0.00  0.00    +0.000 A 
ATOM      8  C   UNL     1       4.315   2.728  19.974  0.00  0.00    +0.000 A 
ATOM      9  C   UNL     1       4.446   1.460  20.727  0.00  0.00    +0.000 C 
ATOM     10  N   UNL     1       5.072   2.948  18.856  0.00  0.00    +0.000 NA
ATOM     11  C   UNL     1       4.760   4.151  18.396  0.00  0.00    +0.000 A 
ATOM     12  N   UNL     1       3.738   4.700  19.188  0.00  0.00    +0.000 N 
ATOM     13  C   UNL     1       2.983   5.902  19.156  0.00  0.00    +0.000 A 
ATOM     14  C   UNL     1       3.005   6.842  18.126  0.00  0.00    +0.000 A 
ENDROOT
BRANCH  11  15
ATOM     15  C   UNL     1       5.448   4.719  17.216  0.00  0.00    +0.000 A 
ATOM     16  C   UNL     1       4.937   4.576  15.919  0.00  0.00    +0.000 A 
ATOM     17  C   UNL     1       5.683   4.958  14.806  0.00  0.00    +0.000 A 
ATOM     18  C   UNL     1       6.877   5.608  15.020  0.00  0.00    +0.000 A 
ATOM     19  N   UNL     1       7.342   5.909  16.247  0.00  0.00    +0.000 NA
ATOM     20  C   UNL     1       6.627   5.480  17.327  0.00  0.00    +0.000 A 
ATOM     21  C   UNL     1       7.173   5.941  18.652  0.00  0.00    +0.000 C 
ENDBRANCH  11  15
BRANCH   1  23
ATOM     22  C   UNL     1       2.305  10.356  17.596  0.00  0.00    +0.000 C 
ATOM     23  O   UNL     1       2.651   9.003  17.300  0.00  0.00    +0.000 OA
ENDBRANCH   1  23
BRANCH   3  24
ATOM     24  O   UNL     1       0.672   7.491  21.504  0.00  0.00    +0.000 OA
ATOM     25  C   UNL     1      -0.126   8.666  21.573  0.00  0.00    +0.000 C 
ENDBRANCH   3  24
TORSDOF 3
ENDMDL
MODEL 2
REMARK VINA RESULT:      -6.5      5.731      8.641
REMARK  Name = 
REMARK  7 active torsions:
REMARK  status: ('A' for Active; 'I' for Inactive)
REMARK    1  A    between atoms: C_1  and  O_2
REMARK    2  A    between atoms: O_2  and  C_3
REMARK    3  A    between atoms: C_5  and  O_6
REMARK    4  A    between atoms: O_6  and  C_7
REMARK    5  A    between atoms: C_12  and  C_13
REMARK    6  A    between atoms: C_15  and  C_16
REMARK    7  A    between atoms: C_21  and  C_22
REMARK                            x       y       z     vdW  Elec       q    Type
REMARK                         _______ _______ _______ _____ _____    ______ ____
ROOT
ATOM      1  C   UNL     1      -3.158  10.411  16.870  0.00  0.00    +0.000 A 
ATOM      2  C   UNL     1      -4.339  11.144  16.813  0.00  0.00    +0.000 A 
ATOM      3  C   UNL     1      -4.708  11.965  17.884  0.00  0.00    +0.000 A 
ATOM      4  C   UNL     1      -3.849  12.119  18.989  0.00  0.00    +0.000 A 
ATOM      5  N   UNL     1      -4.232  12.994  20.035  0.00  0.00    +0.000 NA
ATOM      6  N   UNL     1      -3.477  13.147  21.017  0.00  0.00    +0.000 NA
ATOM      7  C   UNL     1      -2.256  12.557  21.092  0.00  0.00    +0.000 A 
ATOM      8  C   UNL     1      -1.270  12.621  22.042  0.00  0.00    +0.000 A 
ATOM      9  C   UNL     1      -1.251  13.347  23.332  0.00  0.00    +0.000 C 
ATOM     10  N   UNL     1      -0.183  11.892  21.644  0.00  0.00    +0.000 NA
ATOM     11  C   UNL     1      -0.470  11.362  20.464  0.00  0.00    +0.000 A 
ATOM     12  N   UNL     1      -1.789  11.698  20.113  0.00  0.00    +0.000 N 
ATOM     13  C   UNL     1      -2.644  11.389  19.023  0.00  0.00    +0.000 A 
ATOM     14  C   UNL     1      -2.369  10.463  18.018  0.00  0.00    +0.000 A 
ENDROOT
BRANCH  11  15
ATOM     15  C   UNL     1       0.525  10.553  19.727  0.00  0.00    +0.000 A 
ATOM     16  C   UNL     1       1.251  11.074  18.648  0.00  0.00    +0.000 A 
ATOM     17  C   UNL     1       2.048  10.252  17.854  0.00  0.00    +0.000 A 
ATOM     18  C   UNL     1       2.215   8.942  18.242  0.00  0.00    +0.000 A 
ATOM     19  N   UNL     1       1.663   8.430  19.358  0.00  0.00    +0.000 NA
ATOM     20  C   UNL     1       0.841   9.231  20.095  0.00  0.00    +0.000 A 
ATOM     21  C   UNL     1       0.346   8.604  21.370  0.00  0.00    +0.000 C 
ENDBRANCH  11  15
BRANCH   1  23
ATOM     22  C   UNL     1      -2.967  10.029  14.537  0.00  0.00    +0.000 C 
ATOM     23  O   UNL     1      -2.697   9.593  15.870  0.00  0.00    +0.000 OA
ENDBRANCH   1  23
BRANCH   3  24
ATOM     24  O   UNL     1      -5.891  12.667  17.926  0.00  0.00    +0.000 OA
ATOM     25  C   UNL     1      -7.088  11.912  18.073  0.00  0.00    +0.000 C 
ENDBRANCH   3  24
TORSDOF 3
ENDMDL
MODEL 3
REMARK VINA RESULT:      -6.4      2.310      4.591
REMARK  Name = 
REMARK  7 active torsions:
REMARK  status: ('A' for Active; 'I' for Inactive)
REMARK    1  A    between atoms: C_1  and  O_2
REMARK    2  A    between atoms: O_2  and  C_3
REMARK    3  A    between atoms: C_5  and  O_6
REMARK    4  A    between atoms: O_6  and  C_7
REMARK    5  A    between atoms: C_12  and  C_13
REMARK    6  A    between atoms: C_15  and  C_16
REMARK    7  A    between atoms: C_21  and  C_22
REMARK                            x       y       z     vdW  Elec       q    Type
REMARK                         _______ _______ _______ _____ _____    ______ ____
ROOT
ATOM      1  C   UNL     1       4.366   2.600  19.909  0.00  0.00    +0.000 A 
ATOM      2  C   UNL     1       3.366   2.461  20.865  0.00  0.00    +0.000 A 
ATOM      3  C   UNL     1       2.497   3.524  21.133  0.00  0.00    +0.000 A 
ATOM      4  C   UNL     1       2.576   4.712  20.381  0.00  0.00    +0.000 A 
ATOM      5  N   UNL     1       1.650   5.751  20.647  0.00  0.00    +0.000 NA
ATOM      6  N   UNL     1       1.702   6.807  19.983  0.00  0.00    +0.000 NA
ATOM      7  C   UNL     1       2.574   6.974  18.956  0.00  0.00    +0.000 A 
ATOM      8  C   UNL     1       2.769   8.016  18.086  0.00  0.00    +0.000 A 
ATOM      9  C   UNL     1       2.090   9.330  18.025  0.00  0.00    +0.000 C 
ATOM     10  N   UNL     1       3.735   7.695  17.173  0.00  0.00    +0.000 NA
ATOM     11  C   UNL     1       4.159   6.472  17.456  0.00  0.00    +0.000 A 
ATOM     12  N   UNL     1       3.506   6.010  18.611  0.00  0.00    +0.000 N 
ATOM     13  C   UNL     1       3.578   4.831  19.399  0.00  0.00    +0.000 A 
ATOM     14  C   UNL     1       4.527   3.820  19.253  0.00  0.00    +0.000 A 
ENDROOT
BRANCH  11  15
ATOM     15  C   UNL     1       5.175   5.802  16.615  0.00  0.00    +0.000 A 
ATOM     16  C   UNL     1       4.827   4.835  15.662  0.00  0.00    +0.000 A 
ATOM     17  C   UNL     1       5.804   4.086  15.009  0.00  0.00    +0.000 A 
ATOM     18  C   UNL     1       7.123   4.419  15.220  0.00  0.00    +0.000 A 
ATOM     19  N   UNL     1       7.507   5.441  16.007  0.00  0.00    +0.000 NA
ATOM     20  C   UNL     1       6.542   6.129  16.684  0.00  0.00    +0.000 A 
ATOM     21  C   UNL     1       7.057   7.309  17.463  0.00  0.00    +0.000 C 
ENDBRANCH  11  15
BRANCH   1  23
ATOM     22  C   UNL     1       5.355   0.518  20.465  0.00  0.00    +0.000 C 
ATOM     23  O   UNL     1       5.255   1.617  19.559  0.00  0.00    +0.000 OA
ENDBRANCH   1  23
BRANCH   3  24
ATOM     24  O   UNL     1       1.528   3.481  22.110  0.00  0.00    +0.000 OA
ATOM     25  C   UNL     1       1.013   2.201  22.457  0.00  0.00    +0.000 C 
ENDBRANCH   3  24
TORSDOF 3
ENDMDL
MODEL 4
REMARK VINA RESULT:      -6.4      8.964     12.265
REMARK  Name = 
REMARK  7 active torsions:
REMARK  status: ('A' for Active; 'I' for Inactive)
REMARK    1  A    between atoms: C_1  and  O_2
REMARK    2  A    between atoms: O_2  and  C_3
REMARK    3  A    between atoms: C_5  and  O_6
REMARK    4  A    between atoms: O_6  and  C_7
REMARK    5  A    between atoms: C_12  and  C_13
REMARK    6  A    between atoms: C_15  and  C_16
REMARK    7  A    between atoms: C_21  and  C_22
REMARK                            x       y       z     vdW  Elec       q    Type
REMARK                         _______ _______ _______ _____ _____    ______ ____
ROOT
ATOM      1  C   UNL     1      -2.094  12.271  19.821  0.00  0.00    +0.000 A 
ATOM      2  C   UNL     1      -1.281  11.781  20.837  0.00  0.00    +0.000 A 
ATOM      3  C   UNL     1      -1.727  11.797  22.164  0.00  0.00    +0.000 A 
ATOM      4  C   UNL     1      -3.031  12.233  22.468  0.00  0.00    +0.000 A 
ATOM      5  N   UNL     1      -3.466  12.192  23.816  0.00  0.00    +0.000 NA
ATOM      6  N   UNL     1      -4.622  12.567  24.101  0.00  0.00    +0.000 NA
ATOM      7  C   UNL     1      -5.515  12.949  23.151  0.00  0.00    +0.000 A 
ATOM      8  C   UNL     1      -6.823  13.350  23.239  0.00  0.00    +0.000 A 
ATOM      9  C   UNL     1      -7.675  13.528  24.436  0.00  0.00    +0.000 C 
ATOM     10  N   UNL     1      -7.331  13.579  21.990  0.00  0.00    +0.000 NA
ATOM     11  C   UNL     1      -6.364  13.338  21.117  0.00  0.00    +0.000 A 
ATOM     12  N   UNL     1      -5.187  13.007  21.808  0.00  0.00    +0.000 N 
ATOM     13  C   UNL     1      -3.853  12.704  21.427  0.00  0.00    +0.000 A 
ATOM     14  C   UNL     1      -3.336  12.821  20.137  0.00  0.00    +0.000 A 
ENDROOT
BRANCH  11  15
ATOM     15  C   UNL     1      -6.606  13.440  19.661  0.00  0.00    +0.000 A 
ATOM     16  C   UNL     1      -6.965  12.327  18.889  0.00  0.00    +0.000 A 
ATOM     17  C   UNL     1      -7.013  12.402  17.499  0.00  0.00    +0.000 A 
ATOM     18  C   UNL     1      -6.836  13.634  16.910  0.00  0.00    +0.000 A 
ATOM     19  N   UNL     1      -6.641  14.765  17.615  0.00  0.00    +0.000 NA
ATOM     20  C   UNL     1      -6.541  14.667  18.973  0.00  0.00    +0.000 A 
ATOM     21  C   UNL     1      -6.418  15.989  19.680  0.00  0.00    +0.000 C 
ENDBRANCH  11  15
BRANCH   1  23
ATOM     22  C   UNL     1      -2.595  11.504  17.634  0.00  0.00    +0.000 C 
ATOM     23  O   UNL     1      -1.761  12.284  18.491  0.00  0.00    +0.000 OA
ENDBRANCH   1  23
BRANCH   3  24
ATOM     24  O   UNL     1      -0.953  11.391  23.227  0.00  0.00    +0.000 OA
ATOM     25  C   UNL     1      -0.517  10.036  23.232  0.00  0.00    +0.000 C 
ENDBRANCH   3  24
TORSDOF 3
ENDMDL
MODEL 5
REMARK VINA RESULT:      -6.3      7.310     10.056
REMARK  Name = 
REMARK  7 active torsions:
REMARK  status: ('A' for Active; 'I' for Inactive)
REMARK    1  A    between atoms: C_1  and  O_2
REMARK    2  A    between atoms: O_2  and  C_3
REMARK    3  A    between atoms: C_5  and  O_6
REMARK    4  A    between atoms: O_6  and  C_7
REMARK    5  A    between atoms: C_12  and  C_13
REMARK    6  A    between atoms: C_15  and  C_16
REMARK    7  A    between atoms: C_21  and  C_22
REMARK                            x       y       z     vdW  Elec       q    Type
REMARK                         _______ _______ _______ _____ _____    ______ ____
ROOT
ATOM      1  C   UNL     1      -4.191  13.048  21.741  0.00  0.00    +0.000 A 
ATOM      2  C   UNL     1      -5.563  13.209  21.573  0.00  0.00    +0.000 A 
ATOM      3  C   UNL     1      -6.155  12.943  20.334  0.00  0.00    +0.000 A 
ATOM      4  C   UNL     1      -5.381  12.434  19.272  0.00  0.00    +0.000 A 
ATOM      5  N   UNL     1      -6.021  12.132  18.045  0.00  0.00    +0.000 NA
ATOM      6  N   UNL     1      -5.351  11.673  17.098  0.00  0.00    +0.000 NA
ATOM      7  C   UNL     1      -4.030  11.379  17.220  0.00  0.00    +0.000 A 
ATOM      8  C   UNL     1      -3.131  10.840  16.337  0.00  0.00    +0.000 A 
ATOM      9  C   UNL     1      -3.325  10.434  14.926  0.00  0.00    +0.000 C 
ATOM     10  N   UNL     1      -1.916  10.675  16.942  0.00  0.00    +0.000 NA
ATOM     11  C   UNL     1      -2.030  11.109  18.189  0.00  0.00    +0.000 A 
ATOM     12  N   UNL     1      -3.323  11.624  18.384  0.00  0.00    +0.000 N 
ATOM     13  C   UNL     1      -3.998  12.253  19.463  0.00  0.00    +0.000 A 
ATOM     14  C   UNL     1      -3.404  12.666  20.655  0.00  0.00    +0.000 A 
ENDROOT
BRANCH  11  15
ATOM     15  C   UNL     1      -0.897  11.019  19.136  0.00  0.00    +0.000 A 
ATOM     16  C   UNL     1      -0.578   9.826  19.798  0.00  0.00    +0.000 A 
ATOM     17  C   UNL     1       0.372   9.802  20.817  0.00  0.00    +0.000 A 
ATOM     18  C   UNL     1       1.089  10.951  21.060  0.00  0.00    +0.000 A 
ATOM     19  N   UNL     1       0.929  12.083  20.349  0.00  0.00    +0.000 NA
ATOM     20  C   UNL     1      -0.043  12.108  19.392  0.00  0.00    +0.000 A 
ATOM     21  C   UNL     1      -0.085  13.379  18.588  0.00  0.00    +0.000 C 
ENDBRANCH  11  15
BRANCH   1  23
ATOM     22  C   UNL     1      -3.889  12.422  24.008  0.00  0.00    +0.000 C 
ATOM     23  O   UNL     1      -3.517  13.263  22.916  0.00  0.00    +0.000 OA
ENDBRANCH   1  23
BRANCH   3  24
ATOM     24  O   UNL     1      -7.492  13.143  20.076  0.00  0.00    +0.000 OA
ATOM     25  C   UNL     1      -7.916  14.482  19.849  0.00  0.00    +0.000 C 
ENDBRANCH   3  24
TORSDOF 3
ENDMDL
MODEL 6
REMARK VINA RESULT:      -6.3      6.720      9.536
REMARK  Name = 
REMARK  7 active torsions:
REMARK  status: ('A' for Active; 'I' for Inactive)
REMARK    1  A    between atoms: C_1  and  O_2
REMARK    2  A    between atoms: O_2  and  C_3
REMARK    3  A    between atoms: C_5  and  O_6
REMARK    4  A    between atoms: O_6  and  C_7
REMARK    5  A    between atoms: C_12  and  C_13
REMARK    6  A    between atoms: C_15  and  C_16
REMARK    7  A    between atoms: C_21  and  C_22
REMARK                            x       y       z     vdW  Elec       q    Type
REMARK                         _______ _______ _______ _____ _____    ______ ____
ROOT
ATOM      1  C   UNL     1      -3.240  11.218  16.711  0.00  0.00    +0.000 A 
ATOM      2  C   UNL     1      -4.623  11.365  16.716  0.00  0.00    +0.000 A 
ATOM      3  C   UNL     1      -5.287  11.735  17.891  0.00  0.00    +0.000 A 
ATOM      4  C   UNL     1      -4.553  12.038  19.054  0.00  0.00    +0.000 A 
ATOM      5  N   UNL     1      -5.253  12.453  20.214  0.00  0.00    +0.000 NA
ATOM      6  N   UNL     1      -4.616  12.734  21.250  0.00  0.00    +0.000 NA
ATOM      7  C   UNL     1      -3.258  12.727  21.290  0.00  0.00    +0.000 A 
ATOM      8  C   UNL     1      -2.375  13.035  22.292  0.00  0.00    +0.000 A 
ATOM      9  C   UNL     1      -2.642  13.448  23.689  0.00  0.00    +0.000 C 
ATOM     10  N   UNL     1      -1.090  12.934  21.836  0.00  0.00    +0.000 NA
ATOM     11  C   UNL     1      -1.147  12.559  20.567  0.00  0.00    +0.000 A 
ATOM     12  N   UNL     1      -2.488  12.350  20.204  0.00  0.00    +0.000 N 
ATOM     13  C   UNL     1      -3.151  11.909  19.029  0.00  0.00    +0.000 A 
ATOM     14  C   UNL     1      -2.524  11.395  17.894  0.00  0.00    +0.000 A 
ENDROOT
BRANCH  11  15
ATOM     15  C   UNL     1       0.083  12.411  19.758  0.00  0.00    +0.000 A 
ATOM     16  C   UNL     1       0.773  13.518  19.248  0.00  0.00    +0.000 A 
ATOM     17  C   UNL     1       1.820  13.358  18.343  0.00  0.00    +0.000 A 
ATOM     18  C   UNL     1       2.251  12.080  18.071  0.00  0.00    +0.000 A 
ATOM     19  N   UNL     1       1.723  10.986  18.653  0.00  0.00    +0.000 NA
ATOM     20  C   UNL     1       0.662  11.155  19.495  0.00  0.00    +0.000 A 
ATOM     21  C   UNL     1       0.201   9.891  20.168  0.00  0.00    +0.000 C 
ENDBRANCH  11  15
BRANCH   1  23
ATOM     22  C   UNL     1      -3.174  10.124  14.608  0.00  0.00    +0.000 C 
ATOM     23  O   UNL     1      -2.494  10.880  15.611  0.00  0.00    +0.000 OA
ENDBRANCH   1  23
BRANCH   3  24
ATOM     24  O   UNL     1      -6.656  11.835  17.987  0.00  0.00    +0.000 OA
ATOM     25  C   UNL     1      -7.267  12.971  17.387  0.00  0.00    +0.000 C 
ENDBRANCH   3  24
TORSDOF 3
ENDMDL
MODEL 7
REMARK VINA RESULT:      -6.3      2.335      5.272
REMARK  Name = 
REMARK  7 active torsions:
REMARK  status: ('A' for Active; 'I' for Inactive)
REMARK    1  A    between atoms: C_1  and  O_2
REMARK    2  A    between atoms: O_2  and  C_3
REMARK    3  A    between atoms: C_5  and  O_6
REMARK    4  A    between atoms: O_6  and  C_7
REMARK    5  A    between atoms: C_12  and  C_13
REMARK    6  A    between atoms: C_15  and  C_16
REMARK    7  A    between atoms: C_21  and  C_22
REMARK                            x       y       z     vdW  Elec       q    Type
REMARK                         _______ _______ _______ _____ _____    ______ ____
ROOT
ATOM      1  C   UNL     1       0.204   8.622  21.005  0.00  0.00    +0.000 A 
ATOM      2  C   UNL     1       0.077   9.866  20.396  0.00  0.00    +0.000 A 
ATOM      3  C   UNL     1       0.878  10.195  19.297  0.00  0.00    +0.000 A 
ATOM      4  C   UNL     1       1.758   9.241  18.749  0.00  0.00    +0.000 A 
ATOM      5  N   UNL     1       2.520   9.592  17.608  0.00  0.00    +0.000 NA
ATOM      6  N   UNL     1       3.298   8.755  17.106  0.00  0.00    +0.000 NA
ATOM      7  C   UNL     1       3.392   7.483  17.572  0.00  0.00    +0.000 A 
ATOM      8  C   UNL     1       4.137   6.412  17.152  0.00  0.00    +0.000 A 
ATOM      9  C   UNL     1       5.122   6.324  16.050  0.00  0.00    +0.000 C 
ATOM     10  N   UNL     1       3.847   5.309  17.908  0.00  0.00    +0.000 NA
ATOM     11  C   UNL     1       2.938   5.669  18.803  0.00  0.00    +0.000 A 
ATOM     12  N   UNL     1       2.676   7.043  18.672  0.00  0.00    +0.000 N 
ATOM     13  C   UNL     1       1.859   7.977  19.361  0.00  0.00    +0.000 A 
ATOM     14  C   UNL     1       1.165   7.723  20.543  0.00  0.00    +0.000 A 
ENDROOT
BRANCH  11  15
ATOM     15  C   UNL     1       2.366   4.686  19.748  0.00  0.00    +0.000 A 
ATOM     16  C   UNL     1       2.637   4.733  21.122  0.00  0.00    +0.000 A 
ATOM     17  C   UNL     1       2.240   3.701  21.969  0.00  0.00    +0.000 A 
ATOM     18  C   UNL     1       1.451   2.701  21.445  0.00  0.00    +0.000 A 
ATOM     19  N   UNL     1       1.033   2.688  20.166  0.00  0.00    +0.000 NA
ATOM     20  C   UNL     1       1.476   3.676  19.335  0.00  0.00    +0.000 A 
ATOM     21  C   UNL     1       0.884   3.632  17.952  0.00  0.00    +0.000 C 
ENDBRANCH  11  15
BRANCH   1  23
ATOM     22  C   UNL     1      -0.665   9.119  23.155  0.00  0.00    +0.000 C 
ATOM     23  O   UNL     1      -0.543   8.195  22.073  0.00  0.00    +0.000 OA
ENDBRANCH   1  23
BRANCH   3  24
ATOM     24  O   UNL     1       0.855  11.428  18.686  0.00  0.00    +0.000 OA
ATOM     25  C   UNL     1       1.467  12.508  19.382  0.00  0.00    +0.000 C 
ENDBRANCH   3  24
TORSDOF 3
ENDMDL
MODEL 8
REMARK VINA RESULT:      -6.2      1.668      4.746
REMARK  Name = 
REMARK  7 active torsions:
REMARK  status: ('A' for Active; 'I' for Inactive)
REMARK    1  A    between atoms: C_1  and  O_2
REMARK    2  A    between atoms: O_2  and  C_3
REMARK    3  A    between atoms: C_5  and  O_6
REMARK    4  A    between atoms: O_6  and  C_7
REMARK    5  A    between atoms: C_12  and  C_13
REMARK    6  A    between atoms: C_15  and  C_16
REMARK    7  A    between atoms: C_21  and  C_22
REMARK                            x       y       z     vdW  Elec       q    Type
REMARK                         _______ _______ _______ _____ _____    ______ ____
ROOT
ATOM      1  C   UNL     1       1.427   7.914  20.218  0.00  0.00    +0.000 A 
ATOM      2  C   UNL     1       1.506   9.040  19.405  0.00  0.00    +0.000 A 
ATOM      3  C   UNL     1       2.323   9.030  18.269  0.00  0.00    +0.000 A 
ATOM      4  C   UNL     1       3.007   7.856  17.897  0.00  0.00    +0.000 A 
ATOM      5  N   UNL     1       3.788   7.867  16.716  0.00  0.00    +0.000 NA
ATOM      6  N   UNL     1       4.393   6.832  16.368  0.00  0.00    +0.000 NA
ATOM      7  C   UNL     1       4.274   5.661  17.046  0.00  0.00    +0.000 A 
ATOM      8  C   UNL     1       4.807   4.419  16.819  0.00  0.00    +0.000 A 
ATOM      9  C   UNL     1       5.733   3.972  15.753  0.00  0.00    +0.000 C 
ATOM     10  N   UNL     1       4.348   3.530  17.751  0.00  0.00    +0.000 NA
ATOM     11  C   UNL     1       3.541   4.192  18.567  0.00  0.00    +0.000 A 
ATOM     12  N   UNL     1       3.521   5.549  18.201  0.00  0.00    +0.000 N 
ATOM     13  C   UNL     1       2.899   6.716  18.716  0.00  0.00    +0.000 A 
ATOM     14  C   UNL     1       2.202   6.794  19.922  0.00  0.00    +0.000 A 
ENDROOT
BRANCH  11  15
ATOM     15  C   UNL     1       2.829   3.501  19.664  0.00  0.00    +0.000 A 
ATOM     16  C   UNL     1       1.433   3.538  19.782  0.00  0.00    +0.000 A 
ATOM     17  C   UNL     1       0.794   3.038  20.914  0.00  0.00    +0.000 A 
ATOM     18  C   UNL     1       1.558   2.379  21.850  0.00  0.00    +0.000 A 
ATOM     19  N   UNL     1       2.882   2.179  21.711  0.00  0.00    +0.000 NA
ATOM     20  C   UNL     1       3.503   2.723  20.625  0.00  0.00    +0.000 A 
ATOM     21  C   UNL     1       4.961   2.371  20.506  0.00  0.00    +0.000 C 
ENDBRANCH  11  15
BRANCH   1  23
ATOM     22  C   UNL     1      -0.039   9.006  21.729  0.00  0.00    +0.000 C 
ATOM     23  O   UNL     1       0.645   7.814  21.340  0.00  0.00    +0.000 OA
ENDBRANCH   1  23
BRANCH   3  24
ATOM     24  O   UNL     1       2.501  10.126  17.456  0.00  0.00    +0.000 OA
ATOM     25  C   UNL     1       2.268  11.406  18.032  0.00  0.00    +0.000 C 
ENDBRANCH   3  24
TORSDOF 3
ENDMDL
MODEL 9
REMARK VINA RESULT:      -6.2      6.230      9.088
REMARK  Name = 
REMARK  7 active torsions:
REMARK  status: ('A' for Active; 'I' for Inactive)
REMARK    1  A    between atoms: C_1  and  O_2
REMARK    2  A    between atoms: O_2  and  C_3
REMARK    3  A    between atoms: C_5  and  O_6
REMARK    4  A    between atoms: O_6  and  C_7
REMARK    5  A    between atoms: C_12  and  C_13
REMARK    6  A    between atoms: C_15  and  C_16
REMARK    7  A    between atoms: C_21  and  C_22
REMARK                            x       y       z     vdW  Elec       q    Type
REMARK                         _______ _______ _______ _____ _____    ______ ____
ROOT
ATOM      1  C   UNL     1      -3.292  10.909  16.301  0.00  0.00    +0.000 A 
ATOM      2  C   UNL     1      -4.595  11.396  16.323  0.00  0.00    +0.000 A 
ATOM      3  C   UNL     1      -5.124  11.934  17.502  0.00  0.00    +0.000 A 
ATOM      4  C   UNL     1      -4.316  12.061  18.649  0.00  0.00    +0.000 A 
ATOM      5  N   UNL     1      -4.870  12.652  19.811  0.00  0.00    +0.000 NA
ATOM      6  N   UNL     1      -4.164  12.779  20.833  0.00  0.00    +0.000 NA
ATOM      7  C   UNL     1      -2.851  12.434  20.853  0.00  0.00    +0.000 A 
ATOM      8  C   UNL     1      -1.901  12.525  21.837  0.00  0.00    +0.000 A 
ATOM      9  C   UNL     1      -2.031  13.010  23.230  0.00  0.00    +0.000 C 
ATOM     10  N   UNL     1      -0.689  12.101  21.364  0.00  0.00    +0.000 NA
ATOM     11  C   UNL     1      -0.861  11.736  20.102  0.00  0.00    +0.000 A 
ATOM     12  N   UNL     1      -2.218  11.863  19.763  0.00  0.00    +0.000 N 
ATOM     13  C   UNL     1      -2.992  11.585  18.605  0.00  0.00    +0.000 A 
ATOM     14  C   UNL     1      -2.534  10.917  17.471  0.00  0.00    +0.000 A 
ENDROOT
BRANCH  11  15
ATOM     15  C   UNL     1       0.278  11.275  19.279  0.00  0.00    +0.000 A 
ATOM     16  C   UNL     1       0.463   9.923  18.959  0.00  0.00    +0.000 A 
ATOM     17  C   UNL     1       1.631   9.485  18.339  0.00  0.00    +0.000 A 
ATOM     18  C   UNL     1       2.537  10.433  17.921  0.00  0.00    +0.000 A 
ATOM     19  N   UNL     1       2.336  11.756  18.065  0.00  0.00    +0.000 NA
ATOM     20  C   UNL     1       1.214  12.168  18.724  0.00  0.00    +0.000 A 
ATOM     21  C   UNL     1       1.029  13.661  18.755  0.00  0.00    +0.000 C 
ENDBRANCH  11  15
BRANCH   1  23
ATOM     22  C   UNL     1      -3.529  10.073  14.094  0.00  0.00    +0.000 C 
ATOM     23  O   UNL     1      -2.675  10.381  15.197  0.00  0.00    +0.000 OA
ENDBRANCH   1  23
BRANCH   3  24
ATOM     24  O   UNL     1      -6.423  12.374  17.616  0.00  0.00    +0.000 OA
ATOM     25  C   UNL     1      -6.755  13.592  16.961  0.00  0.00    +0.000 C 
ENDBRANCH   3  24
TORSDOF 3
ENDMDL
