MODEL 1
REMARK VINA RESULT:      -9.4      0.000      0.000
REMARK  Name = 
REMARK  12 active torsions:
REMARK  status: ('A' for Active; 'I' for Inactive)
REMARK    1  A    between atoms: C_1  and  O_2
REMARK    2  A    between atoms: O_2  and  C_3
REMARK    3  A    between atoms: C_3  and  C_5
REMARK    4  A    between atoms: C_10  and  C_11
REMARK    5  A    between atoms: C_14  and  C_15
REMARK    6  A    between atoms: C_15  and  N_16
REMARK    7  A    between atoms: C_19  and  N_20
REMARK    8  A    between atoms: C_21  and  C_23
REMARK    9  A    between atoms: C_23  and  C_24
REMARK   10  A    between atoms: C_24  and  C_25
REMARK   11  A    between atoms: C_24  and  C_26
REMARK   12  A    between atoms: C_24  and  N_27
REMARK                            x       y       z     vdW  Elec       q    Type
REMARK                         _______ _______ _______ _____ _____    ______ ____
ROOT
ATOM      1  N   UNL     1      -0.097  12.099  20.645  0.00  0.00    +0.000 N 
ATOM      2  C   UNL     1      -0.634  12.789  21.724  0.00  0.00    +0.000 C 
ATOM      3  O   UNL     1      -0.098  12.866  22.828  0.00  0.00    +0.000 OA
ATOM      4  C   UNL     1      -1.919  13.457  21.286  0.00  0.00    +0.000 C 
ATOM      5  C   UNL     1      -1.475  14.906  21.272  0.00  0.00    +0.000 C 
ATOM      6  C   UNL     1      -0.802  15.200  19.970  0.00  0.00    +0.000 C 
ATOM      7  C   UNL     1       0.540  14.491  19.758  0.00  0.00    +0.000 A 
ATOM      8  C   UNL     1       1.444  15.442  19.197  0.00  0.00    +0.000 A 
ATOM      9  C   UNL     1       2.362  15.050  18.264  0.00  0.00    +0.000 A 
ATOM     10  C   UNL     1       2.395  13.692  17.953  0.00  0.00    +0.000 A 
ATOM     11  C   UNL     1       1.629  12.687  18.684  0.00  0.00    +0.000 A 
ATOM     12  C   UNL     1       0.712  13.031  19.696  0.00  0.00    +0.000 A 
ENDROOT
BRANCH   4  13
ATOM     13  N   UNL     1      -2.327  12.873  19.943  0.00  0.00    +0.000 N 
ATOM     14  C   UNL     1      -3.505  12.328  19.580  0.00  0.00    +0.000 C 
ATOM     15  O   UNL     1      -4.407  12.163  20.409  0.00  0.00    +0.000 OA
ATOM     16  H   UNL     1      -1.671  13.057  19.201  0.00  0.00    +0.000 HD
BRANCH  14  17
ATOM     17  C   UNL     1      -3.734  12.074  18.068  0.00  0.00    +0.000 C 
BRANCH  17  18
ATOM     18  C   UNL     1      -2.730  11.215  17.252  0.00  0.00    +0.000 C 
ATOM     19  C   UNL     1      -2.375   9.889  17.925  0.00  0.00    +0.000 C 
ATOM     20  C   UNL     1      -3.221  10.982  15.821  0.00  0.00    +0.000 C 
BRANCH  18  21
ATOM     21  N   UNL     1      -1.431  11.915  17.132  0.00  0.00    +0.000 NA
ATOM     22  H   UNL     1      -1.346  12.371  16.225  0.00  0.00    +0.000 HD
ATOM     23  H   UNL     1      -0.662  11.250  17.206  0.00  0.00    +0.000 HD
ENDBRANCH  18  21
ENDBRANCH  17  18
ENDBRANCH  14  17
ENDBRANCH   4  13
BRANCH   1  24
ATOM     24  C   UNL     1      -0.306  10.623  20.964  0.00  0.00    +0.000 C 
BRANCH  24  28
ATOM     25  C   UNL     1       2.453   7.456  18.578  0.00  0.00    +0.000 A 
ATOM     26  C   UNL     1       2.080   7.358  19.933  0.00  0.00    +0.000 A 
ATOM     27  C   UNL     1       1.209   8.317  20.661  0.00  0.00    +0.000 A 
ATOM     28  C   UNL     1       0.624   9.466  20.085  0.00  0.00    +0.000 A 
ATOM     29  C   UNL     1       0.865   9.475  18.684  0.00  0.00    +0.000 A 
ATOM     30  C   UNL     1       1.755   8.523  17.965  0.00  0.00    +0.000 A 
BRANCH  25  36
ATOM     31  C   UNL     1       3.353   5.103  17.546  0.00  0.00    +0.000 A 
ATOM     32  C   UNL     1       4.362   4.279  16.949  0.00  0.00    +0.000 A 
ATOM     33  C   UNL     1       5.585   4.821  16.563  0.00  0.00    +0.000 A 
ATOM     34  C   UNL     1       5.768   6.169  16.788  0.00  0.00    +0.000 A 
ATOM     35  C   UNL     1       4.775   6.988  17.400  0.00  0.00    +0.000 A 
ATOM     36  C   UNL     1       3.495   6.500  17.839  0.00  0.00    +0.000 A 
BRANCH  31  37
ATOM     37  C   UNL     1       2.162   4.301  17.973  0.00  0.00    +0.000 C 
ATOM     38  O   UNL     1       1.147   4.197  17.329  0.00  0.00    +0.000 OA
BRANCH  37  40
ATOM     39  C   UNL     1       1.194   3.253  19.817  0.00  0.00    +0.000 C 
ATOM     40  O   UNL     1       2.379   3.789  19.211  0.00  0.00    +0.000 OA
ENDBRANCH  37  40
ENDBRANCH  31  37
ENDBRANCH  25  36
ENDBRANCH  24  28
ENDBRANCH   1  24
TORSDOF 9
ENDMDL
MODEL 2
REMARK VINA RESULT:      -9.3      0.971      1.267
REMARK  Name = 
REMARK  12 active torsions:
REMARK  status: ('A' for Active; 'I' for Inactive)
REMARK    1  A    between atoms: C_1  and  O_2
REMARK    2  A    between atoms: O_2  and  C_3
REMARK    3  A    between atoms: C_3  and  C_5
REMARK    4  A    between atoms: C_10  and  C_11
REMARK    5  A    between atoms: C_14  and  C_15
REMARK    6  A    between atoms: C_15  and  N_16
REMARK    7  A    between atoms: C_19  and  N_20
REMARK    8  A    between atoms: C_21  and  C_23
REMARK    9  A    between atoms: C_23  and  C_24
REMARK   10  A    between atoms: C_24  and  C_25
REMARK   11  A    between atoms: C_24  and  C_26
REMARK   12  A    between atoms: C_24  and  N_27
REMARK                            x       y       z     vdW  Elec       q    Type
REMARK                         _______ _______ _______ _____ _____    ______ ____
ROOT
ATOM      1  N   UNL     1       0.390  12.321  20.533  0.00  0.00    +0.000 N 
ATOM      2  C   UNL     1      -0.456  13.074  21.336  0.00  0.00    +0.000 C 
ATOM      3  O   UNL     1      -0.218  13.360  22.508  0.00  0.00    +0.000 OA
ATOM      4  C   UNL     1      -1.648  13.513  20.514  0.00  0.00    +0.000 C 
ATOM      5  C   UNL     1      -1.347  14.991  20.376  0.00  0.00    +0.000 C 
ATOM      6  C   UNL     1      -0.403  15.194  19.235  0.00  0.00    +0.000 C 
ATOM      7  C   UNL     1       1.008  14.637  19.452  0.00  0.00    +0.000 A 
ATOM      8  C   UNL     1       1.933  15.613  18.973  0.00  0.00    +0.000 A 
ATOM      9  C   UNL     1       3.084  15.221  18.351  0.00  0.00    +0.000 A 
ATOM     10  C   UNL     1       3.315  13.848  18.272  0.00  0.00    +0.000 A 
ATOM     11  C   UNL     1       2.486  12.859  18.955  0.00  0.00    +0.000 A 
ATOM     12  C   UNL     1       1.321  13.215  19.661  0.00  0.00    +0.000 A 
ENDROOT
BRANCH   4  13
ATOM     13  N   UNL     1      -1.659  12.712  19.222  0.00  0.00    +0.000 N 
ATOM     14  C   UNL     1      -2.698  12.117  18.603  0.00  0.00    +0.000 C 
ATOM     15  O   UNL     1      -3.817  12.096  19.127  0.00  0.00    +0.000 OA
ATOM     16  H   UNL     1      -0.798  12.765  18.701  0.00  0.00    +0.000 HD
BRANCH  14  17
ATOM     17  C   UNL     1      -2.468  11.611  17.155  0.00  0.00    +0.000 C 
BRANCH  17  18
ATOM     18  C   UNL     1      -3.391  10.523  16.544  0.00  0.00    +0.000 C 
ATOM     19  C   UNL     1      -3.000  10.120  15.122  0.00  0.00    +0.000 C 
ATOM     20  C   UNL     1      -3.487   9.292  17.448  0.00  0.00    +0.000 C 
BRANCH  18  21
ATOM     21  N   UNL     1      -4.772  11.038  16.403  0.00  0.00    +0.000 NA
ATOM     22  H   UNL     1      -4.775  11.955  15.961  0.00  0.00    +0.000 HD
ATOM     23  H   UNL     1      -5.206  11.146  17.319  0.00  0.00    +0.000 HD
ENDBRANCH  18  21
ENDBRANCH  17  18
ENDBRANCH  14  17
ENDBRANCH   4  13
BRANCH   1  24
ATOM     24  C   UNL     1       0.243  10.885  21.022  0.00  0.00    +0.000 C 
BRANCH  24  28
ATOM     25  C   UNL     1       2.497   7.439  18.496  0.00  0.00    +0.000 A 
ATOM     26  C   UNL     1       2.206   7.386  19.874  0.00  0.00    +0.000 A 
ATOM     27  C   UNL     1       1.488   8.433  20.646  0.00  0.00    +0.000 A 
ATOM     28  C   UNL     1       0.989   9.635  20.097  0.00  0.00    +0.000 A 
ATOM     29  C   UNL     1       1.138   9.613  18.683  0.00  0.00    +0.000 A 
ATOM     30  C   UNL     1       1.876   8.571  17.919  0.00  0.00    +0.000 A 
BRANCH  25  36
ATOM     31  C   UNL     1       3.385   4.950  17.844  0.00  0.00    +0.000 A 
ATOM     32  C   UNL     1       4.266   4.054  17.155  0.00  0.00    +0.000 A 
ATOM     33  C   UNL     1       5.193   4.536  16.234  0.00  0.00    +0.000 A 
ATOM     34  C   UNL     1       5.217   5.900  16.029  0.00  0.00    +0.000 A 
ATOM     35  C   UNL     1       4.356   6.797  16.727  0.00  0.00    +0.000 A 
ATOM     36  C   UNL     1       3.385   6.378  17.702  0.00  0.00    +0.000 A 
BRANCH  31  37
ATOM     37  C   UNL     1       2.544   4.235  18.855  0.00  0.00    +0.000 C 
ATOM     38  O   UNL     1       2.912   3.955  19.969  0.00  0.00    +0.000 OA
BRANCH  37  40
ATOM     39  C   UNL     1       0.921   2.573  18.657  0.00  0.00    +0.000 C 
ATOM     40  O   UNL     1       1.356   3.891  18.296  0.00  0.00    +0.000 OA
ENDBRANCH  37  40
ENDBRANCH  31  37
ENDBRANCH  25  36
ENDBRANCH  24  28
ENDBRANCH   1  24
TORSDOF 9
ENDMDL
MODEL 3
REMARK VINA RESULT:      -9.2      0.941      1.326
REMARK  Name = 
REMARK  12 active torsions:
REMARK  status: ('A' for Active; 'I' for Inactive)
REMARK    1  A    between atoms: C_1  and  O_2
REMARK    2  A    between atoms: O_2  and  C_3
REMARK    3  A    between atoms: C_3  and  C_5
REMARK    4  A    between atoms: C_10  and  C_11
REMARK    5  A    between atoms: C_14  and  C_15
REMARK    6  A    between atoms: C_15  and  N_16
REMARK    7  A    between atoms: C_19  and  N_20
REMARK    8  A    between atoms: C_21  and  C_23
REMARK    9  A    between atoms: C_23  and  C_24
REMARK   10  A    between atoms: C_24  and  C_25
REMARK   11  A    between atoms: C_24  and  C_26
REMARK   12  A    between atoms: C_24  and  N_27
REMARK                            x       y       z     vdW  Elec       q    Type
REMARK                         _______ _______ _______ _____ _____    ______ ____
ROOT
ATOM      1  N   UNL     1      -0.104  11.375  20.519  0.00  0.00    +0.000 N 
ATOM      2  C   UNL     1      -0.782  11.922  21.600  0.00  0.00    +0.000 C 
ATOM      3  O   UNL     1      -0.344  11.944  22.749  0.00  0.00    +0.000 OA
ATOM      4  C   UNL     1      -2.082  12.521  21.109  0.00  0.00    +0.000 C 
ATOM      5  C   UNL     1      -1.768  13.996  21.251  0.00  0.00    +0.000 C 
ATOM      6  C   UNL     1      -1.023  14.457  20.040  0.00  0.00    +0.000 C 
ATOM      7  C   UNL     1       0.389  13.880  19.887  0.00  0.00    +0.000 A 
ATOM      8  C   UNL     1       1.248  14.947  19.486  0.00  0.00    +0.000 A 
ATOM      9  C   UNL     1       2.267  14.715  18.607  0.00  0.00    +0.000 A 
ATOM     10  C   UNL     1       2.443  13.396  18.190  0.00  0.00    +0.000 A 
ATOM     11  C   UNL     1       1.714  12.272  18.768  0.00  0.00    +0.000 A 
ATOM     12  C   UNL     1       0.693  12.450  19.722  0.00  0.00    +0.000 A 
ENDROOT
BRANCH   4  13
ATOM     13  N   UNL     1      -2.331  12.026  19.693  0.00  0.00    +0.000 N 
ATOM     14  C   UNL     1      -3.491  11.964  19.009  0.00  0.00    +0.000 C 
ATOM     15  O   UNL     1      -4.562  12.248  19.556  0.00  0.00    +0.000 OA
ATOM     16  H   UNL     1      -1.489  11.864  19.163  0.00  0.00    +0.000 HD
BRANCH  14  17
ATOM     17  C   UNL     1      -3.404  11.683  17.487  0.00  0.00    +0.000 C 
BRANCH  17  18
ATOM     18  C   UNL     1      -3.005  10.276  16.966  0.00  0.00    +0.000 C 
ATOM     19  C   UNL     1      -3.421  10.022  15.517  0.00  0.00    +0.000 C 
ATOM     20  C   UNL     1      -1.510  10.009  17.155  0.00  0.00    +0.000 C 
BRANCH  18  21
ATOM     21  N   UNL     1      -3.710   9.223  17.731  0.00  0.00    +0.000 NA
ATOM     22  H   UNL     1      -3.748   9.456  18.722  0.00  0.00    +0.000 HD
ATOM     23  H   UNL     1      -3.216   8.335  17.651  0.00  0.00    +0.000 HD
ENDBRANCH  18  21
ENDBRANCH  17  18
ENDBRANCH  14  17
ENDBRANCH   4  13
BRANCH   1  24
ATOM     24  C   UNL     1      -0.207   9.865  20.698  0.00  0.00    +0.000 C 
BRANCH  24  28
ATOM     25  C   UNL     1       2.895   7.010  18.340  0.00  0.00    +0.000 A 
ATOM     26  C   UNL     1       2.305   8.180  17.823  0.00  0.00    +0.000 A 
ATOM     27  C   UNL     1       1.373   9.075  18.557  0.00  0.00    +0.000 A 
ATOM     28  C   UNL     1       0.951   8.875  19.890  0.00  0.00    +0.000 A 
ATOM     29  C   UNL     1       1.670   7.789  20.462  0.00  0.00    +0.000 A 
ATOM     30  C   UNL     1       2.587   6.886  19.715  0.00  0.00    +0.000 A 
BRANCH  25  36
ATOM     31  C   UNL     1       3.544   4.586  17.284  0.00  0.00    +0.000 A 
ATOM     32  C   UNL     1       4.427   3.696  16.590  0.00  0.00    +0.000 A 
ATOM     33  C   UNL     1       5.611   4.166  16.028  0.00  0.00    +0.000 A 
ATOM     34  C   UNL     1       5.884   5.509  16.179  0.00  0.00    +0.000 A 
ATOM     35  C   UNL     1       5.018   6.394  16.887  0.00  0.00    +0.000 A 
ATOM     36  C   UNL     1       3.787   5.982  17.506  0.00  0.00    +0.000 A 
BRANCH  31  37
ATOM     37  C   UNL     1       2.385   3.857  17.891  0.00  0.00    +0.000 C 
ATOM     38  O   UNL     1       1.263   3.876  17.447  0.00  0.00    +0.000 OA
BRANCH  37  40
ATOM     39  C   UNL     1       1.697   2.988  19.942  0.00  0.00    +0.000 C 
ATOM     40  O   UNL     1       2.781   3.252  19.039  0.00  0.00    +0.000 OA
ENDBRANCH  37  40
ENDBRANCH  31  37
ENDBRANCH  25  36
ENDBRANCH  24  28
ENDBRANCH   1  24
TORSDOF 9
ENDMDL
MODEL 4
REMARK VINA RESULT:      -8.9      2.056      3.078
REMARK  Name = 
REMARK  12 active torsions:
REMARK  status: ('A' for Active; 'I' for Inactive)
REMARK    1  A    between atoms: C_1  and  O_2
REMARK    2  A    between atoms: O_2  and  C_3
REMARK    3  A    between atoms: C_3  and  C_5
REMARK    4  A    between atoms: C_10  and  C_11
REMARK    5  A    between atoms: C_14  and  C_15
REMARK    6  A    between atoms: C_15  and  N_16
REMARK    7  A    between atoms: C_19  and  N_20
REMARK    8  A    between atoms: C_21  and  C_23
REMARK    9  A    between atoms: C_23  and  C_24
REMARK   10  A    between atoms: C_24  and  C_25
REMARK   11  A    between atoms: C_24  and  C_26
REMARK   12  A    between atoms: C_24  and  N_27
REMARK                            x       y       z     vdW  Elec       q    Type
REMARK                         _______ _______ _______ _____ _____    ______ ____
ROOT
ATOM      1  N   UNL     1       0.706  10.544  20.151  0.00  0.00    +0.000 N 
ATOM      2  C   UNL     1       0.273  10.765  21.451  0.00  0.00    +0.000 C 
ATOM      3  O   UNL     1       0.909  10.440  22.453  0.00  0.00    +0.000 OA
ATOM      4  C   UNL     1      -1.045  11.507  21.409  0.00  0.00    +0.000 C 
ATOM      5  C   UNL     1      -0.599  12.869  21.900  0.00  0.00    +0.000 C 
ATOM      6  C   UNL     1      -0.048  13.649  20.751  0.00  0.00    +0.000 C 
ATOM      7  C   UNL     1       1.267  13.114  20.173  0.00  0.00    +0.000 A 
ATOM      8  C   UNL     1       2.118  14.233  19.934  0.00  0.00    +0.000 A 
ATOM      9  C   UNL     1       2.946  14.247  18.847  0.00  0.00    +0.000 A 
ATOM     10  C   UNL     1       2.945  13.105  18.047  0.00  0.00    +0.000 A 
ATOM     11  C   UNL     1       2.247  11.877  18.412  0.00  0.00    +0.000 A 
ATOM     12  C   UNL     1       1.427  11.788  19.553  0.00  0.00    +0.000 A 
ENDROOT
BRANCH   4  13
ATOM     13  N   UNL     1      -1.577  11.454  19.986  0.00  0.00    +0.000 N 
ATOM     14  C   UNL     1      -2.752  11.904  19.504  0.00  0.00    +0.000 C 
ATOM     15  O   UNL     1      -3.612  12.362  20.264  0.00  0.00    +0.000 OA
ATOM     16  H   UNL     1      -0.890  11.175  19.303  0.00  0.00    +0.000 HD
BRANCH  14  17
ATOM     17  C   UNL     1      -2.909  11.973  17.963  0.00  0.00    +0.000 C 
BRANCH  17  18
ATOM     18  C   UNL     1      -2.676  10.711  17.089  0.00  0.00    +0.000 C 
ATOM     19  C   UNL     1      -3.417   9.474  17.597  0.00  0.00    +0.000 C 
ATOM     20  C   UNL     1      -3.006  10.974  15.619  0.00  0.00    +0.000 C 
BRANCH  18  21
ATOM     21  N   UNL     1      -1.250  10.315  17.126  0.00  0.00    +0.000 NA
ATOM     22  H   UNL     1      -0.740  10.854  17.822  0.00  0.00    +0.000 HD
ATOM     23  H   UNL     1      -0.808  10.495  16.225  0.00  0.00    +0.000 HD
ENDBRANCH  18  21
ENDBRANCH  17  18
ENDBRANCH  14  17
ENDBRANCH   4  13
BRANCH   1  24
ATOM     24  C   UNL     1       0.523   9.051  19.910  0.00  0.00    +0.000 C 
BRANCH  24  28
ATOM     25  C   UNL     1       4.013   6.573  17.670  0.00  0.00    +0.000 A 
ATOM     26  C   UNL     1       3.494   7.815  17.252  0.00  0.00    +0.000 A 
ATOM     27  C   UNL     1       2.440   8.591  17.956  0.00  0.00    +0.000 A 
ATOM     28  C   UNL     1       1.812   8.189  19.155  0.00  0.00    +0.000 A 
ATOM     29  C   UNL     1       2.449   7.021  19.660  0.00  0.00    +0.000 A 
ATOM     30  C   UNL     1       3.490   6.238  18.940  0.00  0.00    +0.000 A 
BRANCH  25  36
ATOM     31  C   UNL     1       6.478   5.723  16.888  0.00  0.00    +0.000 A 
ATOM     32  C   UNL     1       7.352   4.949  16.057  0.00  0.00    +0.000 A 
ATOM     33  C   UNL     1       6.837   4.038  15.139  0.00  0.00    +0.000 A 
ATOM     34  C   UNL     1       5.465   3.929  15.071  0.00  0.00    +0.000 A 
ATOM     35  C   UNL     1       4.591   4.712  15.881  0.00  0.00    +0.000 A 
ATOM     36  C   UNL     1       5.045   5.682  16.841  0.00  0.00    +0.000 A 
BRANCH  31  37
ATOM     37  C   UNL     1       7.235   6.705  17.728  0.00  0.00    +0.000 C 
ATOM     38  O   UNL     1       7.631   6.481  18.845  0.00  0.00    +0.000 OA
BRANCH  37  40
ATOM     39  C   UNL     1       7.942   8.924  17.850  0.00  0.00    +0.000 C 
ATOM     40  O   UNL     1       7.329   7.888  17.069  0.00  0.00    +0.000 OA
ENDBRANCH  37  40
ENDBRANCH  31  37
ENDBRANCH  25  36
ENDBRANCH  24  28
ENDBRANCH   1  24
TORSDOF 9
ENDMDL
MODEL 5
REMARK VINA RESULT:      -8.7      1.421      2.088
REMARK  Name = 
REMARK  12 active torsions:
REMARK  status: ('A' for Active; 'I' for Inactive)
REMARK    1  A    between atoms: C_1  and  O_2
REMARK    2  A    between atoms: O_2  and  C_3
REMARK    3  A    between atoms: C_3  and  C_5
REMARK    4  A    between atoms: C_10  and  C_11
REMARK    5  A    between atoms: C_14  and  C_15
REMARK    6  A    between atoms: C_15  and  N_16
REMARK    7  A    between atoms: C_19  and  N_20
REMARK    8  A    between atoms: C_21  and  C_23
REMARK    9  A    between atoms: C_23  and  C_24
REMARK   10  A    between atoms: C_24  and  C_25
REMARK   11  A    between atoms: C_24  and  C_26
REMARK   12  A    between atoms: C_24  and  N_27
REMARK                            x       y       z     vdW  Elec       q    Type
REMARK                         _______ _______ _______ _____ _____    ______ ____
ROOT
ATOM      1  N   UNL     1      -0.564  11.623  20.932  0.00  0.00    +0.000 N 
ATOM      2  C   UNL     1      -0.661  11.487  22.311  0.00  0.00    +0.000 C 
ATOM      3  O   UNL     1       0.169  10.901  23.005  0.00  0.00    +0.000 OA
ATOM      4  C   UNL     1      -1.896  12.218  22.789  0.00  0.00    +0.000 C 
ATOM      5  C   UNL     1      -1.253  13.395  23.492  0.00  0.00    +0.000 C 
ATOM      6  C   UNL     1      -0.936  14.455  22.487  0.00  0.00    +0.000 C 
ATOM      7  C   UNL     1       0.164  14.089  21.484  0.00  0.00    +0.000 A 
ATOM      8  C   UNL     1       1.011  15.229  21.342  0.00  0.00    +0.000 A 
ATOM      9  C   UNL     1       1.557  15.532  20.127  0.00  0.00    +0.000 A 
ATOM     10  C   UNL     1       1.288  14.648  19.084  0.00  0.00    +0.000 A 
ATOM     11  C   UNL     1       0.611  13.369  19.276  0.00  0.00    +0.000 A 
ATOM     12  C   UNL     1       0.081  12.980  20.521  0.00  0.00    +0.000 A 
ENDROOT
BRANCH   4  13
ATOM     13  N   UNL     1      -2.752  12.552  21.578  0.00  0.00    +0.000 N 
ATOM     14  C   UNL     1      -4.093  12.645  21.488  0.00  0.00    +0.000 C 
ATOM     15  O   UNL     1      -4.812  12.354  22.451  0.00  0.00    +0.000 OA
ATOM     16  H   UNL     1      -2.226  12.886  20.785  0.00  0.00    +0.000 HD
BRANCH  14  17
ATOM     17  C   UNL     1      -4.678  13.279  20.199  0.00  0.00    +0.000 C 
BRANCH  17  18
ATOM     18  C   UNL     1      -5.191  12.381  19.042  0.00  0.00    +0.000 C 
ATOM     19  C   UNL     1      -4.082  11.588  18.349  0.00  0.00    +0.000 C 
ATOM     20  C   UNL     1      -6.313  11.450  19.506  0.00  0.00    +0.000 C 
BRANCH  18  21
ATOM     21  N   UNL     1      -5.767  13.212  17.960  0.00  0.00    +0.000 NA
ATOM     22  H   UNL     1      -6.645  12.819  17.628  0.00  0.00    +0.000 HD
ATOM     23  H   UNL     1      -5.133  13.243  17.162  0.00  0.00    +0.000 HD
ENDBRANCH  18  21
ENDBRANCH  17  18
ENDBRANCH  14  17
ENDBRANCH   4  13
BRANCH   1  24
ATOM     24  C   UNL     1      -0.903  10.250  20.364  0.00  0.00    +0.000 C 
BRANCH  24  28
ATOM     25  C   UNL     1       2.576   7.502  18.445  0.00  0.00    +0.000 A 
ATOM     26  C   UNL     1       1.926   8.571  17.796  0.00  0.00    +0.000 A 
ATOM     27  C   UNL     1       0.876   9.435  18.395  0.00  0.00    +0.000 A 
ATOM     28  C   UNL     1       0.384   9.305  19.713  0.00  0.00    +0.000 A 
ATOM     29  C   UNL     1       1.152   8.336  20.416  0.00  0.00    +0.000 A 
ATOM     30  C   UNL     1       2.188   7.461  19.804  0.00  0.00    +0.000 A 
BRANCH  25  36
ATOM     31  C   UNL     1       3.662   5.068  17.892  0.00  0.00    +0.000 A 
ATOM     32  C   UNL     1       4.662   4.225  17.307  0.00  0.00    +0.000 A 
ATOM     33  C   UNL     1       5.660   4.762  16.499  0.00  0.00    +0.000 A 
ATOM     34  C   UNL     1       5.636   6.126  16.301  0.00  0.00    +0.000 A 
ATOM     35  C   UNL     1       4.655   6.972  16.898  0.00  0.00    +0.000 A 
ATOM     36  C   UNL     1       3.603   6.495  17.754  0.00  0.00    +0.000 A 
BRANCH  31  37
ATOM     37  C   UNL     1       2.750   4.301  18.800  0.00  0.00    +0.000 C 
ATOM     38  O   UNL     1       3.007   4.027  19.946  0.00  0.00    +0.000 OA
BRANCH  37  40
ATOM     39  C   UNL     1       1.043   2.721  18.641  0.00  0.00    +0.000 C 
ATOM     40  O   UNL     1       1.650   3.908  18.110  0.00  0.00    +0.000 OA
ENDBRANCH  37  40
ENDBRANCH  31  37
ENDBRANCH  25  36
ENDBRANCH  24  28
ENDBRANCH   1  24
TORSDOF 9
ENDMDL
MODEL 6
REMARK VINA RESULT:      -8.6      1.477      2.192
REMARK  Name = 
REMARK  12 active torsions:
REMARK  status: ('A' for Active; 'I' for Inactive)
REMARK    1  A    between atoms: C_1  and  O_2
REMARK    2  A    between atoms: O_2  and  C_3
REMARK    3  A    between atoms: C_3  and  C_5
REMARK    4  A    between atoms: C_10  and  C_11
REMARK    5  A    between atoms: C_14  and  C_15
REMARK    6  A    between atoms: C_15  and  N_16
REMARK    7  A    between atoms: C_19  and  N_20
REMARK    8  A    between atoms: C_21  and  C_23
REMARK    9  A    between atoms: C_23  and  C_24
REMARK   10  A    between atoms: C_24  and  C_25
REMARK   11  A    between atoms: C_24  and  C_26
REMARK   12  A    between atoms: C_24  and  N_27
REMARK                            x       y       z     vdW  Elec       q    Type
REMARK                         _______ _______ _______ _____ _____    ______ ____
ROOT
ATOM      1  N   UNL     1      -0.600  11.874  20.774  0.00  0.00    +0.000 N 
ATOM      2  C   UNL     1      -0.646  11.680  22.148  0.00  0.00    +0.000 C 
ATOM      3  O   UNL     1       0.206  11.064  22.786  0.00  0.00    +0.000 OA
ATOM      4  C   UNL     1      -1.861  12.393  22.702  0.00  0.00    +0.000 C 
ATOM      5  C   UNL     1      -1.188  13.538  23.430  0.00  0.00    +0.000 C 
ATOM      6  C   UNL     1      -0.904  14.638  22.458  0.00  0.00    +0.000 C 
ATOM      7  C   UNL     1       0.157  14.313  21.401  0.00  0.00    +0.000 A 
ATOM      8  C   UNL     1       1.003  15.456  21.276  0.00  0.00    +0.000 A 
ATOM      9  C   UNL     1       1.505  15.809  20.056  0.00  0.00    +0.000 A 
ATOM     10  C   UNL     1       1.194  14.970  18.987  0.00  0.00    +0.000 A 
ATOM     11  C   UNL     1       0.520  13.686  19.150  0.00  0.00    +0.000 A 
ATOM     12  C   UNL     1       0.034  13.245  20.396  0.00  0.00    +0.000 A 
ENDROOT
BRANCH   4  13
ATOM     13  N   UNL     1      -2.759  12.780  21.538  0.00  0.00    +0.000 N 
ATOM     14  C   UNL     1      -4.105  12.774  21.470  0.00  0.00    +0.000 C 
ATOM     15  O   UNL     1      -4.783  12.331  22.403  0.00  0.00    +0.000 OA
ATOM     16  H   UNL     1      -2.274  13.234  20.780  0.00  0.00    +0.000 HD
BRANCH  14  17
ATOM     17  C   UNL     1      -4.758  13.488  20.257  0.00  0.00    +0.000 C 
BRANCH  17  18
ATOM     18  C   UNL     1      -5.583  12.682  19.219  0.00  0.00    +0.000 C 
ATOM     19  C   UNL     1      -6.528  13.549  18.386  0.00  0.00    +0.000 C 
ATOM     20  C   UNL     1      -4.682  11.841  18.312  0.00  0.00    +0.000 C 
BRANCH  18  21
ATOM     21  N   UNL     1      -6.484  11.727  19.904  0.00  0.00    +0.000 NA
ATOM     22  H   UNL     1      -6.231  11.629  20.885  0.00  0.00    +0.000 HD
ATOM     23  H   UNL     1      -6.407  10.802  19.481  0.00  0.00    +0.000 HD
ENDBRANCH  18  21
ENDBRANCH  17  18
ENDBRANCH  14  17
ENDBRANCH   4  13
BRANCH   1  24
ATOM     24  C   UNL     1      -0.965  10.527  20.161  0.00  0.00    +0.000 C 
BRANCH  24  28
ATOM     25  C   UNL     1       2.496   7.632  18.434  0.00  0.00    +0.000 A 
ATOM     26  C   UNL     1       1.843   8.650  17.710  0.00  0.00    +0.000 A 
ATOM     27  C   UNL     1       0.799   9.560  18.248  0.00  0.00    +0.000 A 
ATOM     28  C   UNL     1       0.316   9.532  19.575  0.00  0.00    +0.000 A 
ATOM     29  C   UNL     1       1.087   8.618  20.346  0.00  0.00    +0.000 A 
ATOM     30  C   UNL     1       2.118   7.696  19.795  0.00  0.00    +0.000 A 
BRANCH  25  36
ATOM     31  C   UNL     1       3.505   5.147  17.971  0.00  0.00    +0.000 A 
ATOM     32  C   UNL     1       4.499   4.254  17.454  0.00  0.00    +0.000 A 
ATOM     33  C   UNL     1       5.566   4.738  16.702  0.00  0.00    +0.000 A 
ATOM     34  C   UNL     1       5.613   6.099  16.490  0.00  0.00    +0.000 A 
ATOM     35  C   UNL     1       4.637   6.994  17.019  0.00  0.00    +0.000 A 
ATOM     36  C   UNL     1       3.516   6.573  17.816  0.00  0.00    +0.000 A 
BRANCH  31  37
ATOM     37  C   UNL     1       2.508   4.432  18.830  0.00  0.00    +0.000 C 
ATOM     38  O   UNL     1       1.399   4.122  18.469  0.00  0.00    +0.000 OA
BRANCH  37  40
ATOM     39  C   UNL     1       2.013   4.075  21.080  0.00  0.00    +0.000 C 
ATOM     40  O   UNL     1       3.020   4.265  20.076  0.00  0.00    +0.000 OA
ENDBRANCH  37  40
ENDBRANCH  31  37
ENDBRANCH  25  36
ENDBRANCH  24  28
ENDBRANCH   1  24
TORSDOF 9
ENDMDL
MODEL 7
REMARK VINA RESULT:      -8.6      1.231      1.629
REMARK  Name = 
REMARK  12 active torsions:
REMARK  status: ('A' for Active; 'I' for Inactive)
REMARK    1  A    between atoms: C_1  and  O_2
REMARK    2  A    between atoms: O_2  and  C_3
REMARK    3  A    between atoms: C_3  and  C_5
REMARK    4  A    between atoms: C_10  and  C_11
REMARK    5  A    between atoms: C_14  and  C_15
REMARK    6  A    between atoms: C_15  and  N_16
REMARK    7  A    between atoms: C_19  and  N_20
REMARK    8  A    between atoms: C_21  and  C_23
REMARK    9  A    between atoms: C_23  and  C_24
REMARK   10  A    between atoms: C_24  and  C_25
REMARK   11  A    between atoms: C_24  and  C_26
REMARK   12  A    between atoms: C_24  and  N_27
REMARK                            x       y       z     vdW  Elec       q    Type
REMARK                         _______ _______ _______ _____ _____    ______ ____
ROOT
ATOM      1  N   UNL     1       0.252  10.880  20.579  0.00  0.00    +0.000 N 
ATOM      2  C   UNL     1      -0.208  11.080  21.873  0.00  0.00    +0.000 C 
ATOM      3  O   UNL     1       0.378  10.687  22.881  0.00  0.00    +0.000 OA
ATOM      4  C   UNL     1      -1.482  11.894  21.819  0.00  0.00    +0.000 C 
ATOM      5  C   UNL     1      -0.980  13.213  22.371  0.00  0.00    +0.000 C 
ATOM      6  C   UNL     1      -0.352  14.000  21.267  0.00  0.00    +0.000 C 
ATOM      7  C   UNL     1       0.949  13.413  20.709  0.00  0.00    +0.000 A 
ATOM      8  C   UNL     1       1.866  14.492  20.534  0.00  0.00    +0.000 A 
ATOM      9  C   UNL     1       2.726  14.498  19.473  0.00  0.00    +0.000 A 
ATOM     10  C   UNL     1       2.689  13.385  18.633  0.00  0.00    +0.000 A 
ATOM     11  C   UNL     1       1.914  12.185  18.933  0.00  0.00    +0.000 A 
ATOM     12  C   UNL     1       1.057  12.103  20.047  0.00  0.00    +0.000 A 
ENDROOT
BRANCH   4  13
ATOM     13  N   UNL     1      -1.972  11.919  20.381  0.00  0.00    +0.000 N 
ATOM     14  C   UNL     1      -3.206  12.194  19.911  0.00  0.00    +0.000 C 
ATOM     15  O   UNL     1      -4.149  12.381  20.686  0.00  0.00    +0.000 OA
ATOM     16  H   UNL     1      -1.235  11.863  19.696  0.00  0.00    +0.000 HD
BRANCH  14  17
ATOM     17  C   UNL     1      -3.350  12.423  18.384  0.00  0.00    +0.000 C 
BRANCH  17  18
ATOM     18  C   UNL     1      -3.913  11.303  17.468  0.00  0.00    +0.000 C 
ATOM     19  C   UNL     1      -3.311   9.926  17.749  0.00  0.00    +0.000 C 
ATOM     20  C   UNL     1      -5.442  11.246  17.523  0.00  0.00    +0.000 C 
BRANCH  18  21
ATOM     21  N   UNL     1      -3.563  11.566  16.054  0.00  0.00    +0.000 NA
ATOM     22  H   UNL     1      -2.787  10.978  15.756  0.00  0.00    +0.000 HD
ATOM     23  H   UNL     1      -3.266  12.535  15.937  0.00  0.00    +0.000 HD
ENDBRANCH  18  21
ENDBRANCH  17  18
ENDBRANCH  14  17
ENDBRANCH   4  13
BRANCH   1  24
ATOM     24  C   UNL     1      -0.004   9.408  20.280  0.00  0.00    +0.000 C 
BRANCH  24  28
ATOM     25  C   UNL     1       3.374   6.814  18.000  0.00  0.00    +0.000 A 
ATOM     26  C   UNL     1       2.766   7.984  17.502  0.00  0.00    +0.000 A 
ATOM     27  C   UNL     1       1.747   8.798  18.214  0.00  0.00    +0.000 A 
ATOM     28  C   UNL     1       1.248   8.511  19.504  0.00  0.00    +0.000 A 
ATOM     29  C   UNL     1       1.978   7.429  20.069  0.00  0.00    +0.000 A 
ATOM     30  C   UNL     1       2.982   6.605  19.343  0.00  0.00    +0.000 A 
BRANCH  25  36
ATOM     31  C   UNL     1       4.260   4.455  16.971  0.00  0.00    +0.000 A 
ATOM     32  C   UNL     1       5.229   3.649  16.287  0.00  0.00    +0.000 A 
ATOM     33  C   UNL     1       6.363   4.227  15.724  0.00  0.00    +0.000 A 
ATOM     34  C   UNL     1       6.502   5.592  15.862  0.00  0.00    +0.000 A 
ATOM     35  C   UNL     1       5.552   6.394  16.558  0.00  0.00    +0.000 A 
ATOM     36  C   UNL     1       4.364   5.871  17.178  0.00  0.00    +0.000 A 
BRANCH  31  37
ATOM     37  C   UNL     1       3.176   3.622  17.582  0.00  0.00    +0.000 C 
ATOM     38  O   UNL     1       2.070   3.500  17.117  0.00  0.00    +0.000 OA
BRANCH  37  40
ATOM     39  C   UNL     1       2.574   2.454  19.508  0.00  0.00    +0.000 C 
ATOM     40  O   UNL     1       3.611   3.105  18.759  0.00  0.00    +0.000 OA
ENDBRANCH  37  40
ENDBRANCH  31  37
ENDBRANCH  25  36
ENDBRANCH  24  28
ENDBRANCH   1  24
TORSDOF 9
ENDMDL
MODEL 8
REMARK VINA RESULT:      -8.6      1.665      2.634
REMARK  Name = 
REMARK  12 active torsions:
REMARK  status: ('A' for Active; 'I' for Inactive)
REMARK    1  A    between atoms: C_1  and  O_2
REMARK    2  A    between atoms: O_2  and  C_3
REMARK    3  A    between atoms: C_3  and  C_5
REMARK    4  A    between atoms: C_10  and  C_11
REMARK    5  A    between atoms: C_14  and  C_15
REMARK    6  A    between atoms: C_15  and  N_16
REMARK    7  A    between atoms: C_19  and  N_20
REMARK    8  A    between atoms: C_21  and  C_23
REMARK    9  A    between atoms: C_23  and  C_24
REMARK   10  A    between atoms: C_24  and  C_25
REMARK   11  A    between atoms: C_24  and  C_26
REMARK   12  A    between atoms: C_24  and  N_27
REMARK                            x       y       z     vdW  Elec       q    Type
REMARK                         _______ _______ _______ _____ _____    ______ ____
ROOT
ATOM      1  N   UNL     1      -0.612  11.832  20.747  0.00  0.00    +0.000 N 
ATOM      2  C   UNL     1      -0.652  11.621  22.119  0.00  0.00    +0.000 C 
ATOM      3  O   UNL     1       0.208  11.005  22.747  0.00  0.00    +0.000 OA
ATOM      4  C   UNL     1      -1.869  12.318  22.686  0.00  0.00    +0.000 C 
ATOM      5  C   UNL     1      -1.203  13.461  23.425  0.00  0.00    +0.000 C 
ATOM      6  C   UNL     1      -0.931  14.574  22.465  0.00  0.00    +0.000 C 
ATOM      7  C   UNL     1       0.129  14.269  21.401  0.00  0.00    +0.000 A 
ATOM      8  C   UNL     1       0.965  15.420  21.286  0.00  0.00    +0.000 A 
ATOM      9  C   UNL     1       1.460  15.791  20.068  0.00  0.00    +0.000 A 
ATOM     10  C   UNL     1       1.151  14.962  18.990  0.00  0.00    +0.000 A 
ATOM     11  C   UNL     1       0.488  13.671  19.141  0.00  0.00    +0.000 A 
ATOM     12  C   UNL     1       0.010  13.212  20.384  0.00  0.00    +0.000 A 
ENDROOT
BRANCH   4  13
ATOM     13  N   UNL     1      -2.775  12.712  21.530  0.00  0.00    +0.000 N 
ATOM     14  C   UNL     1      -4.121  12.756  21.487  0.00  0.00    +0.000 C 
ATOM     15  O   UNL     1      -4.797  12.360  22.442  0.00  0.00    +0.000 OA
ATOM     16  H   UNL     1      -2.288  13.129  20.753  0.00  0.00    +0.000 HD
BRANCH  14  17
ATOM     17  C   UNL     1      -4.770  13.465  20.270  0.00  0.00    +0.000 C 
BRANCH  17  18
ATOM     18  C   UNL     1      -5.438  14.858  20.433  0.00  0.00    +0.000 C 
ATOM     19  C   UNL     1      -4.441  15.980  20.726  0.00  0.00    +0.000 C 
ATOM     20  C   UNL     1      -6.310  15.210  19.226  0.00  0.00    +0.000 C 
BRANCH  18  21
ATOM     21  N   UNL     1      -6.340  14.864  21.607  0.00  0.00    +0.000 NA
ATOM     22  H   UNL     1      -6.613  13.916  21.861  0.00  0.00    +0.000 HD
ATOM     23  H   UNL     1      -7.195  15.375  21.394  0.00  0.00    +0.000 HD
ENDBRANCH  18  21
ENDBRANCH  17  18
ENDBRANCH  14  17
ENDBRANCH   4  13
BRANCH   1  24
ATOM     24  C   UNL     1      -0.968  10.489  20.121  0.00  0.00    +0.000 C 
BRANCH  24  28
ATOM     25  C   UNL     1       2.515   7.612  18.410  0.00  0.00    +0.000 A 
ATOM     26  C   UNL     1       1.898   8.662  17.699  0.00  0.00    +0.000 A 
ATOM     27  C   UNL     1       0.846   9.566  18.234  0.00  0.00    +0.000 A 
ATOM     28  C   UNL     1       0.320   9.499  19.543  0.00  0.00    +0.000 A 
ATOM     29  C   UNL     1       1.055   8.550  20.307  0.00  0.00    +0.000 A 
ATOM     30  C   UNL     1       2.093   7.635  19.759  0.00  0.00    +0.000 A 
BRANCH  25  36
ATOM     31  C   UNL     1       3.355   5.153  17.602  0.00  0.00    +0.000 A 
ATOM     32  C   UNL     1       4.351   4.246  17.112  0.00  0.00    +0.000 A 
ATOM     33  C   UNL     1       5.608   4.710  16.733  0.00  0.00    +0.000 A 
ATOM     34  C   UNL     1       5.838   6.063  16.858  0.00  0.00    +0.000 A 
ATOM     35  C   UNL     1       4.857   6.966  17.365  0.00  0.00    +0.000 A 
ATOM     36  C   UNL     1       3.544   6.562  17.790  0.00  0.00    +0.000 A 
BRANCH  31  37
ATOM     37  C   UNL     1       2.118   4.433  18.043  0.00  0.00    +0.000 C 
ATOM     38  O   UNL     1       1.148   4.260  17.346  0.00  0.00    +0.000 OA
BRANCH  37  40
ATOM     39  C   UNL     1       1.085   3.396  19.858  0.00  0.00    +0.000 C 
ATOM     40  O   UNL     1       2.236   4.087  19.350  0.00  0.00    +0.000 OA
ENDBRANCH  37  40
ENDBRANCH  31  37
ENDBRANCH  25  36
ENDBRANCH  24  28
ENDBRANCH   1  24
TORSDOF 9
ENDMDL
MODEL 9
REMARK VINA RESULT:      -8.5      0.932      1.099
REMARK  Name = 
REMARK  12 active torsions:
REMARK  status: ('A' for Active; 'I' for Inactive)
REMARK    1  A    between atoms: C_1  and  O_2
REMARK    2  A    between atoms: O_2  and  C_3
REMARK    3  A    between atoms: C_3  and  C_5
REMARK    4  A    between atoms: C_10  and  C_11
REMARK    5  A    between atoms: C_14  and  C_15
REMARK    6  A    between atoms: C_15  and  N_16
REMARK    7  A    between atoms: C_19  and  N_20
REMARK    8  A    between atoms: C_21  and  C_23
REMARK    9  A    between atoms: C_23  and  C_24
REMARK   10  A    between atoms: C_24  and  C_25
REMARK   11  A    between atoms: C_24  and  C_26
REMARK   12  A    between atoms: C_24  and  N_27
REMARK                            x       y       z     vdW  Elec       q    Type
REMARK                         _______ _______ _______ _____ _____    ______ ____
ROOT
ATOM      1  N   UNL     1      -0.060  11.910  20.846  0.00  0.00    +0.000 N 
ATOM      2  C   UNL     1      -0.646  12.581  21.911  0.00  0.00    +0.000 C 
ATOM      3  O   UNL     1      -0.117  12.720  23.013  0.00  0.00    +0.000 OA
ATOM      4  C   UNL     1      -1.977  13.143  21.462  0.00  0.00    +0.000 C 
ATOM      5  C   UNL     1      -1.641  14.620  21.416  0.00  0.00    +0.000 C 
ATOM      6  C   UNL     1      -0.992  14.936  20.108  0.00  0.00    +0.000 C 
ATOM      7  C   UNL     1       0.398  14.324  19.908  0.00  0.00    +0.000 A 
ATOM      8  C   UNL     1       1.229  15.327  19.326  0.00  0.00    +0.000 A 
ATOM      9  C   UNL     1       2.174  14.985  18.400  0.00  0.00    +0.000 A 
ATOM     10  C   UNL     1       2.307  13.626  18.117  0.00  0.00    +0.000 A 
ATOM     11  C   UNL     1       1.618  12.583  18.870  0.00  0.00    +0.000 A 
ATOM     12  C   UNL     1       0.678  12.879  19.876  0.00  0.00    +0.000 A 
ENDROOT
BRANCH   4  13
ATOM     13  N   UNL     1      -2.342  12.503  20.132  0.00  0.00    +0.000 N 
ATOM     14  C   UNL     1      -3.548  12.414  19.538  0.00  0.00    +0.000 C 
ATOM     15  O   UNL     1      -4.567  12.805  20.116  0.00  0.00    +0.000 OA
ATOM     16  H   UNL     1      -1.545  12.245  19.571  0.00  0.00    +0.000 HD
BRANCH  14  17
ATOM     17  C   UNL     1      -3.578  11.958  18.055  0.00  0.00    +0.000 C 
BRANCH  17  18
ATOM     18  C   UNL     1      -4.898  11.456  17.412  0.00  0.00    +0.000 C 
ATOM     19  C   UNL     1      -5.603  10.376  18.232  0.00  0.00    +0.000 C 
ATOM     20  C   UNL     1      -5.852  12.613  17.107  0.00  0.00    +0.000 C 
BRANCH  18  21
ATOM     21  N   UNL     1      -4.623  10.798  16.114  0.00  0.00    +0.000 NA
ATOM     22  H   UNL     1      -4.364  11.483  15.407  0.00  0.00    +0.000 HD
ATOM     23  H   UNL     1      -5.457  10.319  15.776  0.00  0.00    +0.000 HD
ENDBRANCH  18  21
ENDBRANCH  17  18
ENDBRANCH  14  17
ENDBRANCH   4  13
BRANCH   1  24
ATOM     24  C   UNL     1      -0.159  10.430  21.196  0.00  0.00    +0.000 C 
BRANCH  24  28
ATOM     25  C   UNL     1       2.507   7.366  18.580  0.00  0.00    +0.000 A 
ATOM     26  C   UNL     1       2.206   7.225  19.949  0.00  0.00    +0.000 A 
ATOM     27  C   UNL     1       1.362   8.152  20.749  0.00  0.00    +0.000 A 
ATOM     28  C   UNL     1       0.737   9.310  20.238  0.00  0.00    +0.000 A 
ATOM     29  C   UNL     1       0.907   9.363  18.826  0.00  0.00    +0.000 A 
ATOM     30  C   UNL     1       1.769   8.443  18.036  0.00  0.00    +0.000 A 
BRANCH  25  36
ATOM     31  C   UNL     1       3.399   5.046  17.472  0.00  0.00    +0.000 A 
ATOM     32  C   UNL     1       4.385   4.255  16.798  0.00  0.00    +0.000 A 
ATOM     33  C   UNL     1       5.560   4.835  16.326  0.00  0.00    +0.000 A 
ATOM     34  C   UNL     1       5.719   6.187  16.545  0.00  0.00    +0.000 A 
ATOM     35  C   UNL     1       4.750   6.973  17.233  0.00  0.00    +0.000 A 
ATOM     36  C   UNL     1       3.520   6.445  17.761  0.00  0.00    +0.000 A 
BRANCH  31  37
ATOM     37  C   UNL     1       2.266   4.207  17.980  0.00  0.00    +0.000 C 
ATOM     38  O   UNL     1       1.220   4.055  17.400  0.00  0.00    +0.000 OA
BRANCH  37  40
ATOM     39  C   UNL     1       2.567   2.289  19.271  0.00  0.00    +0.000 C 
ATOM     40  O   UNL     1       2.577   3.722  19.209  0.00  0.00    +0.000 OA
ENDBRANCH  37  40
ENDBRANCH  31  37
ENDBRANCH  25  36
ENDBRANCH  24  28
ENDBRANCH   1  24
TORSDOF 9
ENDMDL
