MODEL 1
REMARK VINA RESULT:      -8.6      0.000      0.000
REMARK  Name = 
REMARK  4 active torsions:
REMARK  status: ('A' for Active; 'I' for Inactive)
REMARK    1  A    between atoms: C_2  and  C_15
REMARK    2  A    between atoms: N_3  and  N_4
REMARK    3  A    between atoms: C_5  and  C_6
REMARK    4  A    between atoms: C_17  and  C_18
REMARK                            x       y       z     vdW  Elec       q    Type
REMARK                         _______ _______ _______ _____ _____    ______ ____
ROOT
ATOM      1  O   UNL     1       8.385   6.550  18.951  0.00  0.00    +0.000 OA
ATOM      2  C   UNL     1       7.584   6.868  18.072  0.00  0.00    +0.000 C 
ATOM      3  N   UNL     1       7.652   8.087  17.388  0.00  0.00    +0.000 N 
ATOM      4  H   UNL     1       6.957   8.316  16.684  0.00  0.00    +0.000 HD
ENDROOT
BRANCH   2   5
ATOM      5  C   UNL     1       6.484   6.016  17.669  0.00  0.00    +0.000 A 
ATOM      6  N   UNL     1       5.519   5.511  18.415  0.00  0.00    +0.000 NA
ATOM      7  C   UNL     1       4.795   4.768  17.493  0.00  0.00    +0.000 A 
ATOM      8  N   UNL     1       5.292   4.816  16.247  0.00  0.00    +0.000 NA
ATOM      9  O   UNL     1       6.404   5.642  16.360  0.00  0.00    +0.000 OA
BRANCH   7  10
ATOM     10  C   UNL     1       3.609   3.994  17.852  0.00  0.00    +0.000 A 
ATOM     11  C   UNL     1       3.642   2.593  17.830  0.00  0.00    +0.000 A 
ATOM     12  C   UNL     1       2.506   1.848  18.161  0.00  0.00    +0.000 A 
ATOM     13  C   UNL     1       1.323   2.496  18.517  0.00  0.00    +0.000 A 
ATOM     14  C   UNL     1       1.276   3.887  18.548  0.00  0.00    +0.000 A 
ATOM     15  C   UNL     1       2.411   4.632  18.220  0.00  0.00    +0.000 A 
ENDBRANCH   7  10
ENDBRANCH   2   5
BRANCH   3  16
ATOM     16  N   UNL     1       8.617   8.984  17.747  0.00  0.00    +0.000 NA
ATOM     17  C   UNL     1       8.244  10.151  18.164  0.00  0.00    +0.000 C 
BRANCH  17  18
ATOM     18  C   UNL     1       9.256  11.146  18.596  0.00  0.00    +0.000 A 
ATOM     19  C   UNL     1       9.929  10.976  19.828  0.00  0.00    +0.000 A 
ATOM     20  C   UNL     1      10.863  11.918  20.269  0.00  0.00    +0.000 A 
ATOM     21  C   UNL     1      11.093  13.013  19.466  0.00  0.00    +0.000 A 
ATOM     22  C   UNL     1      10.443  13.179  18.264  0.00  0.00    +0.000 A 
ATOM     23  C   UNL     1       9.523  12.261  17.792  0.00  0.00    +0.000 A 
ATOM     24  O   UNL     1      10.811  14.331  17.638  0.00  0.00    +0.000 OA
ATOM     25  C   UNL     1      11.715  14.897  18.612  0.00  0.00    +0.000 C 
ATOM     26  O   UNL     1      11.945  14.034  19.744  0.00  0.00    +0.000 OA
ENDBRANCH  17  18
ENDBRANCH   3  16
TORSDOF 4
ENDMDL
MODEL 2
REMARK VINA RESULT:      -8.5      1.193      1.658
REMARK  Name = 
REMARK  4 active torsions:
REMARK  status: ('A' for Active; 'I' for Inactive)
REMARK    1  A    between atoms: C_2  and  C_15
REMARK    2  A    between atoms: N_3  and  N_4
REMARK    3  A    between atoms: C_5  and  C_6
REMARK    4  A    between atoms: C_17  and  C_18
REMARK                            x       y       z     vdW  Elec       q    Type
REMARK                         _______ _______ _______ _____ _____    ______ ____
ROOT
ATOM      1  O   UNL     1       7.187   8.182  16.743  0.00  0.00    +0.000 OA
ATOM      2  C   UNL     1       7.395   7.521  17.761  0.00  0.00    +0.000 C 
ATOM      3  N   UNL     1       8.355   7.876  18.715  0.00  0.00    +0.000 N 
ATOM      4  H   UNL     1       8.507   7.289  19.529  0.00  0.00    +0.000 HD
ENDROOT
BRANCH   2   5
ATOM      5  C   UNL     1       6.672   6.303  18.065  0.00  0.00    +0.000 A 
ATOM      6  N   UNL     1       5.412   6.008  17.803  0.00  0.00    +0.000 NA
ATOM      7  C   UNL     1       5.291   4.737  18.349  0.00  0.00    +0.000 A 
ATOM      8  N   UNL     1       6.418   4.279  18.916  0.00  0.00    +0.000 NA
ATOM      9  O   UNL     1       7.331   5.309  18.725  0.00  0.00    +0.000 OA
BRANCH   7  10
ATOM     10  C   UNL     1       4.044   3.976  18.321  0.00  0.00    +0.000 A 
ATOM     11  C   UNL     1       2.876   4.543  17.792  0.00  0.00    +0.000 A 
ATOM     12  C   UNL     1       1.678   3.823  17.773  0.00  0.00    +0.000 A 
ATOM     13  C   UNL     1       1.633   2.526  18.286  0.00  0.00    +0.000 A 
ATOM     14  C   UNL     1       2.786   1.946  18.810  0.00  0.00    +0.000 A 
ATOM     15  C   UNL     1       3.984   2.665  18.826  0.00  0.00    +0.000 A 
ENDBRANCH   7  10
ENDBRANCH   2   5
BRANCH   3  16
ATOM     16  N   UNL     1       9.133   8.974  18.480  0.00  0.00    +0.000 NA
ATOM     17  C   UNL     1       9.138   9.921  19.361  0.00  0.00    +0.000 C 
BRANCH  17  18
ATOM     18  C   UNL     1       9.993  11.118  19.165  0.00  0.00    +0.000 A 
ATOM     19  C   UNL     1      10.423  11.867  20.284  0.00  0.00    +0.000 A 
ATOM     20  C   UNL     1      11.203  13.015  20.119  0.00  0.00    +0.000 A 
ATOM     21  C   UNL     1      11.525  13.389  18.834  0.00  0.00    +0.000 A 
ATOM     22  C   UNL     1      11.112  12.659  17.742  0.00  0.00    +0.000 A 
ATOM     23  C   UNL     1      10.349  11.512  17.869  0.00  0.00    +0.000 A 
ATOM     24  O   UNL     1      11.531  13.209  16.569  0.00  0.00    +0.000 OA
ATOM     25  C   UNL     1      12.199  14.398  17.047  0.00  0.00    +0.000 C 
ATOM     26  O   UNL     1      12.252  14.483  18.485  0.00  0.00    +0.000 OA
ENDBRANCH  17  18
ENDBRANCH   3  16
TORSDOF 4
ENDMDL
MODEL 3
REMARK VINA RESULT:      -8.4      1.299      1.534
REMARK  Name = 
REMARK  4 active torsions:
REMARK  status: ('A' for Active; 'I' for Inactive)
REMARK    1  A    between atoms: C_2  and  C_15
REMARK    2  A    between atoms: N_3  and  N_4
REMARK    3  A    between atoms: C_5  and  C_6
REMARK    4  A    between atoms: C_17  and  C_18
REMARK                            x       y       z     vdW  Elec       q    Type
REMARK                         _______ _______ _______ _____ _____    ______ ____
ROOT
ATOM      1  O   UNL     1       7.867   7.414  16.584  0.00  0.00    +0.000 OA
ATOM      2  C   UNL     1       7.603   7.186  17.765  0.00  0.00    +0.000 C 
ATOM      3  N   UNL     1       8.115   7.950  18.819  0.00  0.00    +0.000 N 
ATOM      4  H   UNL     1       7.887   7.713  19.779  0.00  0.00    +0.000 HD
ENDROOT
BRANCH   2   5
ATOM      5  C   UNL     1       6.745   6.095  18.179  0.00  0.00    +0.000 A 
ATOM      6  N   UNL     1       5.515   5.821  17.784  0.00  0.00    +0.000 NA
ATOM      7  C   UNL     1       5.211   4.695  18.538  0.00  0.00    +0.000 A 
ATOM      8  N   UNL     1       6.203   4.302  19.352  0.00  0.00    +0.000 NA
ATOM      9  O   UNL     1       7.218   5.221  19.113  0.00  0.00    +0.000 OA
BRANCH   7  10
ATOM     10  C   UNL     1       3.922   4.012  18.461  0.00  0.00    +0.000 A 
ATOM     11  C   UNL     1       3.815   2.656  18.798  0.00  0.00    +0.000 A 
ATOM     12  C   UNL     1       2.586   1.995  18.715  0.00  0.00    +0.000 A 
ATOM     13  C   UNL     1       1.449   2.683  18.290  0.00  0.00    +0.000 A 
ATOM     14  C   UNL     1       1.537   4.032  17.956  0.00  0.00    +0.000 A 
ATOM     15  C   UNL     1       2.765   4.693  18.042  0.00  0.00    +0.000 A 
ENDBRANCH   7  10
ENDBRANCH   2   5
BRANCH   3  16
ATOM     16  N   UNL     1       8.988   8.960  18.529  0.00  0.00    +0.000 NA
ATOM     17  C   UNL     1       8.525  10.165  18.441  0.00  0.00    +0.000 C 
BRANCH  17  18
ATOM     18  C   UNL     1       9.441  11.297  18.160  0.00  0.00    +0.000 A 
ATOM     19  C   UNL     1      10.832  11.068  18.057  0.00  0.00    +0.000 A 
ATOM     20  C   UNL     1      11.716  12.127  17.823  0.00  0.00    +0.000 A 
ATOM     21  C   UNL     1      11.182  13.391  17.709  0.00  0.00    +0.000 A 
ATOM     22  C   UNL     1       9.827  13.616  17.805  0.00  0.00    +0.000 A 
ATOM     23  C   UNL     1       8.924  12.592  18.023  0.00  0.00    +0.000 A 
ATOM     24  O   UNL     1       9.517  14.936  17.672  0.00  0.00    +0.000 OA
ATOM     25  C   UNL     1      10.834  15.517  17.546  0.00  0.00    +0.000 C 
ATOM     26  O   UNL     1      11.888  14.533  17.505  0.00  0.00    +0.000 OA
ENDBRANCH  17  18
ENDBRANCH   3  16
TORSDOF 4
ENDMDL
MODEL 4
REMARK VINA RESULT:      -8.2      1.277      1.576
REMARK  Name = 
REMARK  4 active torsions:
REMARK  status: ('A' for Active; 'I' for Inactive)
REMARK    1  A    between atoms: C_2  and  C_15
REMARK    2  A    between atoms: N_3  and  N_4
REMARK    3  A    between atoms: C_5  and  C_6
REMARK    4  A    between atoms: C_17  and  C_18
REMARK                            x       y       z     vdW  Elec       q    Type
REMARK                         _______ _______ _______ _____ _____    ______ ____
ROOT
ATOM      1  O   UNL     1       7.180   8.530  16.816  0.00  0.00    +0.000 OA
ATOM      2  C   UNL     1       7.524   7.820  17.762  0.00  0.00    +0.000 C 
ATOM      3  N   UNL     1       8.504   8.205  18.683  0.00  0.00    +0.000 N 
ATOM      4  H   UNL     1       8.771   7.578  19.436  0.00  0.00    +0.000 HD
ENDROOT
BRANCH   2   5
ATOM      5  C   UNL     1       6.956   6.510  18.004  0.00  0.00    +0.000 A 
ATOM      6  N   UNL     1       5.702   6.119  17.865  0.00  0.00    +0.000 NA
ATOM      7  C   UNL     1       5.765   4.791  18.266  0.00  0.00    +0.000 A 
ATOM      8  N   UNL     1       6.993   4.392  18.632  0.00  0.00    +0.000 NA
ATOM      9  O   UNL     1       7.781   5.522  18.455  0.00  0.00    +0.000 OA
BRANCH   7  10
ATOM     10  C   UNL     1       4.596   3.916  18.301  0.00  0.00    +0.000 A 
ATOM     11  C   UNL     1       4.386   3.052  19.384  0.00  0.00    +0.000 A 
ATOM     12  C   UNL     1       3.275   2.204  19.416  0.00  0.00    +0.000 A 
ATOM     13  C   UNL     1       2.361   2.209  18.362  0.00  0.00    +0.000 A 
ATOM     14  C   UNL     1       2.552   3.065  17.281  0.00  0.00    +0.000 A 
ATOM     15  C   UNL     1       3.661   3.914  17.250  0.00  0.00    +0.000 A 
ENDBRANCH   7  10
ENDBRANCH   2   5
BRANCH   3  16
ATOM     16  N   UNL     1       9.143   9.397  18.496  0.00  0.00    +0.000 NA
ATOM     17  C   UNL     1       9.266  10.192  19.509  0.00  0.00    +0.000 C 
BRANCH  17  18
ATOM     18  C   UNL     1       9.983  11.483  19.361  0.00  0.00    +0.000 A 
ATOM     19  C   UNL     1      10.373  12.207  20.512  0.00  0.00    +0.000 A 
ATOM     20  C   UNL     1      11.022  13.440  20.394  0.00  0.00    +0.000 A 
ATOM     21  C   UNL     1      11.255  13.921  19.125  0.00  0.00    +0.000 A 
ATOM     22  C   UNL     1      10.880  13.216  18.003  0.00  0.00    +0.000 A 
ATOM     23  C   UNL     1      10.248  11.988  18.083  0.00  0.00    +0.000 A 
ATOM     24  O   UNL     1      11.195  13.875  16.854  0.00  0.00    +0.000 OA
ATOM     25  C   UNL     1      11.752  15.099  17.384  0.00  0.00    +0.000 C 
ATOM     26  O   UNL     1      11.849  15.105  18.823  0.00  0.00    +0.000 OA
ENDBRANCH  17  18
ENDBRANCH   3  16
TORSDOF 4
ENDMDL
MODEL 5
REMARK VINA RESULT:      -8.1      2.767      3.578
REMARK  Name = 
REMARK  4 active torsions:
REMARK  status: ('A' for Active; 'I' for Inactive)
REMARK    1  A    between atoms: C_2  and  C_15
REMARK    2  A    between atoms: N_3  and  N_4
REMARK    3  A    between atoms: C_5  and  C_6
REMARK    4  A    between atoms: C_17  and  C_18
REMARK                            x       y       z     vdW  Elec       q    Type
REMARK                         _______ _______ _______ _____ _____    ______ ____
ROOT
ATOM      1  O   UNL     1       8.127   6.541  19.085  0.00  0.00    +0.000 OA
ATOM      2  C   UNL     1       7.732   6.913  17.979  0.00  0.00    +0.000 C 
ATOM      3  N   UNL     1       7.873   8.229  17.526  0.00  0.00    +0.000 N 
ATOM      4  H   UNL     1       7.513   8.496  16.614  0.00  0.00    +0.000 HD
ENDROOT
BRANCH   2   5
ATOM      5  C   UNL     1       7.071   6.025  17.045  0.00  0.00    +0.000 A 
ATOM      6  N   UNL     1       7.341   5.827  15.768  0.00  0.00    +0.000 NA
ATOM      7  C   UNL     1       6.369   4.904  15.404  0.00  0.00    +0.000 A 
ATOM      8  N   UNL     1       5.547   4.557  16.407  0.00  0.00    +0.000 NA
ATOM      9  O   UNL     1       6.011   5.292  17.491  0.00  0.00    +0.000 OA
BRANCH   7  10
ATOM     10  C   UNL     1       6.246   4.373  14.049  0.00  0.00    +0.000 A 
ATOM     11  C   UNL     1       5.059   3.754  13.633  0.00  0.00    +0.000 A 
ATOM     12  C   UNL     1       4.941   3.234  12.341  0.00  0.00    +0.000 A 
ATOM     13  C   UNL     1       6.009   3.326  11.449  0.00  0.00    +0.000 A 
ATOM     14  C   UNL     1       7.193   3.943  11.845  0.00  0.00    +0.000 A 
ATOM     15  C   UNL     1       7.311   4.465  13.135  0.00  0.00    +0.000 A 
ENDBRANCH   7  10
ENDBRANCH   2   5
BRANCH   3  16
ATOM     16  N   UNL     1       8.424   9.154  18.366  0.00  0.00    +0.000 NA
ATOM     17  C   UNL     1       8.775  10.297  17.874  0.00  0.00    +0.000 C 
BRANCH  17  18
ATOM     18  C   UNL     1       9.347  11.344  18.755  0.00  0.00    +0.000 A 
ATOM     19  C   UNL     1       9.592  11.060  20.119  0.00  0.00    +0.000 A 
ATOM     20  C   UNL     1      10.103  12.042  20.973  0.00  0.00    +0.000 A 
ATOM     21  C   UNL     1      10.346  13.288  20.441  0.00  0.00    +0.000 A 
ATOM     22  C   UNL     1      10.113  13.567  19.112  0.00  0.00    +0.000 A 
ATOM     23  C   UNL     1       9.621  12.616  18.237  0.00  0.00    +0.000 A 
ATOM     24  O   UNL     1      10.412  14.858  18.800  0.00  0.00    +0.000 OA
ATOM     25  C   UNL     1      10.798  15.372  20.094  0.00  0.00    +0.000 C 
ATOM     26  O   UNL     1      10.818  14.364  21.125  0.00  0.00    +0.000 OA
ENDBRANCH  17  18
ENDBRANCH   3  16
TORSDOF 4
ENDMDL
MODEL 6
REMARK VINA RESULT:      -7.9      0.999      1.160
REMARK  Name = 
REMARK  4 active torsions:
REMARK  status: ('A' for Active; 'I' for Inactive)
REMARK    1  A    between atoms: C_2  and  C_15
REMARK    2  A    between atoms: N_3  and  N_4
REMARK    3  A    between atoms: C_5  and  C_6
REMARK    4  A    between atoms: C_17  and  C_18
REMARK                            x       y       z     vdW  Elec       q    Type
REMARK                         _______ _______ _______ _____ _____    ______ ____
ROOT
ATOM      1  O   UNL     1       8.258   6.509  18.872  0.00  0.00    +0.000 OA
ATOM      2  C   UNL     1       7.339   6.867  18.135  0.00  0.00    +0.000 C 
ATOM      3  N   UNL     1       7.336   8.097  17.468  0.00  0.00    +0.000 N 
ATOM      4  H   UNL     1       6.546   8.360  16.886  0.00  0.00    +0.000 HD
ENDROOT
BRANCH   2   5
ATOM      5  C   UNL     1       6.164   6.054  17.897  0.00  0.00    +0.000 A 
ATOM      6  N   UNL     1       5.236   5.680  18.758  0.00  0.00    +0.000 NA
ATOM      7  C   UNL     1       4.399   4.905  17.966  0.00  0.00    +0.000 A 
ATOM      8  N   UNL     1       4.797   4.809  16.687  0.00  0.00    +0.000 NA
ATOM      9  O   UNL     1       5.958   5.571  16.639  0.00  0.00    +0.000 OA
BRANCH   7  10
ATOM     10  C   UNL     1       3.204   4.242  18.483  0.00  0.00    +0.000 A 
ATOM     11  C   UNL     1       2.708   3.086  17.865  0.00  0.00    +0.000 A 
ATOM     12  C   UNL     1       1.558   2.456  18.350  0.00  0.00    +0.000 A 
ATOM     13  C   UNL     1       0.890   2.975  19.459  0.00  0.00    +0.000 A 
ATOM     14  C   UNL     1       1.373   4.119  20.088  0.00  0.00    +0.000 A 
ATOM     15  C   UNL     1       2.524   4.749  19.605  0.00  0.00    +0.000 A 
ENDBRANCH   7  10
ENDBRANCH   2   5
BRANCH   3  16
ATOM     16  N   UNL     1       8.372   8.960  17.685  0.00  0.00    +0.000 NA
ATOM     17  C   UNL     1       8.095  10.182  18.008  0.00  0.00    +0.000 C 
BRANCH  17  18
ATOM     18  C   UNL     1       9.188  11.146  18.286  0.00  0.00    +0.000 A 
ATOM     19  C   UNL     1      10.487  10.901  17.783  0.00  0.00    +0.000 A 
ATOM     20  C   UNL     1      11.538  11.781  18.059  0.00  0.00    +0.000 A 
ATOM     21  C   UNL     1      11.262  12.880  18.841  0.00  0.00    +0.000 A 
ATOM     22  C   UNL     1       9.997  13.124  19.328  0.00  0.00    +0.000 A 
ATOM     23  C   UNL     1       8.932  12.281  19.064  0.00  0.00    +0.000 A 
ATOM     24  O   UNL     1       9.948  14.255  20.083  0.00  0.00    +0.000 OA
ATOM     25  C   UNL     1      11.336  14.658  20.065  0.00  0.00    +0.000 C 
ATOM     26  O   UNL     1      12.160  13.824  19.226  0.00  0.00    +0.000 OA
ENDBRANCH  17  18
ENDBRANCH   3  16
TORSDOF 4
ENDMDL
MODEL 7
REMARK VINA RESULT:      -7.8      6.507      8.207
REMARK  Name = 
REMARK  4 active torsions:
REMARK  status: ('A' for Active; 'I' for Inactive)
REMARK    1  A    between atoms: C_2  and  C_15
REMARK    2  A    between atoms: N_3  and  N_4
REMARK    3  A    between atoms: C_5  and  C_6
REMARK    4  A    between atoms: C_17  and  C_18
REMARK                            x       y       z     vdW  Elec       q    Type
REMARK                         _______ _______ _______ _____ _____    ______ ____
ROOT
ATOM      1  O   UNL     1       3.600   5.866  19.539  0.00  0.00    +0.000 OA
ATOM      2  C   UNL     1       3.691   6.178  18.351  0.00  0.00    +0.000 C 
ATOM      3  N   UNL     1       3.049   7.295  17.808  0.00  0.00    +0.000 N 
ATOM      4  H   UNL     1       3.135   7.502  16.818  0.00  0.00    +0.000 HD
ENDROOT
BRANCH   2   5
ATOM      5  C   UNL     1       4.462   5.407  17.397  0.00  0.00    +0.000 A 
ATOM      6  N   UNL     1       4.842   5.750  16.180  0.00  0.00    +0.000 NA
ATOM      7  C   UNL     1       5.513   4.612  15.753  0.00  0.00    +0.000 A 
ATOM      8  N   UNL     1       5.540   3.624  16.662  0.00  0.00    +0.000 NA
ATOM      9  O   UNL     1       4.852   4.149  17.749  0.00  0.00    +0.000 OA
BRANCH   7  10
ATOM     10  C   UNL     1       6.120   4.497  14.429  0.00  0.00    +0.000 A 
ATOM     11  C   UNL     1       5.571   3.638  13.468  0.00  0.00    +0.000 A 
ATOM     12  C   UNL     1       6.155   3.516  12.203  0.00  0.00    +0.000 A 
ATOM     13  C   UNL     1       7.296   4.252  11.886  0.00  0.00    +0.000 A 
ATOM     14  C   UNL     1       7.851   5.114  12.828  0.00  0.00    +0.000 A 
ATOM     15  C   UNL     1       7.267   5.238  14.091  0.00  0.00    +0.000 A 
ENDBRANCH   7  10
ENDBRANCH   2   5
BRANCH   3  16
ATOM     16  N   UNL     1       2.244   8.044  18.619  0.00  0.00    +0.000 NA
ATOM     17  C   UNL     1       1.551   8.997  18.084  0.00  0.00    +0.000 C 
BRANCH  17  18
ATOM     18  C   UNL     1       0.638   9.815  18.920  0.00  0.00    +0.000 A 
ATOM     19  C   UNL     1      -0.497  10.422  18.335  0.00  0.00    +0.000 A 
ATOM     20  C   UNL     1      -1.353  11.222  19.098  0.00  0.00    +0.000 A 
ATOM     21  C   UNL     1      -1.044  11.400  20.428  0.00  0.00    +0.000 A 
ATOM     22  C   UNL     1       0.058  10.806  21.001  0.00  0.00    +0.000 A 
ATOM     23  C   UNL     1       0.919   9.999  20.279  0.00  0.00    +0.000 A 
ATOM     24  O   UNL     1       0.182  11.121  22.320  0.00  0.00    +0.000 OA
ATOM     25  C   UNL     1      -0.930  12.028  22.492  0.00  0.00    +0.000 C 
ATOM     26  O   UNL     1      -1.746  12.158  21.310  0.00  0.00    +0.000 OA
ENDBRANCH  17  18
ENDBRANCH   3  16
TORSDOF 4
ENDMDL
MODEL 8
REMARK VINA RESULT:      -7.7      6.539      8.253
REMARK  Name = 
REMARK  4 active torsions:
REMARK  status: ('A' for Active; 'I' for Inactive)
REMARK    1  A    between atoms: C_2  and  C_15
REMARK    2  A    between atoms: N_3  and  N_4
REMARK    3  A    between atoms: C_5  and  C_6
REMARK    4  A    between atoms: C_17  and  C_18
REMARK                            x       y       z     vdW  Elec       q    Type
REMARK                         _______ _______ _______ _____ _____    ______ ____
ROOT
ATOM      1  O   UNL     1       3.675   5.654  19.611  0.00  0.00    +0.000 OA
ATOM      2  C   UNL     1       3.753   6.010  18.435  0.00  0.00    +0.000 C 
ATOM      3  N   UNL     1       3.156   7.181  17.955  0.00  0.00    +0.000 N 
ATOM      4  H   UNL     1       3.229   7.425  16.972  0.00  0.00    +0.000 HD
ENDROOT
BRANCH   2   5
ATOM      5  C   UNL     1       4.460   5.243  17.430  0.00  0.00    +0.000 A 
ATOM      6  N   UNL     1       4.914   5.645  16.257  0.00  0.00    +0.000 NA
ATOM      7  C   UNL     1       5.463   4.479  15.741  0.00  0.00    +0.000 A 
ATOM      8  N   UNL     1       5.348   3.418  16.555  0.00  0.00    +0.000 NA
ATOM      9  O   UNL     1       4.691   3.921  17.672  0.00  0.00    +0.000 OA
BRANCH   7  10
ATOM     10  C   UNL     1       6.093   4.412  14.425  0.00  0.00    +0.000 A 
ATOM     11  C   UNL     1       7.226   5.186  14.139  0.00  0.00    +0.000 A 
ATOM     12  C   UNL     1       7.825   5.134  12.877  0.00  0.00    +0.000 A 
ATOM     13  C   UNL     1       7.296   4.308  11.885  0.00  0.00    +0.000 A 
ATOM     14  C   UNL     1       6.174   3.529  12.154  0.00  0.00    +0.000 A 
ATOM     15  C   UNL     1       5.576   3.579  13.416  0.00  0.00    +0.000 A 
ENDBRANCH   7  10
ENDBRANCH   2   5
BRANCH   3  16
ATOM     16  N   UNL     1       2.411   7.935  18.817  0.00  0.00    +0.000 NA
ATOM     17  C   UNL     1       1.641   8.849  18.323  0.00  0.00    +0.000 C 
BRANCH  17  18
ATOM     18  C   UNL     1       0.789   9.669  19.218  0.00  0.00    +0.000 A 
ATOM     19  C   UNL     1       0.166  10.837  18.721  0.00  0.00    +0.000 A 
ATOM     20  C   UNL     1      -0.617  11.641  19.556  0.00  0.00    +0.000 A 
ATOM     21  C   UNL     1      -0.746  11.258  20.872  0.00  0.00    +0.000 A 
ATOM     22  C   UNL     1      -0.145  10.119  21.358  0.00  0.00    +0.000 A 
ATOM     23  C   UNL     1       0.625   9.295  20.557  0.00  0.00    +0.000 A 
ATOM     24  O   UNL     1      -0.394   9.933  22.684  0.00  0.00    +0.000 OA
ATOM     25  C   UNL     1      -1.167  11.117  22.986  0.00  0.00    +0.000 C 
ATOM     26  O   UNL     1      -1.445  11.927  21.826  0.00  0.00    +0.000 OA
ENDBRANCH  17  18
ENDBRANCH   3  16
TORSDOF 4
ENDMDL
MODEL 9
REMARK VINA RESULT:      -7.7      1.312      1.769
REMARK  Name = 
REMARK  4 active torsions:
REMARK  status: ('A' for Active; 'I' for Inactive)
REMARK    1  A    between atoms: C_2  and  C_15
REMARK    2  A    between atoms: N_3  and  N_4
REMARK    3  A    between atoms: C_5  and  C_6
REMARK    4  A    between atoms: C_17  and  C_18
REMARK                            x       y       z     vdW  Elec       q    Type
REMARK                         _______ _______ _______ _____ _____    ______ ____
ROOT
ATOM      1  O   UNL     1       6.769   8.321  16.754  0.00  0.00    +0.000 OA
ATOM      2  C   UNL     1       7.176   7.647  17.702  0.00  0.00    +0.000 C 
ATOM      3  N   UNL     1       8.207   8.071  18.547  0.00  0.00    +0.000 N 
ATOM      4  H   UNL     1       8.524   7.473  19.304  0.00  0.00    +0.000 HD
ENDROOT
BRANCH   2   5
ATOM      5  C   UNL     1       6.633   6.344  18.025  0.00  0.00    +0.000 A 
ATOM      6  N   UNL     1       5.367   5.980  18.118  0.00  0.00    +0.000 NA
ATOM      7  C   UNL     1       5.474   4.644  18.479  0.00  0.00    +0.000 A 
ATOM      8  N   UNL     1       6.739   4.213  18.602  0.00  0.00    +0.000 NA
ATOM      9  O   UNL     1       7.505   5.332  18.298  0.00  0.00    +0.000 OA
BRANCH   7  10
ATOM     10  C   UNL     1       4.312   3.791  18.719  0.00  0.00    +0.000 A 
ATOM     11  C   UNL     1       3.927   2.832  17.772  0.00  0.00    +0.000 A 
ATOM     12  C   UNL     1       2.809   2.022  17.991  0.00  0.00    +0.000 A 
ATOM     13  C   UNL     1       2.062   2.162  19.161  0.00  0.00    +0.000 A 
ATOM     14  C   UNL     1       2.434   3.106  20.114  0.00  0.00    +0.000 A 
ATOM     15  C   UNL     1       3.553   3.915  19.896  0.00  0.00    +0.000 A 
ENDBRANCH   7  10
ENDBRANCH   2   5
BRANCH   3  16
ATOM     16  N   UNL     1       8.825   9.259  18.278  0.00  0.00    +0.000 NA
ATOM     17  C   UNL     1       9.275   9.954  19.272  0.00  0.00    +0.000 C 
BRANCH  17  18
ATOM     18  C   UNL     1       9.983  11.234  19.026  0.00  0.00    +0.000 A 
ATOM     19  C   UNL     1      10.605  11.466  17.778  0.00  0.00    +0.000 A 
ATOM     20  C   UNL     1      11.304  12.653  17.536  0.00  0.00    +0.000 A 
ATOM     21  C   UNL     1      11.368  13.574  18.557  0.00  0.00    +0.000 A 
ATOM     22  C   UNL     1      10.759  13.354  19.772  0.00  0.00    +0.000 A 
ATOM     23  C   UNL     1      10.051  12.197  20.041  0.00  0.00    +0.000 A 
ATOM     24  O   UNL     1      10.956  14.386  20.638  0.00  0.00    +0.000 OA
ATOM     25  C   UNL     1      11.807  15.248  19.851  0.00  0.00    +0.000 C 
ATOM     26  O   UNL     1      12.019  14.766  18.508  0.00  0.00    +0.000 OA
ENDBRANCH  17  18
ENDBRANCH   3  16
TORSDOF 4
ENDMDL
