MODEL 1
REMARK VINA RESULT:      -6.6      0.000      0.000
REMARK  Name = 
REMARK  18 active torsions:
REMARK  status: ('A' for Active; 'I' for Inactive)
REMARK    1  A    between atoms: N_1  and  C_2
REMARK    2  A    between atoms: C_2  and  C_3
REMARK    3  A    between atoms: C_3  and  C_4
REMARK    4  A    between atoms: C_4  and  C_5
REMARK    5  A    between atoms: C_5  and  C_6
REMARK    6  A    between atoms: C_6  and  N_7
REMARK    7  A    between atoms: N_10  and  C_11
REMARK    8  A    between atoms: C_11  and  C_12
REMARK    9  A    between atoms: C_12  and  C_13
REMARK   10  A    between atoms: C_13  and  C_14
REMARK   11  A    between atoms: C_14  and  C_15
REMARK   12  A    between atoms: C_15  and  N_16
REMARK   13  A    between atoms: C_17  and  C_18
REMARK   14  A    between atoms: C_18  and  C_19
REMARK   15  A    between atoms: C_25  and  O_26
REMARK   16  A    between atoms: C_27  and  O_28
REMARK   17  A    between atoms: C_29  and  C_30
REMARK   18  A    between atoms: C_30  and  C_31
REMARK                            x       y       z     vdW  Elec       q    Type
REMARK                         _______ _______ _______ _____ _____    ______ ____
ROOT
ATOM      1  N   UNL     1       1.870   7.398  20.028  0.00  0.00    +0.000 N 
ATOM      2  C   UNL     1       0.956   8.264  20.687  0.00  0.00    +0.000 C 
ATOM      3  O   UNL     1       0.598   8.007  21.843  0.00  0.00    +0.000 OA
ATOM      4  N   UNL     1       0.473   9.431  20.113  0.00  0.00    +0.000 N 
ATOM      5  C   UNL     1       0.570   9.894  18.720  0.00  0.00    +0.000 C 
ATOM      6  C   UNL     1       2.013   9.762  18.250  0.00  0.00    +0.000 C 
ATOM      7  C   UNL     1       2.261   8.411  17.608  0.00  0.00    +0.000 C 
ATOM      8  C   UNL     1       1.892   7.196  18.532  0.00  0.00    +0.000 C 
ENDROOT
BRANCH   7   9
ATOM      9  O   UNL     1       3.580   8.425  17.066  0.00  0.00    +0.000 OA
ATOM     10  H   UNL     1       3.628   7.751  16.360  0.00  0.00    +0.000 HD
ENDBRANCH   7   9
BRANCH   6  11
ATOM     11  O   UNL     1       2.373  10.814  17.336  0.00  0.00    +0.000 OA
ATOM     12  H   UNL     1       1.570  11.294  17.069  0.00  0.00    +0.000 HD
ENDBRANCH   6  11
BRANCH   8  13
ATOM     13  C   UNL     1       2.439   5.852  17.943  0.00  0.00    +0.000 C 
BRANCH  13  14
ATOM     14  C   UNL     1       3.900   5.479  17.954  0.00  0.00    +0.000 A 
ATOM     15  C   UNL     1       4.764   5.720  19.032  0.00  0.00    +0.000 A 
ATOM     16  C   UNL     1       6.102   5.354  19.000  0.00  0.00    +0.000 A 
ATOM     17  C   UNL     1       6.606   4.702  17.884  0.00  0.00    +0.000 A 
ATOM     18  C   UNL     1       5.770   4.427  16.804  0.00  0.00    +0.000 A 
ATOM     19  C   UNL     1       4.429   4.816  16.831  0.00  0.00    +0.000 A 
ENDBRANCH  13  14
ENDBRANCH   8  13
BRANCH   5  20
ATOM     20  C   UNL     1      -0.493   9.316  17.737  0.00  0.00    +0.000 C 
BRANCH  20  21
ATOM     21  C   UNL     1      -1.736  10.138  17.516  0.00  0.00    +0.000 A 
ATOM     22  C   UNL     1      -2.456  10.034  16.319  0.00  0.00    +0.000 A 
ATOM     23  C   UNL     1      -3.633  10.762  16.139  0.00  0.00    +0.000 A 
ATOM     24  C   UNL     1      -4.100  11.598  17.152  0.00  0.00    +0.000 A 
ATOM     25  C   UNL     1      -3.400  11.697  18.352  0.00  0.00    +0.000 A 
ATOM     26  C   UNL     1      -2.226  10.967  18.536  0.00  0.00    +0.000 A 
ENDBRANCH  20  21
ENDBRANCH   5  20
BRANCH   4  27
ATOM     27  C   UNL     1      -0.312  10.338  20.989  0.00  0.00    +0.000 C 
BRANCH  27  28
ATOM     28  C   UNL     1       0.275  11.727  21.302  0.00  0.00    +0.000 C 
BRANCH  28  29
ATOM     29  C   UNL     1      -0.754  12.851  21.389  0.00  0.00    +0.000 C 
BRANCH  29  30
ATOM     30  C   UNL     1      -1.115  13.131  22.857  0.00  0.00    +0.000 C 
BRANCH  30  31
ATOM     31  C   UNL     1      -2.621  13.159  23.112  0.00  0.00    +0.000 C 
BRANCH  31  32
ATOM     32  N   UNL     1      -3.074  11.840  23.511  0.00  0.00    +0.000 NA
ATOM     33  H   UNL     1      -4.090  11.857  23.449  0.00  0.00    +0.000 HD
ATOM     34  H   UNL     1      -2.832  11.657  24.482  0.00  0.00    +0.000 HD
ENDBRANCH  31  32
ENDBRANCH  30  31
ENDBRANCH  29  30
ENDBRANCH  28  29
ENDBRANCH  27  28
ENDBRANCH   4  27
BRANCH   1  35
ATOM     35  C   UNL     1       2.223   6.225  20.893  0.00  0.00    +0.000 C 
BRANCH  35  36
ATOM     36  C   UNL     1       1.449   4.914  20.747  0.00  0.00    +0.000 C 
BRANCH  36  37
ATOM     37  C   UNL     1       2.219   3.653  21.111  0.00  0.00    +0.000 C 
BRANCH  37  38
ATOM     38  C   UNL     1       2.376   2.711  19.916  0.00  0.00    +0.000 C 
BRANCH  38  39
ATOM     39  C   UNL     1       3.820   2.267  19.673  0.00  0.00    +0.000 C 
BRANCH  39  40
ATOM     40  N   UNL     1       3.974   1.432  18.493  0.00  0.00    +0.000 NA
ATOM     41  H   UNL     1       4.846   1.631  18.011  0.00  0.00    +0.000 HD
ATOM     42  H   UNL     1       3.202   1.560  17.833  0.00  0.00    +0.000 HD
ENDBRANCH  39  40
ENDBRANCH  38  39
ENDBRANCH  37  38
ENDBRANCH  36  37
ENDBRANCH  35  36
ENDBRANCH   1  35
TORSDOF 18
ENDMDL
MODEL 2
REMARK VINA RESULT:      -6.6      0.849      1.162
REMARK  Name = 
REMARK  18 active torsions:
REMARK  status: ('A' for Active; 'I' for Inactive)
REMARK    1  A    between atoms: N_1  and  C_2
REMARK    2  A    between atoms: C_2  and  C_3
REMARK    3  A    between atoms: C_3  and  C_4
REMARK    4  A    between atoms: C_4  and  C_5
REMARK    5  A    between atoms: C_5  and  C_6
REMARK    6  A    between atoms: C_6  and  N_7
REMARK    7  A    between atoms: N_10  and  C_11
REMARK    8  A    between atoms: C_11  and  C_12
REMARK    9  A    between atoms: C_12  and  C_13
REMARK   10  A    between atoms: C_13  and  C_14
REMARK   11  A    between atoms: C_14  and  C_15
REMARK   12  A    between atoms: C_15  and  N_16
REMARK   13  A    between atoms: C_17  and  C_18
REMARK   14  A    between atoms: C_18  and  C_19
REMARK   15  A    between atoms: C_25  and  O_26
REMARK   16  A    between atoms: C_27  and  O_28
REMARK   17  A    between atoms: C_29  and  C_30
REMARK   18  A    between atoms: C_30  and  C_31
REMARK                            x       y       z     vdW  Elec       q    Type
REMARK                         _______ _______ _______ _____ _____    ______ ____
ROOT
ATOM      1  N   UNL     1       1.847   7.485  20.028  0.00  0.00    +0.000 N 
ATOM      2  C   UNL     1       0.906   8.332  20.673  0.00  0.00    +0.000 C 
ATOM      3  O   UNL     1       0.531   8.065  21.821  0.00  0.00    +0.000 OA
ATOM      4  N   UNL     1       0.412   9.492  20.094  0.00  0.00    +0.000 N 
ATOM      5  C   UNL     1       0.528   9.962  18.704  0.00  0.00    +0.000 C 
ATOM      6  C   UNL     1       1.981   9.857  18.261  0.00  0.00    +0.000 C 
ATOM      7  C   UNL     1       2.266   8.513  17.620  0.00  0.00    +0.000 C 
ATOM      8  C   UNL     1       1.900   7.288  18.532  0.00  0.00    +0.000 C 
ENDROOT
BRANCH   7   9
ATOM      9  O   UNL     1       3.594   8.552  17.102  0.00  0.00    +0.000 OA
ATOM     10  H   UNL     1       3.811   9.481  16.886  0.00  0.00    +0.000 HD
ENDBRANCH   7   9
BRANCH   6  11
ATOM     11  O   UNL     1       2.339  10.918  17.357  0.00  0.00    +0.000 OA
ATOM     12  H   UNL     1       1.679  10.969  16.646  0.00  0.00    +0.000 HD
ENDBRANCH   6  11
BRANCH   8  13
ATOM     13  C   UNL     1       2.482   5.957  17.949  0.00  0.00    +0.000 C 
BRANCH  13  14
ATOM     14  C   UNL     1       3.959   5.664  17.871  0.00  0.00    +0.000 A 
ATOM     15  C   UNL     1       4.672   5.528  16.671  0.00  0.00    +0.000 A 
ATOM     16  C   UNL     1       6.033   5.264  16.648  0.00  0.00    +0.000 A 
ATOM     17  C   UNL     1       6.730   5.158  17.843  0.00  0.00    +0.000 A 
ATOM     18  C   UNL     1       6.058   5.310  19.054  0.00  0.00    +0.000 A 
ATOM     19  C   UNL     1       4.683   5.555  19.074  0.00  0.00    +0.000 A 
ENDBRANCH  13  14
ENDBRANCH   8  13
BRANCH   5  20
ATOM     20  C   UNL     1      -0.507   9.368  17.700  0.00  0.00    +0.000 C 
BRANCH  20  21
ATOM     21  C   UNL     1      -1.765  10.164  17.468  0.00  0.00    +0.000 A 
ATOM     22  C   UNL     1      -2.484  10.026  16.273  0.00  0.00    +0.000 A 
ATOM     23  C   UNL     1      -3.675  10.729  16.084  0.00  0.00    +0.000 A 
ATOM     24  C   UNL     1      -4.157  11.572  17.084  0.00  0.00    +0.000 A 
ATOM     25  C   UNL     1      -3.457  11.704  18.281  0.00  0.00    +0.000 A 
ATOM     26  C   UNL     1      -2.269  10.999  18.475  0.00  0.00    +0.000 A 
ENDBRANCH  20  21
ENDBRANCH   5  20
BRANCH   4  27
ATOM     27  C   UNL     1      -0.404  10.382  20.957  0.00  0.00    +0.000 C 
BRANCH  27  28
ATOM     28  C   UNL     1       0.124  11.801  21.239  0.00  0.00    +0.000 C 
BRANCH  28  29
ATOM     29  C   UNL     1      -0.646  12.570  22.309  0.00  0.00    +0.000 C 
BRANCH  29  30
ATOM     30  C   UNL     1      -2.157  12.501  22.032  0.00  0.00    +0.000 C 
BRANCH  30  31
ATOM     31  C   UNL     1      -2.987  12.231  23.286  0.00  0.00    +0.000 C 
BRANCH  31  32
ATOM     32  N   UNL     1      -4.398  12.346  22.973  0.00  0.00    +0.000 NA
ATOM     33  H   UNL     1      -4.451  12.715  22.025  0.00  0.00    +0.000 HD
ATOM     34  H   UNL     1      -4.847  13.021  23.586  0.00  0.00    +0.000 HD
ENDBRANCH  31  32
ENDBRANCH  30  31
ENDBRANCH  29  30
ENDBRANCH  28  29
ENDBRANCH  27  28
ENDBRANCH   4  27
BRANCH   1  35
ATOM     35  C   UNL     1       2.205   6.315  20.896  0.00  0.00    +0.000 C 
BRANCH  35  36
ATOM     36  C   UNL     1       1.430   5.003  20.759  0.00  0.00    +0.000 C 
BRANCH  36  37
ATOM     37  C   UNL     1       2.108   3.776  21.349  0.00  0.00    +0.000 C 
BRANCH  37  38
ATOM     38  C   UNL     1       1.651   2.484  20.668  0.00  0.00    +0.000 C 
BRANCH  38  39
ATOM     39  C   UNL     1       1.645   2.567  19.141  0.00  0.00    +0.000 C 
BRANCH  39  40
ATOM     40  N   UNL     1       0.463   1.973  18.537  0.00  0.00    +0.000 NA
ATOM     41  H   UNL     1       0.372   2.239  17.561  0.00  0.00    +0.000 HD
ATOM     42  H   UNL     1      -0.393   2.246  19.028  0.00  0.00    +0.000 HD
ENDBRANCH  39  40
ENDBRANCH  38  39
ENDBRANCH  37  38
ENDBRANCH  36  37
ENDBRANCH  35  36
ENDBRANCH   1  35
TORSDOF 18
ENDMDL
MODEL 3
REMARK VINA RESULT:      -6.5      1.304      1.708
REMARK  Name = 
REMARK  18 active torsions:
REMARK  status: ('A' for Active; 'I' for Inactive)
REMARK    1  A    between atoms: N_1  and  C_2
REMARK    2  A    between atoms: C_2  and  C_3
REMARK    3  A    between atoms: C_3  and  C_4
REMARK    4  A    between atoms: C_4  and  C_5
REMARK    5  A    between atoms: C_5  and  C_6
REMARK    6  A    between atoms: C_6  and  N_7
REMARK    7  A    between atoms: N_10  and  C_11
REMARK    8  A    between atoms: C_11  and  C_12
REMARK    9  A    between atoms: C_12  and  C_13
REMARK   10  A    between atoms: C_13  and  C_14
REMARK   11  A    between atoms: C_14  and  C_15
REMARK   12  A    between atoms: C_15  and  N_16
REMARK   13  A    between atoms: C_17  and  C_18
REMARK   14  A    between atoms: C_18  and  C_19
REMARK   15  A    between atoms: C_25  and  O_26
REMARK   16  A    between atoms: C_27  and  O_28
REMARK   17  A    between atoms: C_29  and  C_30
REMARK   18  A    between atoms: C_30  and  C_31
REMARK                            x       y       z     vdW  Elec       q    Type
REMARK                         _______ _______ _______ _____ _____    ______ ____
ROOT
ATOM      1  N   UNL     1       1.893   7.466  20.002  0.00  0.00    +0.000 N 
ATOM      2  C   UNL     1       0.947   8.304  20.650  0.00  0.00    +0.000 C 
ATOM      3  O   UNL     1       0.584   8.038  21.802  0.00  0.00    +0.000 OA
ATOM      4  N   UNL     1       0.436   9.457  20.070  0.00  0.00    +0.000 N 
ATOM      5  C   UNL     1       0.535   9.921  18.677  0.00  0.00    +0.000 C 
ATOM      6  C   UNL     1       1.985   9.831  18.223  0.00  0.00    +0.000 C 
ATOM      7  C   UNL     1       2.281   8.488  17.586  0.00  0.00    +0.000 C 
ATOM      8  C   UNL     1       1.937   7.263  18.506  0.00  0.00    +0.000 C 
ENDROOT
BRANCH   7   9
ATOM      9  O   UNL     1       3.604   8.541  17.057  0.00  0.00    +0.000 OA
ATOM     10  H   UNL     1       3.792   9.463  16.793  0.00  0.00    +0.000 HD
ENDBRANCH   7   9
BRANCH   6  11
ATOM     11  O   UNL     1       2.324  10.893  17.312  0.00  0.00    +0.000 OA
ATOM     12  H   UNL     1       2.568  11.685  17.821  0.00  0.00    +0.000 HD
ENDBRANCH   6  11
BRANCH   8  13
ATOM     13  C   UNL     1       2.529   5.936  17.924  0.00  0.00    +0.000 C 
BRANCH  13  14
ATOM     14  C   UNL     1       4.005   5.626  17.910  0.00  0.00    +0.000 A 
ATOM     15  C   UNL     1       4.808   5.572  19.059  0.00  0.00    +0.000 A 
ATOM     16  C   UNL     1       6.162   5.277  18.999  0.00  0.00    +0.000 A 
ATOM     17  C   UNL     1       6.747   4.997  17.772  0.00  0.00    +0.000 A 
ATOM     18  C   UNL     1       5.974   5.021  16.613  0.00  0.00    +0.000 A 
ATOM     19  C   UNL     1       4.615   5.338  16.675  0.00  0.00    +0.000 A 
ENDBRANCH  13  14
ENDBRANCH   8  13
BRANCH   5  20
ATOM     20  C   UNL     1      -0.501   9.311  17.684  0.00  0.00    +0.000 C 
BRANCH  20  21
ATOM     21  C   UNL     1      -1.749  10.114  17.422  0.00  0.00    +0.000 A 
ATOM     22  C   UNL     1      -2.398  10.038  16.183  0.00  0.00    +0.000 A 
ATOM     23  C   UNL     1      -3.580  10.746  15.963  0.00  0.00    +0.000 A 
ATOM     24  C   UNL     1      -4.124  11.533  16.977  0.00  0.00    +0.000 A 
ATOM     25  C   UNL     1      -3.494  11.603  18.217  0.00  0.00    +0.000 A 
ATOM     26  C   UNL     1      -2.315  10.892  18.442  0.00  0.00    +0.000 A 
ENDBRANCH  20  21
ENDBRANCH   5  20
BRANCH   4  27
ATOM     27  C   UNL     1      -0.385  10.341  20.936  0.00  0.00    +0.000 C 
BRANCH  27  28
ATOM     28  C   UNL     1       0.257  11.640  21.458  0.00  0.00    +0.000 C 
BRANCH  28  29
ATOM     29  C   UNL     1      -0.048  12.883  20.627  0.00  0.00    +0.000 C 
BRANCH  29  30
ATOM     30  C   UNL     1       1.250  13.641  20.306  0.00  0.00    +0.000 C 
BRANCH  30  31
ATOM     31  C   UNL     1       1.413  13.952  18.819  0.00  0.00    +0.000 C 
BRANCH  31  32
ATOM     32  N   UNL     1       0.399  13.248  18.058  0.00  0.00    +0.000 NA
ATOM     33  H   UNL     1      -0.165  13.965  17.603  0.00  0.00    +0.000 HD
ATOM     34  H   UNL     1      -0.217  12.727  18.678  0.00  0.00    +0.000 HD
ENDBRANCH  31  32
ENDBRANCH  30  31
ENDBRANCH  29  30
ENDBRANCH  28  29
ENDBRANCH  27  28
ENDBRANCH   4  27
BRANCH   1  35
ATOM     35  C   UNL     1       2.271   6.304  20.872  0.00  0.00    +0.000 C 
BRANCH  35  36
ATOM     36  C   UNL     1       1.429   5.027  20.842  0.00  0.00    +0.000 C 
BRANCH  36  37
ATOM     37  C   UNL     1       2.213   3.723  20.854  0.00  0.00    +0.000 C 
BRANCH  37  38
ATOM     38  C   UNL     1       1.380   2.548  20.337  0.00  0.00    +0.000 C 
BRANCH  38  39
ATOM     39  C   UNL     1       1.290   2.487  18.811  0.00  0.00    +0.000 C 
BRANCH  39  40
ATOM     40  N   UNL     1       2.369   1.728  18.202  0.00  0.00    +0.000 NA
ATOM     41  H   UNL     1       3.150   2.328  17.954  0.00  0.00    +0.000 HD
ATOM     42  H   UNL     1       2.060   1.235  17.359  0.00  0.00    +0.000 HD
ENDBRANCH  39  40
ENDBRANCH  38  39
ENDBRANCH  37  38
ENDBRANCH  36  37
ENDBRANCH  35  36
ENDBRANCH   1  35
TORSDOF 18
ENDMDL
MODEL 4
REMARK VINA RESULT:      -6.5      2.716      9.023
REMARK  Name = 
REMARK  18 active torsions:
REMARK  status: ('A' for Active; 'I' for Inactive)
REMARK    1  A    between atoms: N_1  and  C_2
REMARK    2  A    between atoms: C_2  and  C_3
REMARK    3  A    between atoms: C_3  and  C_4
REMARK    4  A    between atoms: C_4  and  C_5
REMARK    5  A    between atoms: C_5  and  C_6
REMARK    6  A    between atoms: C_6  and  N_7
REMARK    7  A    between atoms: N_10  and  C_11
REMARK    8  A    between atoms: C_11  and  C_12
REMARK    9  A    between atoms: C_12  and  C_13
REMARK   10  A    between atoms: C_13  and  C_14
REMARK   11  A    between atoms: C_14  and  C_15
REMARK   12  A    between atoms: C_15  and  N_16
REMARK   13  A    between atoms: C_17  and  C_18
REMARK   14  A    between atoms: C_18  and  C_19
REMARK   15  A    between atoms: C_25  and  O_26
REMARK   16  A    between atoms: C_27  and  O_28
REMARK   17  A    between atoms: C_29  and  C_30
REMARK   18  A    between atoms: C_30  and  C_31
REMARK                            x       y       z     vdW  Elec       q    Type
REMARK                         _______ _______ _______ _____ _____    ______ ____
ROOT
ATOM      1  N   UNL     1      -2.272  12.110  19.020  0.00  0.00    +0.000 N 
ATOM      2  C   UNL     1      -1.494  10.963  18.711  0.00  0.00    +0.000 C 
ATOM      3  O   UNL     1      -2.057   9.884  18.488  0.00  0.00    +0.000 OA
ATOM      4  N   UNL     1      -0.111  10.995  18.595  0.00  0.00    +0.000 N 
ATOM      5  C   UNL     1       0.830  12.061  18.974  0.00  0.00    +0.000 C 
ATOM      6  C   UNL     1       0.331  13.389  18.421  0.00  0.00    +0.000 C 
ATOM      7  C   UNL     1      -0.564  14.099  19.417  0.00  0.00    +0.000 C 
ATOM      8  C   UNL     1      -1.782  13.234  19.900  0.00  0.00    +0.000 C 
ENDROOT
BRANCH   7   9
ATOM      9  O   UNL     1      -0.863  15.389  18.888  0.00  0.00    +0.000 OA
ATOM     10  H   UNL     1      -0.027  15.887  18.801  0.00  0.00    +0.000 HD
ENDBRANCH   7   9
BRANCH   6  11
ATOM     11  O   UNL     1       1.419  14.249  18.037  0.00  0.00    +0.000 OA
ATOM     12  H   UNL     1       2.250  13.893  18.398  0.00  0.00    +0.000 HD
ENDBRANCH   6  11
BRANCH   8  13
ATOM     13  C   UNL     1      -2.819  14.108  20.684  0.00  0.00    +0.000 C 
BRANCH  13  14
ATOM     14  C   UNL     1      -3.178  13.866  22.129  0.00  0.00    +0.000 A 
ATOM     15  C   UNL     1      -4.124  12.924  22.557  0.00  0.00    +0.000 A 
ATOM     16  C   UNL     1      -4.419  12.731  23.899  0.00  0.00    +0.000 A 
ATOM     17  C   UNL     1      -3.742  13.468  24.860  0.00  0.00    +0.000 A 
ATOM     18  C   UNL     1      -2.780  14.397  24.471  0.00  0.00    +0.000 A 
ATOM     19  C   UNL     1      -2.500  14.603  23.118  0.00  0.00    +0.000 A 
ENDBRANCH  13  14
ENDBRANCH   8  13
BRANCH   5  20
ATOM     20  C   UNL     1       1.248  12.094  20.476  0.00  0.00    +0.000 C 
BRANCH  20  21
ATOM     21  C   UNL     1       0.582  11.099  21.391  0.00  0.00    +0.000 A 
ATOM     22  C   UNL     1      -0.456  11.499  22.243  0.00  0.00    +0.000 A 
ATOM     23  C   UNL     1      -1.101  10.564  23.053  0.00  0.00    +0.000 A 
ATOM     24  C   UNL     1      -0.717   9.224  23.018  0.00  0.00    +0.000 A 
ATOM     25  C   UNL     1       0.303   8.815  22.164  0.00  0.00    +0.000 A 
ATOM     26  C   UNL     1       0.947   9.746  21.349  0.00  0.00    +0.000 A 
ENDBRANCH  20  21
ENDBRANCH   5  20
BRANCH   4  27
ATOM     27  C   UNL     1       0.551   9.774  18.071  0.00  0.00    +0.000 C 
BRANCH  27  28
ATOM     28  C   UNL     1       2.082   9.797  17.904  0.00  0.00    +0.000 C 
BRANCH  28  29
ATOM     29  C   UNL     1       2.721   8.429  17.678  0.00  0.00    +0.000 C 
BRANCH  29  30
ATOM     30  C   UNL     1       2.120   7.394  18.644  0.00  0.00    +0.000 C 
BRANCH  30  31
ATOM     31  C   UNL     1       2.954   6.119  18.754  0.00  0.00    +0.000 C 
BRANCH  31  32
ATOM     32  N   UNL     1       3.280   5.866  20.144  0.00  0.00    +0.000 NA
ATOM     33  H   UNL     1       2.451   6.115  20.681  0.00  0.00    +0.000 HD
ATOM     34  H   UNL     1       4.035   6.474  20.452  0.00  0.00    +0.000 HD
ENDBRANCH  31  32
ENDBRANCH  30  31
ENDBRANCH  29  30
ENDBRANCH  28  29
ENDBRANCH  27  28
ENDBRANCH   4  27
BRANCH   1  35
ATOM     35  C   UNL     1      -3.733  11.775  19.068  0.00  0.00    +0.000 C 
BRANCH  35  36
ATOM     36  C   UNL     1      -4.585  11.907  17.805  0.00  0.00    +0.000 C 
BRANCH  36  37
ATOM     37  C   UNL     1      -6.084  11.741  18.003  0.00  0.00    +0.000 C 
BRANCH  37  38
ATOM     38  C   UNL     1      -6.498  11.952  19.460  0.00  0.00    +0.000 C 
BRANCH  38  39
ATOM     39  C   UNL     1      -7.303  10.788  20.042  0.00  0.00    +0.000 C 
BRANCH  39  40
ATOM     40  N   UNL     1      -7.201   9.570  19.255  0.00  0.00    +0.000 NA
ATOM     41  H   UNL     1      -7.743   9.636  18.399  0.00  0.00    +0.000 HD
ATOM     42  H   UNL     1      -7.521   8.751  19.779  0.00  0.00    +0.000 HD
ENDBRANCH  39  40
ENDBRANCH  38  39
ENDBRANCH  37  38
ENDBRANCH  36  37
ENDBRANCH  35  36
ENDBRANCH   1  35
TORSDOF 18
ENDMDL
MODEL 5
REMARK VINA RESULT:      -6.3      2.769      9.069
REMARK  Name = 
REMARK  18 active torsions:
REMARK  status: ('A' for Active; 'I' for Inactive)
REMARK    1  A    between atoms: N_1  and  C_2
REMARK    2  A    between atoms: C_2  and  C_3
REMARK    3  A    between atoms: C_3  and  C_4
REMARK    4  A    between atoms: C_4  and  C_5
REMARK    5  A    between atoms: C_5  and  C_6
REMARK    6  A    between atoms: C_6  and  N_7
REMARK    7  A    between atoms: N_10  and  C_11
REMARK    8  A    between atoms: C_11  and  C_12
REMARK    9  A    between atoms: C_12  and  C_13
REMARK   10  A    between atoms: C_13  and  C_14
REMARK   11  A    between atoms: C_14  and  C_15
REMARK   12  A    between atoms: C_15  and  N_16
REMARK   13  A    between atoms: C_17  and  C_18
REMARK   14  A    between atoms: C_18  and  C_19
REMARK   15  A    between atoms: C_25  and  O_26
REMARK   16  A    between atoms: C_27  and  O_28
REMARK   17  A    between atoms: C_29  and  C_30
REMARK   18  A    between atoms: C_30  and  C_31
REMARK                            x       y       z     vdW  Elec       q    Type
REMARK                         _______ _______ _______ _____ _____    ______ ____
ROOT
ATOM      1  N   UNL     1      -2.249  12.134  18.985  0.00  0.00    +0.000 N 
ATOM      2  C   UNL     1      -1.561  10.930  18.677  0.00  0.00    +0.000 C 
ATOM      3  O   UNL     1      -2.204   9.891  18.482  0.00  0.00    +0.000 OA
ATOM      4  N   UNL     1      -0.183  10.863  18.532  0.00  0.00    +0.000 N 
ATOM      5  C   UNL     1       0.840  11.864  18.875  0.00  0.00    +0.000 C 
ATOM      6  C   UNL     1       0.423  13.216  18.312  0.00  0.00    +0.000 C 
ATOM      7  C   UNL     1      -0.396  14.002  19.317  0.00  0.00    +0.000 C 
ATOM      8  C   UNL     1      -1.662  13.232  19.838  0.00  0.00    +0.000 C 
ENDROOT
BRANCH   7   9
ATOM      9  O   UNL     1      -0.616  15.303  18.774  0.00  0.00    +0.000 OA
ATOM     10  H   UNL     1      -1.248  15.223  18.033  0.00  0.00    +0.000 HD
ENDBRANCH   7   9
BRANCH   6  11
ATOM     11  O   UNL     1       1.561  13.991  17.893  0.00  0.00    +0.000 OA
ATOM     12  H   UNL     1       1.424  14.292  16.979  0.00  0.00    +0.000 HD
ENDBRANCH   6  11
BRANCH   8  13
ATOM     13  C   UNL     1      -2.617  14.188  20.631  0.00  0.00    +0.000 C 
BRANCH  13  14
ATOM     14  C   UNL     1      -2.960  13.992  22.086  0.00  0.00    +0.000 A 
ATOM     15  C   UNL     1      -2.321  14.658  23.141  0.00  0.00    +0.000 A 
ATOM     16  C   UNL     1      -2.674  14.450  24.467  0.00  0.00    +0.000 A 
ATOM     17  C   UNL     1      -3.711  13.579  24.769  0.00  0.00    +0.000 A 
ATOM     18  C   UNL     1      -4.383  12.917  23.743  0.00  0.00    +0.000 A 
ATOM     19  C   UNL     1      -4.011  13.113  22.411  0.00  0.00    +0.000 A 
ENDBRANCH  13  14
ENDBRANCH   8  13
BRANCH   5  20
ATOM     20  C   UNL     1       1.292  11.888  20.367  0.00  0.00    +0.000 C 
BRANCH  20  21
ATOM     21  C   UNL     1       0.564  10.970  21.315  0.00  0.00    +0.000 A 
ATOM     22  C   UNL     1       0.926   9.620  21.418  0.00  0.00    +0.000 A 
ATOM     23  C   UNL     1       0.280   8.787  22.332  0.00  0.00    +0.000 A 
ATOM     24  C   UNL     1      -0.729   9.293  23.150  0.00  0.00    +0.000 A 
ATOM     25  C   UNL     1      -1.086  10.636  23.065  0.00  0.00    +0.000 A 
ATOM     26  C   UNL     1      -0.439  11.474  22.156  0.00  0.00    +0.000 A 
ENDBRANCH  20  21
ENDBRANCH   5  20
BRANCH   4  27
ATOM     27  C   UNL     1       0.380   9.591  18.013  0.00  0.00    +0.000 C 
BRANCH  27  28
ATOM     28  C   UNL     1       1.912   9.449  17.953  0.00  0.00    +0.000 C 
BRANCH  28  29
ATOM     29  C   UNL     1       2.443   8.071  18.341  0.00  0.00    +0.000 C 
BRANCH  29  30
ATOM     30  C   UNL     1       3.623   7.680  17.436  0.00  0.00    +0.000 C 
BRANCH  30  31
ATOM     31  C   UNL     1       4.052   6.224  17.603  0.00  0.00    +0.000 C 
BRANCH  31  32
ATOM     32  N   UNL     1       2.891   5.399  17.876  0.00  0.00    +0.000 NA
ATOM     33  H   UNL     1       3.046   4.518  17.390  0.00  0.00    +0.000 HD
ATOM     34  H   UNL     1       2.053   5.819  17.481  0.00  0.00    +0.000 HD
ENDBRANCH  31  32
ENDBRANCH  30  31
ENDBRANCH  29  30
ENDBRANCH  28  29
ENDBRANCH  27  28
ENDBRANCH   4  27
BRANCH   1  35
ATOM     35  C   UNL     1      -3.729  11.904  19.070  0.00  0.00    +0.000 C 
BRANCH  35  36
ATOM     36  C   UNL     1      -4.576  11.935  17.796  0.00  0.00    +0.000 C 
BRANCH  36  37
ATOM     37  C   UNL     1      -5.938  11.264  17.896  0.00  0.00    +0.000 C 
BRANCH  37  38
ATOM     38  C   UNL     1      -6.623  11.551  19.234  0.00  0.00    +0.000 C 
BRANCH  38  39
ATOM     39  C   UNL     1      -7.178  10.299  19.917  0.00  0.00    +0.000 C 
BRANCH  39  40
ATOM     40  N   UNL     1      -7.544  10.517  21.306  0.00  0.00    +0.000 NA
ATOM     41  H   UNL     1      -7.003   9.925  21.929  0.00  0.00    +0.000 HD
ATOM     42  H   UNL     1      -8.539  10.337  21.470  0.00  0.00    +0.000 HD
ENDBRANCH  39  40
ENDBRANCH  38  39
ENDBRANCH  37  38
ENDBRANCH  36  37
ENDBRANCH  35  36
ENDBRANCH   1  35
TORSDOF 18
ENDMDL
MODEL 6
REMARK VINA RESULT:      -6.2      1.127      1.621
REMARK  Name = 
REMARK  18 active torsions:
REMARK  status: ('A' for Active; 'I' for Inactive)
REMARK    1  A    between atoms: N_1  and  C_2
REMARK    2  A    between atoms: C_2  and  C_3
REMARK    3  A    between atoms: C_3  and  C_4
REMARK    4  A    between atoms: C_4  and  C_5
REMARK    5  A    between atoms: C_5  and  C_6
REMARK    6  A    between atoms: C_6  and  N_7
REMARK    7  A    between atoms: N_10  and  C_11
REMARK    8  A    between atoms: C_11  and  C_12
REMARK    9  A    between atoms: C_12  and  C_13
REMARK   10  A    between atoms: C_13  and  C_14
REMARK   11  A    between atoms: C_14  and  C_15
REMARK   12  A    between atoms: C_15  and  N_16
REMARK   13  A    between atoms: C_17  and  C_18
REMARK   14  A    between atoms: C_18  and  C_19
REMARK   15  A    between atoms: C_25  and  O_26
REMARK   16  A    between atoms: C_27  and  O_28
REMARK   17  A    between atoms: C_29  and  C_30
REMARK   18  A    between atoms: C_30  and  C_31
REMARK                            x       y       z     vdW  Elec       q    Type
REMARK                         _______ _______ _______ _____ _____    ______ ____
ROOT
ATOM      1  N   UNL     1       1.926   7.380  19.974  0.00  0.00    +0.000 N 
ATOM      2  C   UNL     1       0.970   8.183  20.651  0.00  0.00    +0.000 C 
ATOM      3  O   UNL     1       0.608   7.870  21.791  0.00  0.00    +0.000 OA
ATOM      4  N   UNL     1       0.447   9.350  20.114  0.00  0.00    +0.000 N 
ATOM      5  C   UNL     1       0.544   9.868  18.739  0.00  0.00    +0.000 C 
ATOM      6  C   UNL     1       1.996   9.811  18.286  0.00  0.00    +0.000 C 
ATOM      7  C   UNL     1       2.308   8.496  17.599  0.00  0.00    +0.000 C 
ATOM      8  C   UNL     1       1.976   7.234  18.472  0.00  0.00    +0.000 C 
ENDROOT
BRANCH   7   9
ATOM      9  O   UNL     1       3.632   8.583  17.076  0.00  0.00    +0.000 OA
ATOM     10  H   UNL     1       4.197   9.018  17.745  0.00  0.00    +0.000 HD
ENDBRANCH   7   9
BRANCH   6  11
ATOM     11  O   UNL     1       2.325  10.910  17.416  0.00  0.00    +0.000 OA
ATOM     12  H   UNL     1       1.520  11.421  17.228  0.00  0.00    +0.000 HD
ENDBRANCH   6  11
BRANCH   8  13
ATOM     13  C   UNL     1       2.584   5.936  17.842  0.00  0.00    +0.000 C 
BRANCH  13  14
ATOM     14  C   UNL     1       4.068   5.690  17.728  0.00  0.00    +0.000 A 
ATOM     15  C   UNL     1       4.752   5.563  16.511  0.00  0.00    +0.000 A 
ATOM     16  C   UNL     1       6.121   5.342  16.454  0.00  0.00    +0.000 A 
ATOM     17  C   UNL     1       6.852   5.272  17.631  0.00  0.00    +0.000 A 
ATOM     18  C   UNL     1       6.207   5.416  18.858  0.00  0.00    +0.000 A 
ATOM     19  C   UNL     1       4.826   5.617  18.912  0.00  0.00    +0.000 A 
ENDBRANCH  13  14
ENDBRANCH   8  13
BRANCH   5  20
ATOM     20  C   UNL     1      -0.483   9.285  17.721  0.00  0.00    +0.000 C 
BRANCH  20  21
ATOM     21  C   UNL     1      -1.727  10.096  17.466  0.00  0.00    +0.000 A 
ATOM     22  C   UNL     1      -2.384  10.023  16.231  0.00  0.00    +0.000 A 
ATOM     23  C   UNL     1      -3.562  10.740  16.018  0.00  0.00    +0.000 A 
ATOM     24  C   UNL     1      -4.093  11.532  17.034  0.00  0.00    +0.000 A 
ATOM     25  C   UNL     1      -3.456  11.599  18.270  0.00  0.00    +0.000 A 
ATOM     26  C   UNL     1      -2.280  10.880  18.488  0.00  0.00    +0.000 A 
ENDBRANCH  20  21
ENDBRANCH   5  20
BRANCH   4  27
ATOM     27  C   UNL     1      -0.385  10.192  21.010  0.00  0.00    +0.000 C 
BRANCH  27  28
ATOM     28  C   UNL     1       0.308  11.330  21.782  0.00  0.00    +0.000 C 
BRANCH  28  29
ATOM     29  C   UNL     1      -0.239  12.726  21.493  0.00  0.00    +0.000 C 
BRANCH  29  30
ATOM     30  C   UNL     1       0.313  13.247  20.156  0.00  0.00    +0.000 C 
BRANCH  30  31
ATOM     31  C   UNL     1      -0.669  14.152  19.412  0.00  0.00    +0.000 C 
BRANCH  31  32
ATOM     32  N   UNL     1      -0.589  13.894  17.987  0.00  0.00    +0.000 NA
ATOM     33  H   UNL     1      -1.300  13.194  17.784  0.00  0.00    +0.000 HD
ATOM     34  H   UNL     1       0.312  13.489  17.747  0.00  0.00    +0.000 HD
ENDBRANCH  31  32
ENDBRANCH  30  31
ENDBRANCH  29  30
ENDBRANCH  28  29
ENDBRANCH  27  28
ENDBRANCH   4  27
BRANCH   1  35
ATOM     35  C   UNL     1       2.316   6.191  20.801  0.00  0.00    +0.000 C 
BRANCH  35  36
ATOM     36  C   UNL     1       1.464   4.920  20.752  0.00  0.00    +0.000 C 
BRANCH  36  37
ATOM     37  C   UNL     1       2.222   3.614  20.937  0.00  0.00    +0.000 C 
BRANCH  37  38
ATOM     38  C   UNL     1       2.325   2.820  19.633  0.00  0.00    +0.000 C 
BRANCH  38  39
ATOM     39  C   UNL     1       3.693   2.170  19.420  0.00  0.00    +0.000 C 
BRANCH  39  40
ATOM     40  N   UNL     1       4.076   2.084  18.021  0.00  0.00    +0.000 NA
ATOM     41  H   UNL     1       3.390   2.531  17.420  0.00  0.00    +0.000 HD
ATOM     42  H   UNL     1       4.189   1.113  17.716  0.00  0.00    +0.000 HD
ENDBRANCH  39  40
ENDBRANCH  38  39
ENDBRANCH  37  38
ENDBRANCH  36  37
ENDBRANCH  35  36
ENDBRANCH   1  35
TORSDOF 18
ENDMDL
MODEL 7
REMARK VINA RESULT:      -6.2      0.938      1.513
REMARK  Name = 
REMARK  18 active torsions:
REMARK  status: ('A' for Active; 'I' for Inactive)
REMARK    1  A    between atoms: N_1  and  C_2
REMARK    2  A    between atoms: C_2  and  C_3
REMARK    3  A    between atoms: C_3  and  C_4
REMARK    4  A    between atoms: C_4  and  C_5
REMARK    5  A    between atoms: C_5  and  C_6
REMARK    6  A    between atoms: C_6  and  N_7
REMARK    7  A    between atoms: N_10  and  C_11
REMARK    8  A    between atoms: C_11  and  C_12
REMARK    9  A    between atoms: C_12  and  C_13
REMARK   10  A    between atoms: C_13  and  C_14
REMARK   11  A    between atoms: C_14  and  C_15
REMARK   12  A    between atoms: C_15  and  N_16
REMARK   13  A    between atoms: C_17  and  C_18
REMARK   14  A    between atoms: C_18  and  C_19
REMARK   15  A    between atoms: C_25  and  O_26
REMARK   16  A    between atoms: C_27  and  O_28
REMARK   17  A    between atoms: C_29  and  C_30
REMARK   18  A    between atoms: C_30  and  C_31
REMARK                            x       y       z     vdW  Elec       q    Type
REMARK                         _______ _______ _______ _____ _____    ______ ____
ROOT
ATOM      1  N   UNL     1       2.079   7.416  20.009  0.00  0.00    +0.000 N 
ATOM      2  C   UNL     1       1.324   8.370  20.744  0.00  0.00    +0.000 C 
ATOM      3  O   UNL     1       1.057   8.153  21.932  0.00  0.00    +0.000 OA
ATOM      4  N   UNL     1       0.904   9.578  20.206  0.00  0.00    +0.000 N 
ATOM      5  C   UNL     1       0.910  10.026  18.804  0.00  0.00    +0.000 C 
ATOM      6  C   UNL     1       2.279   9.750  18.198  0.00  0.00    +0.000 C 
ATOM      7  C   UNL     1       2.329   8.380  17.551  0.00  0.00    +0.000 C 
ATOM      8  C   UNL     1       1.934   7.209  18.521  0.00  0.00    +0.000 C 
ENDROOT
BRANCH   7   9
ATOM      9  O   UNL     1       3.583   8.261  16.882  0.00  0.00    +0.000 OA
ATOM     10  H   UNL     1       4.140   9.023  17.138  0.00  0.00    +0.000 HD
ENDBRANCH   7   9
BRANCH   6  11
ATOM     11  O   UNL     1       2.650  10.759  17.240  0.00  0.00    +0.000 OA
ATOM     12  H   UNL     1       3.347  11.319  17.621  0.00  0.00    +0.000 HD
ENDBRANCH   6  11
BRANCH   8  13
ATOM     13  C   UNL     1       2.285   5.817  17.897  0.00  0.00    +0.000 C 
BRANCH  13  14
ATOM     14  C   UNL     1       3.698   5.316  17.736  0.00  0.00    +0.000 A 
ATOM     15  C   UNL     1       4.158   4.605  16.618  0.00  0.00    +0.000 A 
ATOM     16  C   UNL     1       5.470   4.168  16.511  0.00  0.00    +0.000 A 
ATOM     17  C   UNL     1       6.374   4.463  17.521  0.00  0.00    +0.000 A 
ATOM     18  C   UNL     1       5.957   5.187  18.636  0.00  0.00    +0.000 A 
ATOM     19  C   UNL     1       4.629   5.607  18.751  0.00  0.00    +0.000 A 
ENDBRANCH  13  14
ENDBRANCH   8  13
BRANCH   5  20
ATOM     20  C   UNL     1      -0.297   9.554  17.937  0.00  0.00    +0.000 C 
BRANCH  20  21
ATOM     21  C   UNL     1      -1.601  10.283  18.129  0.00  0.00    +0.000 A 
ATOM     22  C   UNL     1      -1.626  11.557  18.712  0.00  0.00    +0.000 A 
ATOM     23  C   UNL     1      -2.832  12.247  18.843  0.00  0.00    +0.000 A 
ATOM     24  C   UNL     1      -4.020  11.673  18.393  0.00  0.00    +0.000 A 
ATOM     25  C   UNL     1      -4.003  10.414  17.798  0.00  0.00    +0.000 A 
ATOM     26  C   UNL     1      -2.799   9.723  17.661  0.00  0.00    +0.000 A 
ENDBRANCH  20  21
ENDBRANCH   5  20
BRANCH   4  27
ATOM     27  C   UNL     1       0.303  10.560  21.143  0.00  0.00    +0.000 C 
BRANCH  27  28
ATOM     28  C   UNL     1      -0.992  10.162  21.875  0.00  0.00    +0.000 C 
BRANCH  28  29
ATOM     29  C   UNL     1      -1.224  10.882  23.202  0.00  0.00    +0.000 C 
BRANCH  29  30
ATOM     30  C   UNL     1      -1.634  12.342  22.951  0.00  0.00    +0.000 C 
BRANCH  30  31
ATOM     31  C   UNL     1      -3.118  12.503  22.625  0.00  0.00    +0.000 C 
BRANCH  31  32
ATOM     32  N   UNL     1      -3.915  12.141  23.781  0.00  0.00    +0.000 NA
ATOM     33  H   UNL     1      -4.739  11.663  23.420  0.00  0.00    +0.000 HD
ATOM     34  H   UNL     1      -4.237  12.973  24.268  0.00  0.00    +0.000 HD
ENDBRANCH  31  32
ENDBRANCH  30  31
ENDBRANCH  29  30
ENDBRANCH  28  29
ENDBRANCH  27  28
ENDBRANCH   4  27
BRANCH   1  35
ATOM     35  C   UNL     1       2.398   6.216  20.850  0.00  0.00    +0.000 C 
BRANCH  35  36
ATOM     36  C   UNL     1       1.496   4.982  20.785  0.00  0.00    +0.000 C 
BRANCH  36  37
ATOM     37  C   UNL     1       2.077   3.711  21.385  0.00  0.00    +0.000 C 
BRANCH  37  38
ATOM     38  C   UNL     1       1.659   2.463  20.605  0.00  0.00    +0.000 C 
BRANCH  38  39
ATOM     39  C   UNL     1       0.938   2.776  19.293  0.00  0.00    +0.000 C 
BRANCH  39  40
ATOM     40  N   UNL     1       1.546   2.140  18.136  0.00  0.00    +0.000 NA
ATOM     41  H   UNL     1       0.960   1.394  17.773  0.00  0.00    +0.000 HD
ATOM     42  H   UNL     1       2.467   1.750  18.356  0.00  0.00    +0.000 HD
ENDBRANCH  39  40
ENDBRANCH  38  39
ENDBRANCH  37  38
ENDBRANCH  36  37
ENDBRANCH  35  36
ENDBRANCH   1  35
TORSDOF 18
ENDMDL
MODEL 8
REMARK VINA RESULT:      -6.2      1.183      1.514
REMARK  Name = 
REMARK  18 active torsions:
REMARK  status: ('A' for Active; 'I' for Inactive)
REMARK    1  A    between atoms: N_1  and  C_2
REMARK    2  A    between atoms: C_2  and  C_3
REMARK    3  A    between atoms: C_3  and  C_4
REMARK    4  A    between atoms: C_4  and  C_5
REMARK    5  A    between atoms: C_5  and  C_6
REMARK    6  A    between atoms: C_6  and  N_7
REMARK    7  A    between atoms: N_10  and  C_11
REMARK    8  A    between atoms: C_11  and  C_12
REMARK    9  A    between atoms: C_12  and  C_13
REMARK   10  A    between atoms: C_13  and  C_14
REMARK   11  A    between atoms: C_14  and  C_15
REMARK   12  A    between atoms: C_15  and  N_16
REMARK   13  A    between atoms: C_17  and  C_18
REMARK   14  A    between atoms: C_18  and  C_19
REMARK   15  A    between atoms: C_25  and  O_26
REMARK   16  A    between atoms: C_27  and  O_28
REMARK   17  A    between atoms: C_29  and  C_30
REMARK   18  A    between atoms: C_30  and  C_31
REMARK                            x       y       z     vdW  Elec       q    Type
REMARK                         _______ _______ _______ _____ _____    ______ ____
ROOT
ATOM      1  N   UNL     1       1.981   7.379  20.032  0.00  0.00    +0.000 N 
ATOM      2  C   UNL     1       1.154   8.269  20.769  0.00  0.00    +0.000 C 
ATOM      3  O   UNL     1       0.851   7.996  21.936  0.00  0.00    +0.000 OA
ATOM      4  N   UNL     1       0.698   9.476  20.257  0.00  0.00    +0.000 N 
ATOM      5  C   UNL     1       0.737   9.975  18.873  0.00  0.00    +0.000 C 
ATOM      6  C   UNL     1       2.141   9.785  18.314  0.00  0.00    +0.000 C 
ATOM      7  C   UNL     1       2.281   8.444  17.622  0.00  0.00    +0.000 C 
ATOM      8  C   UNL     1       1.904   7.221  18.533  0.00  0.00    +0.000 C 
ENDROOT
BRANCH   7   9
ATOM      9  O   UNL     1       3.565   8.409  17.001  0.00  0.00    +0.000 OA
ATOM     10  H   UNL     1       4.114   7.749  17.470  0.00  0.00    +0.000 HD
ENDBRANCH   7   9
BRANCH   6  11
ATOM     11  O   UNL     1       2.500  10.845  17.409  0.00  0.00    +0.000 OA
ATOM     12  H   UNL     1       2.927  11.561  17.909  0.00  0.00    +0.000 HD
ENDBRANCH   6  11
BRANCH   8  13
ATOM     13  C   UNL     1       2.346   5.871  17.875  0.00  0.00    +0.000 C 
BRANCH  13  14
ATOM     14  C   UNL     1       3.784   5.428  17.783  0.00  0.00    +0.000 A 
ATOM     15  C   UNL     1       4.765   5.739  18.735  0.00  0.00    +0.000 A 
ATOM     16  C   UNL     1       6.077   5.305  18.611  0.00  0.00    +0.000 A 
ATOM     17  C   UNL     1       6.436   4.513  17.530  0.00  0.00    +0.000 A 
ATOM     18  C   UNL     1       5.481   4.166  16.577  0.00  0.00    +0.000 A 
ATOM     19  C   UNL     1       4.166   4.622  16.693  0.00  0.00    +0.000 A 
ENDBRANCH  13  14
ENDBRANCH   8  13
BRANCH   5  20
ATOM     20  C   UNL     1      -0.411   9.481  17.941  0.00  0.00    +0.000 C 
BRANCH  20  21
ATOM     21  C   UNL     1      -1.726  10.211  18.033  0.00  0.00    +0.000 A 
ATOM     22  C   UNL     1      -1.787  11.503  18.569  0.00  0.00    +0.000 A 
ATOM     23  C   UNL     1      -3.000  12.193  18.607  0.00  0.00    +0.000 A 
ATOM     24  C   UNL     1      -4.159  11.598  18.110  0.00  0.00    +0.000 A 
ATOM     25  C   UNL     1      -4.105  10.319  17.561  0.00  0.00    +0.000 A 
ATOM     26  C   UNL     1      -2.893   9.630  17.517  0.00  0.00    +0.000 A 
ENDBRANCH  20  21
ENDBRANCH   5  20
BRANCH   4  27
ATOM     27  C   UNL     1       0.014  10.394  21.203  0.00  0.00    +0.000 C 
BRANCH  27  28
ATOM     28  C   UNL     1       0.428  11.877  21.198  0.00  0.00    +0.000 C 
BRANCH  28  29
ATOM     29  C   UNL     1      -0.540  12.814  21.916  0.00  0.00    +0.000 C 
BRANCH  29  30
ATOM     30  C   UNL     1      -0.193  14.279  21.603  0.00  0.00    +0.000 C 
BRANCH  30  31
ATOM     31  C   UNL     1      -0.828  14.784  20.308  0.00  0.00    +0.000 C 
BRANCH  31  32
ATOM     32  N   UNL     1       0.187  15.394  19.471  0.00  0.00    +0.000 NA
ATOM     33  H   UNL     1       0.557  16.182  20.000  0.00  0.00    +0.000 HD
ATOM     34  H   UNL     1      -0.228  15.768  18.621  0.00  0.00    +0.000 HD
ENDBRANCH  31  32
ENDBRANCH  30  31
ENDBRANCH  29  30
ENDBRANCH  28  29
ENDBRANCH  27  28
ENDBRANCH   4  27
BRANCH   1  35
ATOM     35  C   UNL     1       2.323   6.164  20.842  0.00  0.00    +0.000 C 
BRANCH  35  36
ATOM     36  C   UNL     1       1.466   4.903  20.719  0.00  0.00    +0.000 C 
BRANCH  36  37
ATOM     37  C   UNL     1       2.154   3.601  21.101  0.00  0.00    +0.000 C 
BRANCH  37  38
ATOM     38  C   UNL     1       2.352   2.680  19.896  0.00  0.00    +0.000 C 
BRANCH  38  39
ATOM     39  C   UNL     1       3.812   2.292  19.656  0.00  0.00    +0.000 C 
BRANCH  39  40
ATOM     40  N   UNL     1       3.992   1.406  18.518  0.00  0.00    +0.000 NA
ATOM     41  H   UNL     1       3.130   0.920  18.288  0.00  0.00    +0.000 HD
ATOM     42  H   UNL     1       4.721   0.708  18.691  0.00  0.00    +0.000 HD
ENDBRANCH  39  40
ENDBRANCH  38  39
ENDBRANCH  37  38
ENDBRANCH  36  37
ENDBRANCH  35  36
ENDBRANCH   1  35
TORSDOF 18
ENDMDL
MODEL 9
REMARK VINA RESULT:      -6.2      1.251      2.171
REMARK  Name = 
REMARK  18 active torsions:
REMARK  status: ('A' for Active; 'I' for Inactive)
REMARK    1  A    between atoms: N_1  and  C_2
REMARK    2  A    between atoms: C_2  and  C_3
REMARK    3  A    between atoms: C_3  and  C_4
REMARK    4  A    between atoms: C_4  and  C_5
REMARK    5  A    between atoms: C_5  and  C_6
REMARK    6  A    between atoms: C_6  and  N_7
REMARK    7  A    between atoms: N_10  and  C_11
REMARK    8  A    between atoms: C_11  and  C_12
REMARK    9  A    between atoms: C_12  and  C_13
REMARK   10  A    between atoms: C_13  and  C_14
REMARK   11  A    between atoms: C_14  and  C_15
REMARK   12  A    between atoms: C_15  and  N_16
REMARK   13  A    between atoms: C_17  and  C_18
REMARK   14  A    between atoms: C_18  and  C_19
REMARK   15  A    between atoms: C_25  and  O_26
REMARK   16  A    between atoms: C_27  and  O_28
REMARK   17  A    between atoms: C_29  and  C_30
REMARK   18  A    between atoms: C_30  and  C_31
REMARK                            x       y       z     vdW  Elec       q    Type
REMARK                         _______ _______ _______ _____ _____    ______ ____
ROOT
ATOM      1  N   UNL     1       1.920   7.353  20.000  0.00  0.00    +0.000 N 
ATOM      2  C   UNL     1       1.032   8.254  20.646  0.00  0.00    +0.000 C 
ATOM      3  O   UNL     1       0.684   8.036  21.813  0.00  0.00    +0.000 OA
ATOM      4  N   UNL     1       0.563   9.414  20.047  0.00  0.00    +0.000 N 
ATOM      5  C   UNL     1       0.651   9.837  18.640  0.00  0.00    +0.000 C 
ATOM      6  C   UNL     1       2.084   9.663  18.155  0.00  0.00    +0.000 C 
ATOM      7  C   UNL     1       2.298   8.291  17.548  0.00  0.00    +0.000 C 
ATOM      8  C   UNL     1       1.917   7.109  18.510  0.00  0.00    +0.000 C 
ENDROOT
BRANCH   7   9
ATOM      9  O   UNL     1       3.610   8.264  16.989  0.00  0.00    +0.000 OA
ATOM     10  H   UNL     1       3.572   8.668  16.099  0.00  0.00    +0.000 HD
ENDBRANCH   7   9
BRANCH   6  11
ATOM     11  O   UNL     1       2.452  10.683  17.208  0.00  0.00    +0.000 OA
ATOM     12  H   UNL     1       1.907  11.473  17.361  0.00  0.00    +0.000 HD
ENDBRANCH   6  11
BRANCH   8  13
ATOM     13  C   UNL     1       2.431   5.739  17.951  0.00  0.00    +0.000 C 
BRANCH  13  14
ATOM     14  C   UNL     1       3.889   5.357  17.912  0.00  0.00    +0.000 A 
ATOM     15  C   UNL     1       4.513   4.749  16.813  0.00  0.00    +0.000 A 
ATOM     16  C   UNL     1       5.861   4.420  16.819  0.00  0.00    +0.000 A 
ATOM     17  C   UNL     1       6.633   4.723  17.931  0.00  0.00    +0.000 A 
ATOM     18  C   UNL     1       6.050   5.347  19.032  0.00  0.00    +0.000 A 
ATOM     19  C   UNL     1       4.689   5.658  19.030  0.00  0.00    +0.000 A 
ENDBRANCH  13  14
ENDBRANCH   8  13
BRANCH   5  20
ATOM     20  C   UNL     1      -0.437   9.253  17.687  0.00  0.00    +0.000 C 
BRANCH  20  21
ATOM     21  C   UNL     1      -1.704  10.052  17.527  0.00  0.00    +0.000 A 
ATOM     22  C   UNL     1      -2.059  11.021  18.474  0.00  0.00    +0.000 A 
ATOM     23  C   UNL     1      -3.209  11.792  18.295  0.00  0.00    +0.000 A 
ATOM     24  C   UNL     1      -4.011  11.601  17.172  0.00  0.00    +0.000 A 
ATOM     25  C   UNL     1      -3.659  10.651  16.217  0.00  0.00    +0.000 A 
ATOM     26  C   UNL     1      -2.507   9.882  16.390  0.00  0.00    +0.000 A 
ENDBRANCH  20  21
ENDBRANCH   5  20
BRANCH   4  27
ATOM     27  C   UNL     1      -0.192  10.360  20.907  0.00  0.00    +0.000 C 
BRANCH  27  28
ATOM     28  C   UNL     1       0.082  11.866  20.739  0.00  0.00    +0.000 C 
BRANCH  28  29
ATOM     29  C   UNL     1       1.548  12.269  20.875  0.00  0.00    +0.000 C 
BRANCH  29  30
ATOM     30  C   UNL     1       1.768  13.680  20.305  0.00  0.00    +0.000 C 
BRANCH  30  31
ATOM     31  C   UNL     1       2.598  13.688  19.023  0.00  0.00    +0.000 C 
BRANCH  31  32
ATOM     32  N   UNL     1       1.763  13.319  17.896  0.00  0.00    +0.000 NA
ATOM     33  H   UNL     1       1.638  12.309  17.953  0.00  0.00    +0.000 HD
ATOM     34  H   UNL     1       2.238  13.516  17.019  0.00  0.00    +0.000 HD
ENDBRANCH  31  32
ENDBRANCH  30  31
ENDBRANCH  29  30
ENDBRANCH  28  29
ENDBRANCH  27  28
ENDBRANCH   4  27
BRANCH   1  35
ATOM     35  C   UNL     1       2.262   6.197  20.893  0.00  0.00    +0.000 C 
BRANCH  35  36
ATOM     36  C   UNL     1       1.480   4.888  20.772  0.00  0.00    +0.000 C 
BRANCH  36  37
ATOM     37  C   UNL     1       2.216   3.639  21.235  0.00  0.00    +0.000 C 
BRANCH  37  38
ATOM     38  C   UNL     1       2.473   2.664  20.084  0.00  0.00    +0.000 C 
BRANCH  38  39
ATOM     39  C   UNL     1       3.947   2.290  19.918  0.00  0.00    +0.000 C 
BRANCH  39  40
ATOM     40  N   UNL     1       4.229   1.609  18.665  0.00  0.00    +0.000 NA
ATOM     41  H   UNL     1       4.262   0.602  18.790  0.00  0.00    +0.000 HD
ATOM     42  H   UNL     1       5.118   1.915  18.257  0.00  0.00    +0.000 HD
ENDBRANCH  39  40
ENDBRANCH  38  39
ENDBRANCH  37  38
ENDBRANCH  36  37
ENDBRANCH  35  36
ENDBRANCH   1  35
TORSDOF 18
ENDMDL
