MODEL 1
REMARK VINA RESULT:      -6.9      0.000      0.000
REMARK  Name = 
REMARK  15 active torsions:
REMARK  status: ('A' for Active; 'I' for Inactive)
REMARK    1  A    between atoms: C_1  and  C_2
REMARK    2  A    between atoms: C_5  and  C_6
REMARK    3  A    between atoms: C_6  and  C_25
REMARK    4  A    between atoms: C_7  and  C_8
REMARK    5  A    between atoms: C_7  and  C_19
REMARK    6  A    between atoms: C_9  and  C_10
REMARK    7  A    between atoms: C_10  and  O_11
REMARK    8  A    between atoms: C_10  and  C_12
REMARK    9  A    between atoms: C_12  and  C_13
REMARK   10  A    between atoms: C_13  and  O_14
REMARK   11  A    between atoms: C_13  and  C_15
REMARK   12  A    between atoms: C_15  and  C_16
REMARK   13  A    between atoms: C_16  and  O_18
REMARK   14  A    between atoms: N_23  and  C_24
REMARK   15  A    between atoms: C_28  and  C_29
REMARK                            x       y       z     vdW  Elec       q    Type
REMARK                         _______ _______ _______ _____ _____    ______ ____
ROOT
ATOM      1  C   UNL     1       0.964  11.936  19.304  0.00  0.00    +0.000 C 
ATOM      2  C   UNL     1      -0.350  12.313  19.237  0.00  0.00    +0.000 C 
ENDROOT
BRANCH   1   7
ATOM      3  C   UNL     1       2.605   6.408  18.679  0.00  0.00    +0.000 C 
ATOM      4  C   UNL     1       2.145   7.828  18.831  0.00  0.00    +0.000 A 
ATOM      5  C   UNL     1       1.600   8.277  20.038  0.00  0.00    +0.000 A 
ATOM      6  C   UNL     1       1.185   9.603  20.180  0.00  0.00    +0.000 A 
ATOM      7  C   UNL     1       1.307  10.501  19.109  0.00  0.00    +0.000 A 
ATOM      8  C   UNL     1       1.824  10.045  17.891  0.00  0.00    +0.000 A 
ATOM      9  C   UNL     1       2.238   8.716  17.754  0.00  0.00    +0.000 A 
ENDBRANCH   1   7
BRANCH   1  10
ATOM     10  C   UNL     1       2.042  12.932  19.558  0.00  0.00    +0.000 A 
ATOM     11  C   UNL     1       2.775  13.486  18.502  0.00  0.00    +0.000 A 
ATOM     12  C   UNL     1       3.854  14.340  18.759  0.00  0.00    +0.000 A 
ATOM     13  C   UNL     1       4.222  14.640  20.077  0.00  0.00    +0.000 A 
ATOM     14  C   UNL     1       5.431  15.480  20.370  0.00  0.00    +0.000 C 
ATOM     15  C   UNL     1       3.438  14.152  21.127  0.00  0.00    +0.000 A 
ATOM     16  C   UNL     1       2.356  13.306  20.870  0.00  0.00    +0.000 A 
ENDBRANCH   1  10
BRANCH   2  17
ATOM     17  C   UNL     1      -0.701  13.688  19.420  0.00  0.00    +0.000 A 
ATOM     18  N   UNL     1      -0.516  14.739  18.642  0.00  0.00    +0.000 NA
ATOM     19  N   UNL     1      -0.967  15.829  19.345  0.00  0.00    +0.000 NA
ATOM     20  N   UNL     1      -1.410  15.475  20.541  0.00  0.00    +0.000 NA
ATOM     21  N   UNL     1      -1.253  14.141  20.594  0.00  0.00    +0.000 N 
ATOM     22  C   UNL     1      -1.621  13.425  21.785  0.00  0.00    +0.000 C 
ENDBRANCH   2  17
BRANCH   2  23
ATOM     23  C   UNL     1      -1.407  11.313  19.013  0.00  0.00    +0.000 C 
ATOM     24  C   UNL     1      -1.994  11.089  17.825  0.00  0.00    +0.000 C 
BRANCH  24  25
ATOM     25  C   UNL     1      -3.131  10.135  17.547  0.00  0.00    +0.000 C 
BRANCH  25  26
ATOM     26  O   UNL     1      -4.377  10.831  17.622  0.00  0.00    +0.000 OA
ATOM     27  H   UNL     1      -5.052  10.257  17.217  0.00  0.00    +0.000 HD
ENDBRANCH  25  26
BRANCH  25  28
ATOM     28  C   UNL     1      -3.059   9.458  16.164  0.00  0.00    +0.000 C 
BRANCH  28  29
ATOM     29  C   UNL     1      -3.563  10.320  15.000  0.00  0.00    +0.000 C 
BRANCH  29  30
ATOM     30  O   UNL     1      -3.255  11.693  15.248  0.00  0.00    +0.000 OA
ATOM     31  H   UNL     1      -4.085  12.170  15.432  0.00  0.00    +0.000 HD
ENDBRANCH  29  30
BRANCH  29  32
ATOM     32  C   UNL     1      -2.965   9.941  13.647  0.00  0.00    +0.000 C 
BRANCH  32  33
ATOM     33  C   UNL     1      -4.030   9.691  12.615  0.00  0.00    +0.000 C 
ATOM     34  O   UNL     1      -5.200   9.471  12.892  0.00  0.00    +0.000 OA
BRANCH  33  35
ATOM     35  O   UNL     1      -3.590   9.771  11.342  0.00  0.00    +0.000 OA
ATOM     36  H   UNL     1      -4.264  10.047  10.692  0.00  0.00    +0.000 HD
ENDBRANCH  33  35
ENDBRANCH  32  33
ENDBRANCH  29  32
ENDBRANCH  28  29
ENDBRANCH  25  28
ENDBRANCH  24  25
ENDBRANCH   2  23
TORSDOF 12
ENDMDL
MODEL 2
REMARK VINA RESULT:      -6.6      4.752      7.670
REMARK  Name = 
REMARK  15 active torsions:
REMARK  status: ('A' for Active; 'I' for Inactive)
REMARK    1  A    between atoms: C_1  and  C_2
REMARK    2  A    between atoms: C_5  and  C_6
REMARK    3  A    between atoms: C_6  and  C_25
REMARK    4  A    between atoms: C_7  and  C_8
REMARK    5  A    between atoms: C_7  and  C_19
REMARK    6  A    between atoms: C_9  and  C_10
REMARK    7  A    between atoms: C_10  and  O_11
REMARK    8  A    between atoms: C_10  and  C_12
REMARK    9  A    between atoms: C_12  and  C_13
REMARK   10  A    between atoms: C_13  and  O_14
REMARK   11  A    between atoms: C_13  and  C_15
REMARK   12  A    between atoms: C_15  and  C_16
REMARK   13  A    between atoms: C_16  and  O_18
REMARK   14  A    between atoms: N_23  and  C_24
REMARK   15  A    between atoms: C_28  and  C_29
REMARK                            x       y       z     vdW  Elec       q    Type
REMARK                         _______ _______ _______ _____ _____    ______ ____
ROOT
ATOM      1  C   UNL     1      -1.964  12.834  22.524  0.00  0.00    +0.000 C 
ATOM      2  C   UNL     1      -1.321  14.042  22.534  0.00  0.00    +0.000 C 
ENDROOT
BRANCH   1   7
ATOM      3  C   UNL     1       0.799   7.910  21.197  0.00  0.00    +0.000 C 
ATOM      4  C   UNL     1       0.118   9.201  21.543  0.00  0.00    +0.000 A 
ATOM      5  C   UNL     1      -0.175  10.143  20.552  0.00  0.00    +0.000 A 
ATOM      6  C   UNL     1      -0.821  11.338  20.877  0.00  0.00    +0.000 A 
ATOM      7  C   UNL     1      -1.181  11.610  22.205  0.00  0.00    +0.000 A 
ATOM      8  C   UNL     1      -0.860  10.682  23.203  0.00  0.00    +0.000 A 
ATOM      9  C   UNL     1      -0.213   9.487  22.873  0.00  0.00    +0.000 A 
ENDBRANCH   1   7
BRANCH   1  10
ATOM     10  C   UNL     1      -3.417  12.729  22.831  0.00  0.00    +0.000 A 
ATOM     11  C   UNL     1      -4.377  12.813  21.815  0.00  0.00    +0.000 A 
ATOM     12  C   UNL     1      -5.741  12.817  22.127  0.00  0.00    +0.000 A 
ATOM     13  C   UNL     1      -6.164  12.753  23.461  0.00  0.00    +0.000 A 
ATOM     14  C   UNL     1      -7.619  12.849  23.817  0.00  0.00    +0.000 C 
ATOM     15  C   UNL     1      -5.207  12.586  24.467  0.00  0.00    +0.000 A 
ATOM     16  C   UNL     1      -3.844  12.573  24.155  0.00  0.00    +0.000 A 
ENDBRANCH   1  10
BRANCH   2  17
ATOM     17  C   UNL     1      -2.055  15.232  22.840  0.00  0.00    +0.000 A 
ATOM     18  N   UNL     1      -2.741  16.049  22.063  0.00  0.00    +0.000 NA
ATOM     19  N   UNL     1      -3.169  17.082  22.861  0.00  0.00    +0.000 NA
ATOM     20  N   UNL     1      -2.748  16.925  24.107  0.00  0.00    +0.000 NA
ATOM     21  N   UNL     1      -2.057  15.772  24.104  0.00  0.00    +0.000 N 
ATOM     22  C   UNL     1      -1.435  15.309  25.313  0.00  0.00    +0.000 C 
ENDBRANCH   2  17
BRANCH   2  23
ATOM     23  C   UNL     1       0.110  14.133  22.200  0.00  0.00    +0.000 C 
ATOM     24  C   UNL     1       0.607  14.896  21.210  0.00  0.00    +0.000 C 
BRANCH  24  25
ATOM     25  C   UNL     1       2.049  14.976  20.771  0.00  0.00    +0.000 C 
BRANCH  25  26
ATOM     26  O   UNL     1       2.426  13.758  20.123  0.00  0.00    +0.000 OA
ATOM     27  H   UNL     1       1.704  13.121  20.266  0.00  0.00    +0.000 HD
ENDBRANCH  25  26
BRANCH  25  28
ATOM     28  C   UNL     1       2.346  16.133  19.796  0.00  0.00    +0.000 C 
BRANCH  28  29
ATOM     29  C   UNL     1       3.835  16.385  19.533  0.00  0.00    +0.000 C 
BRANCH  29  30
ATOM     30  O   UNL     1       4.621  15.483  20.313  0.00  0.00    +0.000 OA
ATOM     31  H   UNL     1       4.106  15.217  21.096  0.00  0.00    +0.000 HD
ENDBRANCH  29  30
BRANCH  29  32
ATOM     32  C   UNL     1       4.239  16.217  18.070  0.00  0.00    +0.000 C 
BRANCH  32  33
ATOM     33  C   UNL     1       4.958  14.918  17.833  0.00  0.00    +0.000 C 
ATOM     34  O   UNL     1       6.173  14.826  17.737  0.00  0.00    +0.000 OA
BRANCH  33  35
ATOM     35  O   UNL     1       4.144  13.843  17.776  0.00  0.00    +0.000 OA
ATOM     36  H   UNL     1       3.276  14.008  17.361  0.00  0.00    +0.000 HD
ENDBRANCH  33  35
ENDBRANCH  32  33
ENDBRANCH  29  32
ENDBRANCH  28  29
ENDBRANCH  25  28
ENDBRANCH  24  25
ENDBRANCH   2  23
TORSDOF 12
ENDMDL
MODEL 3
REMARK VINA RESULT:      -6.6      8.834     10.519
REMARK  Name = 
REMARK  15 active torsions:
REMARK  status: ('A' for Active; 'I' for Inactive)
REMARK    1  A    between atoms: C_1  and  C_2
REMARK    2  A    between atoms: C_5  and  C_6
REMARK    3  A    between atoms: C_6  and  C_25
REMARK    4  A    between atoms: C_7  and  C_8
REMARK    5  A    between atoms: C_7  and  C_19
REMARK    6  A    between atoms: C_9  and  C_10
REMARK    7  A    between atoms: C_10  and  O_11
REMARK    8  A    between atoms: C_10  and  C_12
REMARK    9  A    between atoms: C_12  and  C_13
REMARK   10  A    between atoms: C_13  and  O_14
REMARK   11  A    between atoms: C_13  and  C_15
REMARK   12  A    between atoms: C_15  and  C_16
REMARK   13  A    between atoms: C_16  and  O_18
REMARK   14  A    between atoms: N_23  and  C_24
REMARK   15  A    between atoms: C_28  and  C_29
REMARK                            x       y       z     vdW  Elec       q    Type
REMARK                         _______ _______ _______ _____ _____    ______ ____
ROOT
ATOM      1  C   UNL     1       7.398  13.430  22.269  0.00  0.00    +0.000 C 
ATOM      2  C   UNL     1       6.552  14.323  21.670  0.00  0.00    +0.000 C 
ENDROOT
BRANCH   1   7
ATOM      3  C   UNL     1      12.325  11.703  19.744  0.00  0.00    +0.000 C 
ATOM      4  C   UNL     1      11.036  12.156  20.363  0.00  0.00    +0.000 A 
ATOM      5  C   UNL     1       9.981  11.258  20.554  0.00  0.00    +0.000 A 
ATOM      6  C   UNL     1       8.787  11.681  21.143  0.00  0.00    +0.000 A 
ATOM      7  C   UNL     1       8.630  13.015  21.546  0.00  0.00    +0.000 A 
ATOM      8  C   UNL     1       9.674  13.922  21.327  0.00  0.00    +0.000 A 
ATOM      9  C   UNL     1      10.868  13.494  20.737  0.00  0.00    +0.000 A 
ENDBRANCH   1   7
BRANCH   1  10
ATOM     10  C   UNL     1       7.109  12.880  23.623  0.00  0.00    +0.000 A 
ATOM     11  C   UNL     1       7.762  13.376  24.757  0.00  0.00    +0.000 A 
ATOM     12  C   UNL     1       7.559  12.783  26.009  0.00  0.00    +0.000 A 
ATOM     13  C   UNL     1       6.712  11.676  26.140  0.00  0.00    +0.000 A 
ATOM     14  C   UNL     1       6.556  10.972  27.457  0.00  0.00    +0.000 C 
ATOM     15  C   UNL     1       5.998  11.234  25.021  0.00  0.00    +0.000 A 
ATOM     16  C   UNL     1       6.193  11.832  23.774  0.00  0.00    +0.000 A 
ENDBRANCH   1  10
BRANCH   2  17
ATOM     17  C   UNL     1       5.362  14.736  22.349  0.00  0.00    +0.000 A 
ATOM     18  N   UNL     1       4.114  14.321  22.238  0.00  0.00    +0.000 NA
ATOM     19  N   UNL     1       3.361  15.122  23.061  0.00  0.00    +0.000 NA
ATOM     20  N   UNL     1       4.115  16.028  23.664  0.00  0.00    +0.000 NA
ATOM     21  N   UNL     1       5.365  15.791  23.229  0.00  0.00    +0.000 N 
ATOM     22  C   UNL     1       6.447  16.623  23.679  0.00  0.00    +0.000 C 
ENDBRANCH   2  17
BRANCH   2  23
ATOM     23  C   UNL     1       6.837  14.835  20.319  0.00  0.00    +0.000 C 
ATOM     24  C   UNL     1       7.050  16.132  20.034  0.00  0.00    +0.000 C 
BRANCH  24  25
ATOM     25  C   UNL     1       7.271  16.729  18.665  0.00  0.00    +0.000 C 
BRANCH  25  26
ATOM     26  O   UNL     1       7.421  18.146  18.772  0.00  0.00    +0.000 OA
ATOM     27  H   UNL     1       6.803  18.449  19.462  0.00  0.00    +0.000 HD
ENDBRANCH  25  26
BRANCH  25  28
ATOM     28  C   UNL     1       8.515  16.183  17.936  0.00  0.00    +0.000 C 
BRANCH  28  29
ATOM     29  C   UNL     1       9.833  16.872  18.312  0.00  0.00    +0.000 C 
BRANCH  29  30
ATOM     30  O   UNL     1       9.765  17.337  19.661  0.00  0.00    +0.000 OA
ATOM     31  H   UNL     1       9.384  18.234  19.663  0.00  0.00    +0.000 HD
ENDBRANCH  29  30
BRANCH  29  32
ATOM     32  C   UNL     1      11.058  15.969  18.187  0.00  0.00    +0.000 C 
BRANCH  32  33
ATOM     33  C   UNL     1      11.019  15.146  16.929  0.00  0.00    +0.000 C 
ATOM     34  O   UNL     1      11.099  13.927  16.917  0.00  0.00    +0.000 OA
BRANCH  33  35
ATOM     35  O   UNL     1      10.846  15.871  15.803  0.00  0.00    +0.000 OA
ATOM     36  H   UNL     1      10.370  16.714  15.928  0.00  0.00    +0.000 HD
ENDBRANCH  33  35
ENDBRANCH  32  33
ENDBRANCH  29  32
ENDBRANCH  28  29
ENDBRANCH  25  28
ENDBRANCH  24  25
ENDBRANCH   2  23
TORSDOF 12
ENDMDL
MODEL 4
REMARK VINA RESULT:      -6.5      3.709      5.636
REMARK  Name = 
REMARK  15 active torsions:
REMARK  status: ('A' for Active; 'I' for Inactive)
REMARK    1  A    between atoms: C_1  and  C_2
REMARK    2  A    between atoms: C_5  and  C_6
REMARK    3  A    between atoms: C_6  and  C_25
REMARK    4  A    between atoms: C_7  and  C_8
REMARK    5  A    between atoms: C_7  and  C_19
REMARK    6  A    between atoms: C_9  and  C_10
REMARK    7  A    between atoms: C_10  and  O_11
REMARK    8  A    between atoms: C_10  and  C_12
REMARK    9  A    between atoms: C_12  and  C_13
REMARK   10  A    between atoms: C_13  and  O_14
REMARK   11  A    between atoms: C_13  and  C_15
REMARK   12  A    between atoms: C_15  and  C_16
REMARK   13  A    between atoms: C_16  and  O_18
REMARK   14  A    between atoms: N_23  and  C_24
REMARK   15  A    between atoms: C_28  and  C_29
REMARK                            x       y       z     vdW  Elec       q    Type
REMARK                         _______ _______ _______ _____ _____    ______ ____
ROOT
ATOM      1  C   UNL     1      -3.239  13.574  22.539  0.00  0.00    +0.000 C 
ATOM      2  C   UNL     1      -4.504  13.438  22.034  0.00  0.00    +0.000 C 
ENDROOT
BRANCH   1   7
ATOM      3  C   UNL     1       0.479   9.354  21.124  0.00  0.00    +0.000 C 
ATOM      4  C   UNL     1      -0.453  10.468  21.498  0.00  0.00    +0.000 A 
ATOM      5  C   UNL     1      -0.835  11.427  20.554  0.00  0.00    +0.000 A 
ATOM      6  C   UNL     1      -1.713  12.455  20.903  0.00  0.00    +0.000 A 
ATOM      7  C   UNL     1      -2.222  12.541  22.207  0.00  0.00    +0.000 A 
ATOM      8  C   UNL     1      -1.817  11.599  23.161  0.00  0.00    +0.000 A 
ATOM      9  C   UNL     1      -0.936  10.571  22.807  0.00  0.00    +0.000 A 
ENDBRANCH   1   7
BRANCH   1  10
ATOM     10  C   UNL     1      -2.870  14.734  23.399  0.00  0.00    +0.000 A 
ATOM     11  C   UNL     1      -2.259  15.869  22.854  0.00  0.00    +0.000 A 
ATOM     12  C   UNL     1      -1.823  16.907  23.685  0.00  0.00    +0.000 A 
ATOM     13  C   UNL     1      -1.980  16.817  25.074  0.00  0.00    +0.000 A 
ATOM     14  C   UNL     1      -1.436  17.879  25.985  0.00  0.00    +0.000 C 
ATOM     15  C   UNL     1      -2.664  15.720  25.608  0.00  0.00    +0.000 A 
ATOM     16  C   UNL     1      -3.107  14.688  24.777  0.00  0.00    +0.000 A 
ENDBRANCH   1  10
BRANCH   2  17
ATOM     17  C   UNL     1      -5.497  14.422  22.340  0.00  0.00    +0.000 A 
ATOM     18  N   UNL     1      -5.677  15.644  21.872  0.00  0.00    +0.000 NA
ATOM     19  N   UNL     1      -6.728  16.180  22.575  0.00  0.00    +0.000 NA
ATOM     20  N   UNL     1      -7.188  15.322  23.473  0.00  0.00    +0.000 NA
ATOM     21  N   UNL     1      -6.429  14.222  23.330  0.00  0.00    +0.000 N 
ATOM     22  C   UNL     1      -6.651  13.086  24.181  0.00  0.00    +0.000 C 
ENDBRANCH   2  17
BRANCH   2  23
ATOM     23  C   UNL     1      -4.861  12.272  21.210  0.00  0.00    +0.000 C 
ATOM     24  C   UNL     1      -5.908  12.236  20.367  0.00  0.00    +0.000 C 
BRANCH  24  25
ATOM     25  C   UNL     1      -6.370  11.052  19.553  0.00  0.00    +0.000 C 
BRANCH  25  26
ATOM     26  O   UNL     1      -7.777  10.865  19.723  0.00  0.00    +0.000 OA
ATOM     27  H   UNL     1      -7.896  10.141  20.363  0.00  0.00    +0.000 HD
ENDBRANCH  25  26
BRANCH  25  28
ATOM     28  C   UNL     1      -6.097  11.183  18.042  0.00  0.00    +0.000 C 
BRANCH  28  29
ATOM     29  C   UNL     1      -4.626  11.413  17.672  0.00  0.00    +0.000 C 
BRANCH  29  30
ATOM     30  O   UNL     1      -3.822  10.373  18.232  0.00  0.00    +0.000 OA
ATOM     31  H   UNL     1      -3.977   9.553  17.728  0.00  0.00    +0.000 HD
ENDBRANCH  29  30
BRANCH  29  32
ATOM     32  C   UNL     1      -4.367  11.450  16.168  0.00  0.00    +0.000 C 
BRANCH  32  33
ATOM     33  C   UNL     1      -3.000  10.928  15.822  0.00  0.00    +0.000 C 
ATOM     34  O   UNL     1      -2.810   9.917  15.163  0.00  0.00    +0.000 OA
BRANCH  33  35
ATOM     35  O   UNL     1      -1.988  11.700  16.271  0.00  0.00    +0.000 OA
ATOM     36  H   UNL     1      -1.561  11.381  17.089  0.00  0.00    +0.000 HD
ENDBRANCH  33  35
ENDBRANCH  32  33
ENDBRANCH  29  32
ENDBRANCH  28  29
ENDBRANCH  25  28
ENDBRANCH  24  25
ENDBRANCH   2  23
TORSDOF 12
ENDMDL
MODEL 5
REMARK VINA RESULT:      -6.3      4.844      7.566
REMARK  Name = 
REMARK  15 active torsions:
REMARK  status: ('A' for Active; 'I' for Inactive)
REMARK    1  A    between atoms: C_1  and  C_2
REMARK    2  A    between atoms: C_5  and  C_6
REMARK    3  A    between atoms: C_6  and  C_25
REMARK    4  A    between atoms: C_7  and  C_8
REMARK    5  A    between atoms: C_7  and  C_19
REMARK    6  A    between atoms: C_9  and  C_10
REMARK    7  A    between atoms: C_10  and  O_11
REMARK    8  A    between atoms: C_10  and  C_12
REMARK    9  A    between atoms: C_12  and  C_13
REMARK   10  A    between atoms: C_13  and  O_14
REMARK   11  A    between atoms: C_13  and  C_15
REMARK   12  A    between atoms: C_15  and  C_16
REMARK   13  A    between atoms: C_16  and  O_18
REMARK   14  A    between atoms: N_23  and  C_24
REMARK   15  A    between atoms: C_28  and  C_29
REMARK                            x       y       z     vdW  Elec       q    Type
REMARK                         _______ _______ _______ _____ _____    ______ ____
ROOT
ATOM      1  C   UNL     1      -1.816  12.951  22.492  0.00  0.00    +0.000 C 
ATOM      2  C   UNL     1      -1.198  14.171  22.520  0.00  0.00    +0.000 C 
ENDROOT
BRANCH   1   7
ATOM      3  C   UNL     1       1.035   8.116  21.030  0.00  0.00    +0.000 C 
ATOM      4  C   UNL     1       0.331   9.385  21.413  0.00  0.00    +0.000 A 
ATOM      5  C   UNL     1       0.045  10.361  20.453  0.00  0.00    +0.000 A 
ATOM      6  C   UNL     1      -0.623  11.534  20.811  0.00  0.00    +0.000 A 
ATOM      7  C   UNL     1      -1.011  11.749  22.141  0.00  0.00    +0.000 A 
ATOM      8  C   UNL     1      -0.698  10.787  23.109  0.00  0.00    +0.000 A 
ATOM      9  C   UNL     1      -0.029   9.614  22.746  0.00  0.00    +0.000 A 
ENDBRANCH   1   7
BRANCH   1  10
ATOM     10  C   UNL     1      -3.264  12.810  22.811  0.00  0.00    +0.000 A 
ATOM     11  C   UNL     1      -4.239  12.961  21.817  0.00  0.00    +0.000 A 
ATOM     12  C   UNL     1      -5.599  12.929  22.148  0.00  0.00    +0.000 A 
ATOM     13  C   UNL     1      -6.001  12.761  23.478  0.00  0.00    +0.000 A 
ATOM     14  C   UNL     1      -7.452  12.817  23.861  0.00  0.00    +0.000 C 
ATOM     15  C   UNL     1      -5.028  12.529  24.456  0.00  0.00    +0.000 A 
ATOM     16  C   UNL     1      -3.671  12.551  24.124  0.00  0.00    +0.000 A 
ENDBRANCH   1  10
BRANCH   2  17
ATOM     17  C   UNL     1      -1.953  15.339  22.857  0.00  0.00    +0.000 A 
ATOM     18  N   UNL     1      -2.326  15.821  24.028  0.00  0.00    +0.000 NA
ATOM     19  N   UNL     1      -3.110  16.918  23.768  0.00  0.00    +0.000 NA
ATOM     20  N   UNL     1      -3.240  17.113  22.465  0.00  0.00    +0.000 NA
ATOM     21  N   UNL     1      -2.517  16.136  21.889  0.00  0.00    +0.000 N 
ATOM     22  C   UNL     1      -2.460  16.040  20.456  0.00  0.00    +0.000 C 
ENDBRANCH   2  17
BRANCH   2  23
ATOM     23  C   UNL     1       0.228  14.299  22.174  0.00  0.00    +0.000 C 
ATOM     24  C   UNL     1       0.986  15.366  22.479  0.00  0.00    +0.000 C 
BRANCH  24  25
ATOM     25  C   UNL     1       2.427  15.590  22.090  0.00  0.00    +0.000 C 
BRANCH  25  26
ATOM     26  O   UNL     1       3.274  14.719  22.843  0.00  0.00    +0.000 OA
ATOM     27  H   UNL     1       4.193  14.995  22.675  0.00  0.00    +0.000 HD
ENDBRANCH  25  26
BRANCH  25  28
ATOM     28  C   UNL     1       2.718  15.344  20.596  0.00  0.00    +0.000 C 
BRANCH  28  29
ATOM     29  C   UNL     1       2.480  16.556  19.687  0.00  0.00    +0.000 C 
BRANCH  29  30
ATOM     30  O   UNL     1       3.713  17.242  19.465  0.00  0.00    +0.000 OA
ATOM     31  H   UNL     1       3.877  17.839  20.218  0.00  0.00    +0.000 HD
ENDBRANCH  29  30
BRANCH  29  32
ATOM     32  C   UNL     1       1.888  16.198  18.325  0.00  0.00    +0.000 C 
BRANCH  32  33
ATOM     33  C   UNL     1       2.847  16.492  17.205  0.00  0.00    +0.000 C 
ATOM     34  O   UNL     1       2.899  17.566  16.625  0.00  0.00    +0.000 OA
BRANCH  33  35
ATOM     35  O   UNL     1       3.683  15.473  16.917  0.00  0.00    +0.000 OA
ATOM     36  H   UNL     1       3.653  15.167  15.990  0.00  0.00    +0.000 HD
ENDBRANCH  33  35
ENDBRANCH  32  33
ENDBRANCH  29  32
ENDBRANCH  28  29
ENDBRANCH  25  28
ENDBRANCH  24  25
ENDBRANCH   2  23
TORSDOF 12
ENDMDL
MODEL 6
REMARK VINA RESULT:      -6.3      4.007      7.028
REMARK  Name = 
REMARK  15 active torsions:
REMARK  status: ('A' for Active; 'I' for Inactive)
REMARK    1  A    between atoms: C_1  and  C_2
REMARK    2  A    between atoms: C_5  and  C_6
REMARK    3  A    between atoms: C_6  and  C_25
REMARK    4  A    between atoms: C_7  and  C_8
REMARK    5  A    between atoms: C_7  and  C_19
REMARK    6  A    between atoms: C_9  and  C_10
REMARK    7  A    between atoms: C_10  and  O_11
REMARK    8  A    between atoms: C_10  and  C_12
REMARK    9  A    between atoms: C_12  and  C_13
REMARK   10  A    between atoms: C_13  and  O_14
REMARK   11  A    between atoms: C_13  and  C_15
REMARK   12  A    between atoms: C_15  and  C_16
REMARK   13  A    between atoms: C_16  and  O_18
REMARK   14  A    between atoms: N_23  and  C_24
REMARK   15  A    between atoms: C_28  and  C_29
REMARK                            x       y       z     vdW  Elec       q    Type
REMARK                         _______ _______ _______ _____ _____    ______ ____
ROOT
ATOM      1  C   UNL     1      -3.336  13.356  20.924  0.00  0.00    +0.000 C 
ATOM      2  C   UNL     1      -2.428  13.231  21.940  0.00  0.00    +0.000 C 
ENDROOT
BRANCH   1   7
ATOM      3  C   UNL     1      -2.715  10.379  15.985  0.00  0.00    +0.000 C 
ATOM      4  C   UNL     1      -2.863  11.119  17.282  0.00  0.00    +0.000 A 
ATOM      5  C   UNL     1      -1.777  11.793  17.849  0.00  0.00    +0.000 A 
ATOM      6  C   UNL     1      -1.923  12.491  19.049  0.00  0.00    +0.000 A 
ATOM      7  C   UNL     1      -3.163  12.521  19.705  0.00  0.00    +0.000 A 
ATOM      8  C   UNL     1      -4.244  11.821  19.155  0.00  0.00    +0.000 A 
ATOM      9  C   UNL     1      -4.092  11.123  17.952  0.00  0.00    +0.000 A 
ENDBRANCH   1   7
BRANCH   1  10
ATOM     10  C   UNL     1      -4.485  14.298  21.025  0.00  0.00    +0.000 A 
ATOM     11  C   UNL     1      -4.345  15.645  20.670  0.00  0.00    +0.000 A 
ATOM     12  C   UNL     1      -5.401  16.543  20.867  0.00  0.00    +0.000 A 
ATOM     13  C   UNL     1      -6.605  16.108  21.435  0.00  0.00    +0.000 A 
ATOM     14  C   UNL     1      -7.712  17.076  21.737  0.00  0.00    +0.000 C 
ATOM     15  C   UNL     1      -6.771  14.747  21.711  0.00  0.00    +0.000 A 
ATOM     16  C   UNL     1      -5.720  13.849  21.506  0.00  0.00    +0.000 A 
ENDBRANCH   1  10
BRANCH   2  17
ATOM     17  C   UNL     1      -2.576  14.024  23.123  0.00  0.00    +0.000 A 
ATOM     18  N   UNL     1      -2.036  15.179  23.464  0.00  0.00    +0.000 NA
ATOM     19  N   UNL     1      -2.453  15.442  24.746  0.00  0.00    +0.000 NA
ATOM     20  N   UNL     1      -3.223  14.468  25.205  0.00  0.00    +0.000 NA
ATOM     21  N   UNL     1      -3.310  13.582  24.198  0.00  0.00    +0.000 N 
ATOM     22  C   UNL     1      -4.068  12.374  24.373  0.00  0.00    +0.000 C 
ENDBRANCH   2  17
BRANCH   2  23
ATOM     23  C   UNL     1      -1.281  12.316  21.814  0.00  0.00    +0.000 C 
ATOM     24  C   UNL     1      -1.109  11.214  22.565  0.00  0.00    +0.000 C 
BRANCH  24  25
ATOM     25  C   UNL     1       0.077  10.281  22.536  0.00  0.00    +0.000 C 
BRANCH  25  26
ATOM     26  O   UNL     1       0.243   9.668  23.817  0.00  0.00    +0.000 OA
ATOM     27  H   UNL     1      -0.454  10.023  24.398  0.00  0.00    +0.000 HD
ENDBRANCH  25  26
BRANCH  25  28
ATOM     28  C   UNL     1      -0.037   9.152  21.492  0.00  0.00    +0.000 C 
BRANCH  28  29
ATOM     29  C   UNL     1       1.090   9.123  20.452  0.00  0.00    +0.000 C 
BRANCH  29  30
ATOM     30  O   UNL     1       1.621   7.801  20.356  0.00  0.00    +0.000 OA
ATOM     31  H   UNL     1       1.414   7.446  19.471  0.00  0.00    +0.000 HD
ENDBRANCH  29  30
BRANCH  29  32
ATOM     32  C   UNL     1       0.651   9.557  19.056  0.00  0.00    +0.000 C 
BRANCH  32  33
ATOM     33  C   UNL     1       1.778   9.473  18.064  0.00  0.00    +0.000 C 
ATOM     34  O   UNL     1       2.383   8.440  17.817  0.00  0.00    +0.000 OA
BRANCH  33  35
ATOM     35  O   UNL     1       2.042  10.635  17.432  0.00  0.00    +0.000 OA
ATOM     36  H   UNL     1       1.261  11.198  17.267  0.00  0.00    +0.000 HD
ENDBRANCH  33  35
ENDBRANCH  32  33
ENDBRANCH  29  32
ENDBRANCH  28  29
ENDBRANCH  25  28
ENDBRANCH  24  25
ENDBRANCH   2  23
TORSDOF 12
ENDMDL
MODEL 7
REMARK VINA RESULT:      -6.3      2.047      3.291
REMARK  Name = 
REMARK  15 active torsions:
REMARK  status: ('A' for Active; 'I' for Inactive)
REMARK    1  A    between atoms: C_1  and  C_2
REMARK    2  A    between atoms: C_5  and  C_6
REMARK    3  A    between atoms: C_6  and  C_25
REMARK    4  A    between atoms: C_7  and  C_8
REMARK    5  A    between atoms: C_7  and  C_19
REMARK    6  A    between atoms: C_9  and  C_10
REMARK    7  A    between atoms: C_10  and  O_11
REMARK    8  A    between atoms: C_10  and  C_12
REMARK    9  A    between atoms: C_12  and  C_13
REMARK   10  A    between atoms: C_13  and  O_14
REMARK   11  A    between atoms: C_13  and  C_15
REMARK   12  A    between atoms: C_15  and  C_16
REMARK   13  A    between atoms: C_16  and  O_18
REMARK   14  A    between atoms: N_23  and  C_24
REMARK   15  A    between atoms: C_28  and  C_29
REMARK                            x       y       z     vdW  Elec       q    Type
REMARK                         _______ _______ _______ _____ _____    ______ ____
ROOT
ATOM      1  C   UNL     1       0.960  12.041  19.226  0.00  0.00    +0.000 C 
ATOM      2  C   UNL     1      -0.336  12.444  19.052  0.00  0.00    +0.000 C 
ENDROOT
BRANCH   1   7
ATOM      3  C   UNL     1       2.549   6.490  18.681  0.00  0.00    +0.000 C 
ATOM      4  C   UNL     1       2.102   7.916  18.812  0.00  0.00    +0.000 A 
ATOM      5  C   UNL     1       1.519   8.377  19.996  0.00  0.00    +0.000 A 
ATOM      6  C   UNL     1       1.118   9.709  20.118  0.00  0.00    +0.000 A 
ATOM      7  C   UNL     1       1.291  10.601  19.049  0.00  0.00    +0.000 A 
ATOM      8  C   UNL     1       1.846  10.134  17.852  0.00  0.00    +0.000 A 
ATOM      9  C   UNL     1       2.247   8.799  17.735  0.00  0.00    +0.000 A 
ENDBRANCH   1   7
BRANCH   1  10
ATOM     10  C   UNL     1       2.032  13.014  19.579  0.00  0.00    +0.000 A 
ATOM     11  C   UNL     1       2.835  13.591  18.589  0.00  0.00    +0.000 A 
ATOM     12  C   UNL     1       3.905  14.423  18.940  0.00  0.00    +0.000 A 
ATOM     13  C   UNL     1       4.194  14.675  20.287  0.00  0.00    +0.000 A 
ATOM     14  C   UNL     1       5.392  15.489  20.682  0.00  0.00    +0.000 C 
ATOM     15  C   UNL     1       3.341  14.164  21.270  0.00  0.00    +0.000 A 
ATOM     16  C   UNL     1       2.267  13.342  20.919  0.00  0.00    +0.000 A 
ENDBRANCH   1  10
BRANCH   2  17
ATOM     17  C   UNL     1      -0.676  13.825  19.216  0.00  0.00    +0.000 A 
ATOM     18  N   UNL     1      -0.400  14.878  18.469  0.00  0.00    +0.000 NA
ATOM     19  N   UNL     1      -0.891  15.972  19.139  0.00  0.00    +0.000 NA
ATOM     20  N   UNL     1      -1.448  15.617  20.286  0.00  0.00    +0.000 NA
ATOM     21  N   UNL     1      -1.322  14.279  20.340  0.00  0.00    +0.000 N 
ATOM     22  C   UNL     1      -1.811  13.562  21.485  0.00  0.00    +0.000 C 
ENDBRANCH   2  17
BRANCH   2  23
ATOM     23  C   UNL     1      -1.390  11.467  18.731  0.00  0.00    +0.000 C 
ATOM     24  C   UNL     1      -2.345  11.664  17.806  0.00  0.00    +0.000 C 
BRANCH  24  25
ATOM     25  C   UNL     1      -3.493  10.737  17.485  0.00  0.00    +0.000 C 
BRANCH  25  26
ATOM     26  O   UNL     1      -3.126   9.389  17.787  0.00  0.00    +0.000 OA
ATOM     27  H   UNL     1      -2.303   9.424  18.306  0.00  0.00    +0.000 HD
ENDBRANCH  25  26
BRANCH  25  28
ATOM     28  C   UNL     1      -4.789  11.051  18.258  0.00  0.00    +0.000 C 
BRANCH  28  29
ATOM     29  C   UNL     1      -4.808  12.419  18.951  0.00  0.00    +0.000 C 
BRANCH  29  30
ATOM     30  O   UNL     1      -5.616  13.327  18.200  0.00  0.00    +0.000 OA
ATOM     31  H   UNL     1      -6.389  13.575  18.740  0.00  0.00    +0.000 HD
ENDBRANCH  29  30
BRANCH  29  32
ATOM     32  C   UNL     1      -5.347  12.380  20.379  0.00  0.00    +0.000 C 
BRANCH  32  33
ATOM     33  C   UNL     1      -6.780  11.925  20.423  0.00  0.00    +0.000 C 
ATOM     34  O   UNL     1      -7.669  12.428  19.752  0.00  0.00    +0.000 OA
BRANCH  33  35
ATOM     35  O   UNL     1      -6.998  10.876  21.244  0.00  0.00    +0.000 OA
ATOM     36  H   UNL     1      -7.663  10.237  20.925  0.00  0.00    +0.000 HD
ENDBRANCH  33  35
ENDBRANCH  32  33
ENDBRANCH  29  32
ENDBRANCH  28  29
ENDBRANCH  25  28
ENDBRANCH  24  25
ENDBRANCH   2  23
TORSDOF 12
ENDMDL
MODEL 8
REMARK VINA RESULT:      -6.3      1.958      3.249
REMARK  Name = 
REMARK  15 active torsions:
REMARK  status: ('A' for Active; 'I' for Inactive)
REMARK    1  A    between atoms: C_1  and  C_2
REMARK    2  A    between atoms: C_5  and  C_6
REMARK    3  A    between atoms: C_6  and  C_25
REMARK    4  A    between atoms: C_7  and  C_8
REMARK    5  A    between atoms: C_7  and  C_19
REMARK    6  A    between atoms: C_9  and  C_10
REMARK    7  A    between atoms: C_10  and  O_11
REMARK    8  A    between atoms: C_10  and  C_12
REMARK    9  A    between atoms: C_12  and  C_13
REMARK   10  A    between atoms: C_13  and  O_14
REMARK   11  A    between atoms: C_13  and  C_15
REMARK   12  A    between atoms: C_15  and  C_16
REMARK   13  A    between atoms: C_16  and  O_18
REMARK   14  A    between atoms: N_23  and  C_24
REMARK   15  A    between atoms: C_28  and  C_29
REMARK                            x       y       z     vdW  Elec       q    Type
REMARK                         _______ _______ _______ _____ _____    ______ ____
ROOT
ATOM      1  C   UNL     1       1.117  12.157  19.178  0.00  0.00    +0.000 C 
ATOM      2  C   UNL     1      -0.162  12.623  19.038  0.00  0.00    +0.000 C 
ENDROOT
BRANCH   1   7
ATOM      3  C   UNL     1       2.387   6.511  18.787  0.00  0.00    +0.000 C 
ATOM      4  C   UNL     1       2.022   7.963  18.878  0.00  0.00    +0.000 A 
ATOM      5  C   UNL     1       1.491   8.494  20.058  0.00  0.00    +0.000 A 
ATOM      6  C   UNL     1       1.166   9.850  20.143  0.00  0.00    +0.000 A 
ATOM      7  C   UNL     1       1.365  10.696  19.042  0.00  0.00    +0.000 A 
ATOM      8  C   UNL     1       1.867  10.160  17.851  0.00  0.00    +0.000 A 
ATOM      9  C   UNL     1       2.191   8.802  17.770  0.00  0.00    +0.000 A 
ENDBRANCH   1   7
BRANCH   1  10
ATOM     10  C   UNL     1       2.251  13.082  19.452  0.00  0.00    +0.000 A 
ATOM     11  C   UNL     1       2.579  13.451  20.762  0.00  0.00    +0.000 A 
ATOM     12  C   UNL     1       3.579  14.401  21.002  0.00  0.00    +0.000 A 
ATOM     13  C   UNL     1       4.254  15.004  19.934  0.00  0.00    +0.000 A 
ATOM     14  C   UNL     1       5.264  16.090  20.171  0.00  0.00    +0.000 C 
ATOM     15  C   UNL     1       3.982  14.574  18.631  0.00  0.00    +0.000 A 
ATOM     16  C   UNL     1       2.990  13.619  18.392  0.00  0.00    +0.000 A 
ENDBRANCH   1  10
BRANCH   2  17
ATOM     17  C   UNL     1      -0.422  14.025  19.163  0.00  0.00    +0.000 A 
ATOM     18  N   UNL     1      -0.240  15.017  18.311  0.00  0.00    +0.000 NA
ATOM     19  N   UNL     1      -0.574  16.170  18.978  0.00  0.00    +0.000 NA
ATOM     20  N   UNL     1      -0.941  15.911  20.224  0.00  0.00    +0.000 NA
ATOM     21  N   UNL     1      -0.854  14.575  20.345  0.00  0.00    +0.000 N 
ATOM     22  C   UNL     1      -1.167  13.950  21.601  0.00  0.00    +0.000 C 
ENDBRANCH   2  17
BRANCH   2  23
ATOM     23  C   UNL     1      -1.277  11.693  18.795  0.00  0.00    +0.000 C 
ATOM     24  C   UNL     1      -2.133  11.794  17.763  0.00  0.00    +0.000 C 
BRANCH  24  25
ATOM     25  C   UNL     1      -3.337  10.921  17.502  0.00  0.00    +0.000 C 
BRANCH  25  26
ATOM     26  O   UNL     1      -2.927   9.558  17.364  0.00  0.00    +0.000 OA
ATOM     27  H   UNL     1      -2.056   9.563  16.927  0.00  0.00    +0.000 HD
ENDBRANCH  25  26
BRANCH  25  28
ATOM     28  C   UNL     1      -4.405  10.975  18.612  0.00  0.00    +0.000 C 
BRANCH  28  29
ATOM     29  C   UNL     1      -5.767  11.522  18.167  0.00  0.00    +0.000 C 
BRANCH  29  30
ATOM     30  O   UNL     1      -5.802  11.624  16.742  0.00  0.00    +0.000 OA
ATOM     31  H   UNL     1      -6.464  10.996  16.401  0.00  0.00    +0.000 HD
ENDBRANCH  29  30
BRANCH  29  32
ATOM     32  C   UNL     1      -6.949  10.661  18.606  0.00  0.00    +0.000 C 
BRANCH  32  33
ATOM     33  C   UNL     1      -7.228  10.802  20.077  0.00  0.00    +0.000 C 
ATOM     34  O   UNL     1      -7.397  11.877  20.631  0.00  0.00    +0.000 OA
BRANCH  33  35
ATOM     35  O   UNL     1      -7.316   9.626  20.734  0.00  0.00    +0.000 OA
ATOM     36  H   UNL     1      -6.622   8.978  20.509  0.00  0.00    +0.000 HD
ENDBRANCH  33  35
ENDBRANCH  32  33
ENDBRANCH  29  32
ENDBRANCH  28  29
ENDBRANCH  25  28
ENDBRANCH  24  25
ENDBRANCH   2  23
TORSDOF 12
ENDMDL
MODEL 9
REMARK VINA RESULT:      -6.3      4.113      7.153
REMARK  Name = 
REMARK  15 active torsions:
REMARK  status: ('A' for Active; 'I' for Inactive)
REMARK    1  A    between atoms: C_1  and  C_2
REMARK    2  A    between atoms: C_5  and  C_6
REMARK    3  A    between atoms: C_6  and  C_25
REMARK    4  A    between atoms: C_7  and  C_8
REMARK    5  A    between atoms: C_7  and  C_19
REMARK    6  A    between atoms: C_9  and  C_10
REMARK    7  A    between atoms: C_10  and  O_11
REMARK    8  A    between atoms: C_10  and  C_12
REMARK    9  A    between atoms: C_12  and  C_13
REMARK   10  A    between atoms: C_13  and  O_14
REMARK   11  A    between atoms: C_13  and  C_15
REMARK   12  A    between atoms: C_15  and  C_16
REMARK   13  A    between atoms: C_16  and  O_18
REMARK   14  A    between atoms: N_23  and  C_24
REMARK   15  A    between atoms: C_28  and  C_29
REMARK                            x       y       z     vdW  Elec       q    Type
REMARK                         _______ _______ _______ _____ _____    ______ ____
ROOT
ATOM      1  C   UNL     1      -1.809  12.770  22.473  0.00  0.00    +0.000 C 
ATOM      2  C   UNL     1      -1.132  13.959  22.463  0.00  0.00    +0.000 C 
ENDROOT
BRANCH   1   7
ATOM      3  C   UNL     1       0.770   7.764  21.088  0.00  0.00    +0.000 C 
ATOM      4  C   UNL     1       0.137   9.076  21.447  0.00  0.00    +0.000 A 
ATOM      5  C   UNL     1      -0.191  10.006  20.456  0.00  0.00    +0.000 A 
ATOM      6  C   UNL     1      -0.793  11.220  20.794  0.00  0.00    +0.000 A 
ATOM      7  C   UNL     1      -1.072  11.524  22.135  0.00  0.00    +0.000 A 
ATOM      8  C   UNL     1      -0.715  10.606  23.131  0.00  0.00    +0.000 A 
ATOM      9  C   UNL     1      -0.113   9.392  22.788  0.00  0.00    +0.000 A 
ENDBRANCH   1   7
BRANCH   1  10
ATOM     10  C   UNL     1      -3.256  12.708  22.823  0.00  0.00    +0.000 A 
ATOM     11  C   UNL     1      -4.242  12.892  21.846  0.00  0.00    +0.000 A 
ATOM     12  C   UNL     1      -5.595  12.935  22.203  0.00  0.00    +0.000 A 
ATOM     13  C   UNL     1      -5.978  12.808  23.544  0.00  0.00    +0.000 A 
ATOM     14  C   UNL     1      -7.416  12.943  23.954  0.00  0.00    +0.000 C 
ATOM     15  C   UNL     1      -4.999  12.541  24.506  0.00  0.00    +0.000 A 
ATOM     16  C   UNL     1      -3.649  12.490  24.148  0.00  0.00    +0.000 A 
ENDBRANCH   1  10
BRANCH   2  17
ATOM     17  C   UNL     1      -1.823  15.170  22.787  0.00  0.00    +0.000 A 
ATOM     18  N   UNL     1      -2.164  15.685  23.954  0.00  0.00    +0.000 NA
ATOM     19  N   UNL     1      -2.890  16.819  23.683  0.00  0.00    +0.000 NA
ATOM     20  N   UNL     1      -3.015  17.004  22.378  0.00  0.00    +0.000 NA
ATOM     21  N   UNL     1      -2.348  15.983  21.812  0.00  0.00    +0.000 N 
ATOM     22  C   UNL     1      -2.302  15.867  20.380  0.00  0.00    +0.000 C 
ENDBRANCH   2  17
BRANCH   2  23
ATOM     23  C   UNL     1       0.291  14.009  22.088  0.00  0.00    +0.000 C 
ATOM     24  C   UNL     1       1.088  15.073  22.289  0.00  0.00    +0.000 C 
BRANCH  24  25
ATOM     25  C   UNL     1       2.529  15.213  21.862  0.00  0.00    +0.000 C 
BRANCH  25  26
ATOM     26  O   UNL     1       3.388  15.065  22.995  0.00  0.00    +0.000 OA
ATOM     27  H   UNL     1       4.166  14.558  22.700  0.00  0.00    +0.000 HD
ENDBRANCH  25  26
BRANCH  25  28
ATOM     28  C   UNL     1       2.972  14.184  20.803  0.00  0.00    +0.000 C 
BRANCH  28  29
ATOM     29  C   UNL     1       3.090  14.739  19.378  0.00  0.00    +0.000 C 
BRANCH  29  30
ATOM     30  O   UNL     1       4.313  15.465  19.244  0.00  0.00    +0.000 OA
ATOM     31  H   UNL     1       4.171  16.202  18.621  0.00  0.00    +0.000 HD
ENDBRANCH  29  30
BRANCH  29  32
ATOM     32  C   UNL     1       3.060  13.664  18.294  0.00  0.00    +0.000 C 
BRANCH  32  33
ATOM     33  C   UNL     1       1.756  12.915  18.285  0.00  0.00    +0.000 C 
ATOM     34  O   UNL     1       0.667  13.455  18.419  0.00  0.00    +0.000 OA
BRANCH  33  35
ATOM     35  O   UNL     1       1.885  11.589  18.074  0.00  0.00    +0.000 OA
ATOM     36  H   UNL     1       2.769  11.307  17.770  0.00  0.00    +0.000 HD
ENDBRANCH  33  35
ENDBRANCH  32  33
ENDBRANCH  29  32
ENDBRANCH  28  29
ENDBRANCH  25  28
ENDBRANCH  24  25
ENDBRANCH   2  23
TORSDOF 12
ENDMDL
