MODEL 1
REMARK VINA RESULT:      -8.0      0.000      0.000
REMARK  Name = 
REMARK  3 active torsions:
REMARK  status: ('A' for Active; 'I' for Inactive)
REMARK    1  A    between atoms: C_1  and  N_2
REMARK    2  A    between atoms: N_16  and  C_17
REMARK    3  A    between atoms: C_17  and  C_18
REMARK                            x       y       z     vdW  Elec       q    Type
REMARK                         _______ _______ _______ _____ _____    ______ ____
ROOT
ATOM      1  C   UNL     1      -2.536  11.755  18.370  0.00  0.00    +0.000 C 
ATOM      2  N   UNL     1      -2.794  12.048  19.778  0.00  0.00    +0.000 N 
ATOM      3  C   UNL     1      -4.111  12.373  20.135  0.00  0.00    +0.000 A 
ATOM      4  C   UNL     1      -5.204  12.149  19.278  0.00  0.00    +0.000 A 
ATOM      5  C   UNL     1      -6.520  12.423  19.661  0.00  0.00    +0.000 A 
ATOM      6  C   UNL     1      -6.781  12.944  20.920  0.00  0.00    +0.000 A 
ATOM      7  C   UNL     1      -5.728  13.157  21.802  0.00  0.00    +0.000 A 
ATOM      8  C   UNL     1      -4.413  12.856  21.417  0.00  0.00    +0.000 A 
ATOM      9  C   UNL     1      -3.350  12.856  22.442  0.00  0.00    +0.000 C 
ATOM     10  O   UNL     1      -3.622  13.097  23.615  0.00  0.00    +0.000 OA
ATOM     11  N   UNL     1      -2.110  12.443  22.010  0.00  0.00    +0.000 N 
ATOM     12  C   UNL     1      -1.203  11.800  22.972  0.00  0.00    +0.000 C 
ATOM     13  C   UNL     1      -0.646  10.487  22.393  0.00  0.00    +0.000 C 
ATOM     14  C   UNL     1       0.006  10.820  21.100  0.00  0.00    +0.000 A 
ATOM     15  C   UNL     1      -0.390  11.937  20.389  0.00  0.00    +0.000 A 
ATOM     16  N   UNL     1       0.517  12.117  19.362  0.00  0.00    +0.000 N 
ATOM     17  C   UNL     1       1.126  10.879  19.138  0.00  0.00    +0.000 A 
ATOM     18  C   UNL     1       1.869  10.384  18.052  0.00  0.00    +0.000 A 
ATOM     19  C   UNL     1       2.178   9.016  18.032  0.00  0.00    +0.000 A 
ATOM     20  C   UNL     1       1.813   8.177  19.080  0.00  0.00    +0.000 A 
ATOM     21  C   UNL     1       1.153   8.690  20.197  0.00  0.00    +0.000 A 
ATOM     22  C   UNL     1       0.790  10.050  20.218  0.00  0.00    +0.000 A 
ATOM     23  C   UNL     1      -1.715  12.629  20.606  0.00  0.00    +0.000 C 
ENDROOT
BRANCH  16  24
ATOM     24  C   UNL     1       0.491  13.217  18.396  0.00  0.00    +0.000 C 
BRANCH  24  25
ATOM     25  C   UNL     1       1.569  14.261  18.562  0.00  0.00    +0.000 A 
ATOM     26  C   UNL     1       1.221  15.587  18.889  0.00  0.00    +0.000 A 
ATOM     27  C   UNL     1       2.174  16.611  18.863  0.00  0.00    +0.000 A 
ATOM     28  C   UNL     1       3.487  16.325  18.510  0.00  0.00    +0.000 A 
ATOM     29  C   UNL     1       3.852  15.010  18.213  0.00  0.00    +0.000 A 
ATOM     30 CL   UNL     1       5.474  14.663  17.752  0.00  0.00    +0.000 Cl
ATOM     31  C   UNL     1       2.906  13.980  18.242  0.00  0.00    +0.000 A 
ENDBRANCH  24  25
ENDBRANCH  16  24
TORSDOF 2
ENDMDL
MODEL 2
REMARK VINA RESULT:      -7.8      2.539      5.970
REMARK  Name = 
REMARK  3 active torsions:
REMARK  status: ('A' for Active; 'I' for Inactive)
REMARK    1  A    between atoms: C_1  and  N_2
REMARK    2  A    between atoms: N_16  and  C_17
REMARK    3  A    between atoms: C_17  and  C_18
REMARK                            x       y       z     vdW  Elec       q    Type
REMARK                         _______ _______ _______ _____ _____    ______ ____
ROOT
ATOM      1  C   UNL     1       0.910  13.798  18.189  0.00  0.00    +0.000 C 
ATOM      2  N   UNL     1       0.602  14.160  19.571  0.00  0.00    +0.000 N 
ATOM      3  C   UNL     1       1.145  15.359  20.056  0.00  0.00    +0.000 A 
ATOM      4  C   UNL     1       1.707  16.332  19.210  0.00  0.00    +0.000 A 
ATOM      5  C   UNL     1       2.196  17.548  19.694  0.00  0.00    +0.000 A 
ATOM      6  C   UNL     1       2.145  17.824  21.052  0.00  0.00    +0.000 A 
ATOM      7  C   UNL     1       1.575  16.896  21.916  0.00  0.00    +0.000 A 
ATOM      8  C   UNL     1       1.065  15.688  21.418  0.00  0.00    +0.000 A 
ATOM      9  C   UNL     1       0.252  14.834  22.306  0.00  0.00    +0.000 C 
ATOM     10  O   UNL     1       0.011  15.191  23.456  0.00  0.00    +0.000 OA
ATOM     11  N   UNL     1      -0.305  13.723  21.713  0.00  0.00    +0.000 N 
ATOM     12  C   UNL     1      -1.572  13.199  22.243  0.00  0.00    +0.000 C 
ATOM     13  C   UNL     1      -2.583  12.977  21.104  0.00  0.00    +0.000 C 
ATOM     14  C   UNL     1      -1.938  12.074  20.115  0.00  0.00    +0.000 A 
ATOM     15  C   UNL     1      -0.560  12.014  20.025  0.00  0.00    +0.000 A 
ATOM     16  N   UNL     1      -0.246  10.954  19.194  0.00  0.00    +0.000 N 
ATOM     17  C   UNL     1      -1.372  10.714  18.401  0.00  0.00    +0.000 A 
ATOM     18  C   UNL     1      -1.538  10.000  17.201  0.00  0.00    +0.000 A 
ATOM     19  C   UNL     1      -2.764  10.111  16.530  0.00  0.00    +0.000 A 
ATOM     20  C   UNL     1      -3.813  10.858  17.059  0.00  0.00    +0.000 A 
ATOM     21  C   UNL     1      -3.674  11.492  18.295  0.00  0.00    +0.000 A 
ATOM     22  C   UNL     1      -2.437  11.434  18.963  0.00  0.00    +0.000 A 
ATOM     23  C   UNL     1       0.353  13.090  20.561  0.00  0.00    +0.000 C 
ENDROOT
BRANCH  16  24
ATOM     24  C   UNL     1       1.110  10.511  18.866  0.00  0.00    +0.000 C 
BRANCH  24  25
ATOM     25  C   UNL     1       1.428   9.072  19.194  0.00  0.00    +0.000 A 
ATOM     26  C   UNL     1       1.133   8.559  20.472  0.00  0.00    +0.000 A 
ATOM     27  C   UNL     1       1.585   7.295  20.864  0.00  0.00    +0.000 A 
ATOM     28  C   UNL     1       2.337   6.525  19.986  0.00  0.00    +0.000 A 
ATOM     29  C   UNL     1       2.611   7.009  18.704  0.00  0.00    +0.000 A 
ATOM     30 CL   UNL     1       3.564   6.064  17.626  0.00  0.00    +0.000 Cl
ATOM     31  C   UNL     1       2.158   8.270  18.303  0.00  0.00    +0.000 A 
ENDBRANCH  24  25
ENDBRANCH  16  24
TORSDOF 2
ENDMDL
MODEL 3
REMARK VINA RESULT:      -7.8      3.062      6.707
REMARK  Name = 
REMARK  3 active torsions:
REMARK  status: ('A' for Active; 'I' for Inactive)
REMARK    1  A    between atoms: C_1  and  N_2
REMARK    2  A    between atoms: N_16  and  C_17
REMARK    3  A    between atoms: C_17  and  C_18
REMARK                            x       y       z     vdW  Elec       q    Type
REMARK                         _______ _______ _______ _____ _____    ______ ____
ROOT
ATOM      1  C   UNL     1       1.965  13.042  17.549  0.00  0.00    +0.000 C 
ATOM      2  N   UNL     1       1.936  13.582  18.906  0.00  0.00    +0.000 N 
ATOM      3  C   UNL     1       2.751  14.691  19.173  0.00  0.00    +0.000 A 
ATOM      4  C   UNL     1       3.349  15.454  18.154  0.00  0.00    +0.000 A 
ATOM      5  C   UNL     1       4.116  16.591  18.424  0.00  0.00    +0.000 A 
ATOM      6  C   UNL     1       4.316  16.994  19.736  0.00  0.00    +0.000 A 
ATOM      7  C   UNL     1       3.722  16.278  20.769  0.00  0.00    +0.000 A 
ATOM      8  C   UNL     1       2.935  15.152  20.486  0.00  0.00    +0.000 A 
ATOM      9  C   UNL     1       2.121  14.559  21.565  0.00  0.00    +0.000 C 
ATOM     10  O   UNL     1       2.122  15.059  22.686  0.00  0.00    +0.000 OA
ATOM     11  N   UNL     1       1.292  13.528  21.184  0.00  0.00    +0.000 N 
ATOM     12  C   UNL     1       0.043  13.312  21.929  0.00  0.00    +0.000 C 
ATOM     13  C   UNL     1      -1.148  13.189  20.962  0.00  0.00    +0.000 C 
ATOM     14  C   UNL     1      -0.831  12.091  20.012  0.00  0.00    +0.000 A 
ATOM     15  C   UNL     1       0.485  11.754  19.755  0.00  0.00    +0.000 A 
ATOM     16  N   UNL     1       0.476  10.583  19.022  0.00  0.00    +0.000 N 
ATOM     17  C   UNL     1      -0.779  10.495  18.413  0.00  0.00    +0.000 A 
ATOM     18  C   UNL     1      -1.246   9.721  17.336  0.00  0.00    +0.000 A 
ATOM     19  C   UNL     1      -2.518  10.007  16.820  0.00  0.00    +0.000 A 
ATOM     20  C   UNL     1      -3.324  10.990  17.386  0.00  0.00    +0.000 A 
ATOM     21  C   UNL     1      -2.893  11.695  18.510  0.00  0.00    +0.000 A 
ATOM     22  C   UNL     1      -1.601  11.458  19.018  0.00  0.00    +0.000 A 
ATOM     23  C   UNL     1       1.647  12.677  20.040  0.00  0.00    +0.000 C 
ENDROOT
BRANCH  16  24
ATOM     24  C   UNL     1       1.667   9.855  18.578  0.00  0.00    +0.000 C 
BRANCH  24  25
ATOM     25  C   UNL     1       1.758   8.414  19.019  0.00  0.00    +0.000 A 
ATOM     26  C   UNL     1       1.415   8.059  20.338  0.00  0.00    +0.000 A 
ATOM     27  C   UNL     1       1.668   6.773  20.829  0.00  0.00    +0.000 A 
ATOM     28  C   UNL     1       2.268   5.826  20.009  0.00  0.00    +0.000 A 
ATOM     29  C   UNL     1       2.587   6.156  18.689  0.00  0.00    +0.000 A 
ATOM     30 CL   UNL     1       3.352   4.987  17.683  0.00  0.00    +0.000 Cl
ATOM     31  C   UNL     1       2.331   7.437  18.190  0.00  0.00    +0.000 A 
ENDBRANCH  24  25
ENDBRANCH  16  24
TORSDOF 2
ENDMDL
MODEL 4
REMARK VINA RESULT:      -7.7      1.217      1.714
REMARK  Name = 
REMARK  3 active torsions:
REMARK  status: ('A' for Active; 'I' for Inactive)
REMARK    1  A    between atoms: C_1  and  N_2
REMARK    2  A    between atoms: N_16  and  C_17
REMARK    3  A    between atoms: C_17  and  C_18
REMARK                            x       y       z     vdW  Elec       q    Type
REMARK                         _______ _______ _______ _____ _____    ______ ____
ROOT
ATOM      1  C   UNL     1      -3.286  11.513  18.588  0.00  0.00    +0.000 C 
ATOM      2  N   UNL     1      -3.796  12.339  19.681  0.00  0.00    +0.000 N 
ATOM      3  C   UNL     1      -5.126  12.773  19.590  0.00  0.00    +0.000 A 
ATOM      4  C   UNL     1      -6.041  12.224  18.673  0.00  0.00    +0.000 A 
ATOM      5  C   UNL     1      -7.380  12.622  18.625  0.00  0.00    +0.000 A 
ATOM      6  C   UNL     1      -7.843  13.597  19.495  0.00  0.00    +0.000 A 
ATOM      7  C   UNL     1      -6.974  14.147  20.431  0.00  0.00    +0.000 A 
ATOM      8  C   UNL     1      -5.638  13.723  20.487  0.00  0.00    +0.000 A 
ATOM      9  C   UNL     1      -4.805  14.134  21.635  0.00  0.00    +0.000 C 
ATOM     10  O   UNL     1      -5.286  14.819  22.533  0.00  0.00    +0.000 OA
ATOM     11  N   UNL     1      -3.542  13.589  21.675  0.00  0.00    +0.000 N 
ATOM     12  C   UNL     1      -2.902  13.383  22.982  0.00  0.00    +0.000 C 
ATOM     13  C   UNL     1      -2.350  11.951  23.094  0.00  0.00    +0.000 C 
ATOM     14  C   UNL     1      -1.427  11.746  21.947  0.00  0.00    +0.000 A 
ATOM     15  C   UNL     1      -1.580  12.489  20.791  0.00  0.00    +0.000 A 
ATOM     16  N   UNL     1      -0.475  12.251  19.997  0.00  0.00    +0.000 N 
ATOM     17  C   UNL     1       0.063  11.028  20.407  0.00  0.00    +0.000 A 
ATOM     18  C   UNL     1       0.966  10.146  19.787  0.00  0.00    +0.000 A 
ATOM     19  C   UNL     1       1.159   8.884  20.366  0.00  0.00    +0.000 A 
ATOM     20  C   UNL     1       0.524   8.527  21.552  0.00  0.00    +0.000 A 
ATOM     21  C   UNL     1      -0.302   9.438  22.211  0.00  0.00    +0.000 A 
ATOM     22  C   UNL     1      -0.548  10.693  21.625  0.00  0.00    +0.000 A 
ATOM     23  C   UNL     1      -2.861  13.205  20.431  0.00  0.00    +0.000 C 
ENDROOT
BRANCH  16  24
ATOM     24  C   UNL     1      -0.216  12.878  18.699  0.00  0.00    +0.000 C 
BRANCH  24  25
ATOM     25  C   UNL     1       0.728  14.056  18.716  0.00  0.00    +0.000 A 
ATOM     26  C   UNL     1       0.222  15.363  18.860  0.00  0.00    +0.000 A 
ATOM     27  C   UNL     1       1.047  16.479  18.690  0.00  0.00    +0.000 A 
ATOM     28  C   UNL     1       2.389  16.307  18.374  0.00  0.00    +0.000 A 
ATOM     29  C   UNL     1       2.911  15.016  18.257  0.00  0.00    +0.000 A 
ATOM     30 CL   UNL     1       4.568  14.805  17.841  0.00  0.00    +0.000 Cl
ATOM     31  C   UNL     1       2.093  13.895  18.432  0.00  0.00    +0.000 A 
ENDBRANCH  24  25
ENDBRANCH  16  24
TORSDOF 2
ENDMDL
MODEL 5
REMARK VINA RESULT:      -7.7      0.992      1.312
REMARK  Name = 
REMARK  3 active torsions:
REMARK  status: ('A' for Active; 'I' for Inactive)
REMARK    1  A    between atoms: C_1  and  N_2
REMARK    2  A    between atoms: N_16  and  C_17
REMARK    3  A    between atoms: C_17  and  C_18
REMARK                            x       y       z     vdW  Elec       q    Type
REMARK                         _______ _______ _______ _____ _____    ______ ____
ROOT
ATOM      1  C   UNL     1      -2.507  11.769  18.374  0.00  0.00    +0.000 C 
ATOM      2  N   UNL     1      -2.766  12.030  19.788  0.00  0.00    +0.000 N 
ATOM      3  C   UNL     1      -4.083  12.342  20.152  0.00  0.00    +0.000 A 
ATOM      4  C   UNL     1      -5.176  12.133  19.291  0.00  0.00    +0.000 A 
ATOM      5  C   UNL     1      -6.493  12.393  19.680  0.00  0.00    +0.000 A 
ATOM      6  C   UNL     1      -6.755  12.885  20.951  0.00  0.00    +0.000 A 
ATOM      7  C   UNL     1      -5.702  13.082  21.837  0.00  0.00    +0.000 A 
ATOM      8  C   UNL     1      -4.387  12.795  21.445  0.00  0.00    +0.000 A 
ATOM      9  C   UNL     1      -3.323  12.777  22.469  0.00  0.00    +0.000 C 
ATOM     10  O   UNL     1      -3.596  12.991  23.647  0.00  0.00    +0.000 OA
ATOM     11  N   UNL     1      -2.082  12.378  22.027  0.00  0.00    +0.000 N 
ATOM     12  C   UNL     1      -1.173  11.717  22.974  0.00  0.00    +0.000 C 
ATOM     13  C   UNL     1      -0.610  10.419  22.367  0.00  0.00    +0.000 C 
ATOM     14  C   UNL     1       0.040  10.783  21.081  0.00  0.00    +0.000 A 
ATOM     15  C   UNL     1      -0.361  11.914  20.395  0.00  0.00    +0.000 A 
ATOM     16  N   UNL     1       0.545  12.120  19.372  0.00  0.00    +0.000 N 
ATOM     17  C   UNL     1       1.158  10.890  19.120  0.00  0.00    +0.000 A 
ATOM     18  C   UNL     1       1.903  10.422  18.023  0.00  0.00    +0.000 A 
ATOM     19  C   UNL     1       2.217   9.056  17.973  0.00  0.00    +0.000 A 
ATOM     20  C   UNL     1       1.855   8.192  19.003  0.00  0.00    +0.000 A 
ATOM     21  C   UNL     1       1.194   8.678  20.131  0.00  0.00    +0.000 A 
ATOM     22  C   UNL     1       0.826  10.036  20.182  0.00  0.00    +0.000 A 
ATOM     23  C   UNL     1      -1.688  12.597  20.628  0.00  0.00    +0.000 C 
ENDROOT
BRANCH  16  24
ATOM     24  C   UNL     1       0.514  13.241  18.430  0.00  0.00    +0.000 C 
BRANCH  24  25
ATOM     25  C   UNL     1       1.599  14.276  18.607  0.00  0.00    +0.000 A 
ATOM     26  C   UNL     1       2.923  13.981  18.227  0.00  0.00    +0.000 A 
ATOM     27  C   UNL     1       3.977  14.842  18.551  0.00  0.00    +0.000 A 
ATOM     28  C   UNL     1       3.723  16.010  19.259  0.00  0.00    +0.000 A 
ATOM     29  C   UNL     1       2.410  16.331  19.616  0.00  0.00    +0.000 A 
ATOM     30 CL   UNL     1       2.102  17.766  20.515  0.00  0.00    +0.000 Cl
ATOM     31  C   UNL     1       1.352  15.477  19.290  0.00  0.00    +0.000 A 
ENDBRANCH  24  25
ENDBRANCH  16  24
TORSDOF 2
ENDMDL
MODEL 6
REMARK VINA RESULT:      -7.7      2.428      5.672
REMARK  Name = 
REMARK  3 active torsions:
REMARK  status: ('A' for Active; 'I' for Inactive)
REMARK    1  A    between atoms: C_1  and  N_2
REMARK    2  A    between atoms: N_16  and  C_17
REMARK    3  A    between atoms: C_17  and  C_18
REMARK                            x       y       z     vdW  Elec       q    Type
REMARK                         _______ _______ _______ _____ _____    ______ ____
ROOT
ATOM      1  C   UNL     1      -0.005  14.349  18.598  0.00  0.00    +0.000 C 
ATOM      2  N   UNL     1      -0.295  14.422  20.028  0.00  0.00    +0.000 N 
ATOM      3  C   UNL     1       0.208  15.528  20.729  0.00  0.00    +0.000 A 
ATOM      4  C   UNL     1       0.709  16.671  20.081  0.00  0.00    +0.000 A 
ATOM      5  C   UNL     1       1.158  17.792  20.785  0.00  0.00    +0.000 A 
ATOM      6  C   UNL     1       1.126  17.796  22.172  0.00  0.00    +0.000 A 
ATOM      7  C   UNL     1       0.616  16.693  22.847  0.00  0.00    +0.000 A 
ATOM      8  C   UNL     1       0.146  15.583  22.130  0.00  0.00    +0.000 A 
ATOM      9  C   UNL     1      -0.610  14.536  22.847  0.00  0.00    +0.000 C 
ATOM     10  O   UNL     1      -0.838  14.652  24.048  0.00  0.00    +0.000 OA
ATOM     11  N   UNL     1      -1.133  13.537  22.058  0.00  0.00    +0.000 N 
ATOM     12  C   UNL     1      -2.364  12.863  22.493  0.00  0.00    +0.000 C 
ATOM     13  C   UNL     1      -3.391  12.820  21.348  0.00  0.00    +0.000 C 
ATOM     14  C   UNL     1      -2.732  12.157  20.192  0.00  0.00    +0.000 A 
ATOM     15  C   UNL     1      -1.356  12.178  20.072  0.00  0.00    +0.000 A 
ATOM     16  N   UNL     1      -1.017  11.315  19.047  0.00  0.00    +0.000 N 
ATOM     17  C   UNL     1      -2.149  11.182  18.239  0.00  0.00    +0.000 A 
ATOM     18  C   UNL     1      -2.313  10.708  16.925  0.00  0.00    +0.000 A 
ATOM     19  C   UNL     1      -3.558  10.891  16.307  0.00  0.00    +0.000 A 
ATOM     20  C   UNL     1      -4.624  11.472  16.986  0.00  0.00    +0.000 A 
ATOM     21  C   UNL     1      -4.484  11.860  18.319  0.00  0.00    +0.000 A 
ATOM     22  C   UNL     1      -3.230  11.730  18.946  0.00  0.00    +0.000 A 
ATOM     23  C   UNL     1      -0.476  13.171  20.795  0.00  0.00    +0.000 C 
ENDROOT
BRANCH  16  24
ATOM     24  C   UNL     1       0.349  11.007  18.619  0.00  0.00    +0.000 C 
BRANCH  24  25
ATOM     25  C   UNL     1       0.884   9.662  19.049  0.00  0.00    +0.000 A 
ATOM     26  C   UNL     1       0.711   9.227  20.378  0.00  0.00    +0.000 A 
ATOM     27  C   UNL     1       1.355   8.080  20.852  0.00  0.00    +0.000 A 
ATOM     28  C   UNL     1       2.180   7.350  20.005  0.00  0.00    +0.000 A 
ATOM     29  C   UNL     1       2.336   7.752  18.676  0.00  0.00    +0.000 A 
ATOM     30 CL   UNL     1       3.378   6.860  17.636  0.00  0.00    +0.000 Cl
ATOM     31  C   UNL     1       1.691   8.896  18.194  0.00  0.00    +0.000 A 
ENDBRANCH  24  25
ENDBRANCH  16  24
TORSDOF 2
ENDMDL
MODEL 7
REMARK VINA RESULT:      -7.6      1.471      2.058
REMARK  Name = 
REMARK  3 active torsions:
REMARK  status: ('A' for Active; 'I' for Inactive)
REMARK    1  A    between atoms: C_1  and  N_2
REMARK    2  A    between atoms: N_16  and  C_17
REMARK    3  A    between atoms: C_17  and  C_18
REMARK                            x       y       z     vdW  Elec       q    Type
REMARK                         _______ _______ _______ _____ _____    ______ ____
ROOT
ATOM      1  C   UNL     1      -3.266  11.447  18.600  0.00  0.00    +0.000 C 
ATOM      2  N   UNL     1      -3.751  12.291  19.690  0.00  0.00    +0.000 N 
ATOM      3  C   UNL     1      -5.078  12.736  19.615  0.00  0.00    +0.000 A 
ATOM      4  C   UNL     1      -6.012  12.183  18.719  0.00  0.00    +0.000 A 
ATOM      5  C   UNL     1      -7.348  12.593  18.687  0.00  0.00    +0.000 A 
ATOM      6  C   UNL     1      -7.789  13.583  19.552  0.00  0.00    +0.000 A 
ATOM      7  C   UNL     1      -6.901  14.136  20.468  0.00  0.00    +0.000 A 
ATOM      8  C   UNL     1      -5.568  13.701  20.508  0.00  0.00    +0.000 A 
ATOM      9  C   UNL     1      -4.713  14.119  21.637  0.00  0.00    +0.000 C 
ATOM     10  O   UNL     1      -5.174  14.818  22.535  0.00  0.00    +0.000 OA
ATOM     11  N   UNL     1      -3.454  13.562  21.665  0.00  0.00    +0.000 N 
ATOM     12  C   UNL     1      -2.796  13.367  22.964  0.00  0.00    +0.000 C 
ATOM     13  C   UNL     1      -2.254  11.931  23.085  0.00  0.00    +0.000 C 
ATOM     14  C   UNL     1      -1.352  11.704  21.926  0.00  0.00    +0.000 A 
ATOM     15  C   UNL     1      -1.517  12.434  20.764  0.00  0.00    +0.000 A 
ATOM     16  N   UNL     1      -0.426  12.176  19.955  0.00  0.00    +0.000 N 
ATOM     17  C   UNL     1       0.108  10.953  20.372  0.00  0.00    +0.000 A 
ATOM     18  C   UNL     1       0.992  10.056  19.749  0.00  0.00    +0.000 A 
ATOM     19  C   UNL     1       1.184   8.799  20.341  0.00  0.00    +0.000 A 
ATOM     20  C   UNL     1       0.564   8.462  21.540  0.00  0.00    +0.000 A 
ATOM     21  C   UNL     1      -0.243   9.389  22.201  0.00  0.00    +0.000 A 
ATOM     22  C   UNL     1      -0.488  10.639  21.603  0.00  0.00    +0.000 A 
ATOM     23  C   UNL     1      -2.796  13.157  20.415  0.00  0.00    +0.000 C 
ENDROOT
BRANCH  16  24
ATOM     24  C   UNL     1      -0.182  12.785  18.646  0.00  0.00    +0.000 C 
BRANCH  24  25
ATOM     25  C   UNL     1       0.997  13.724  18.568  0.00  0.00    +0.000 A 
ATOM     26  C   UNL     1       2.271  13.229  18.227  0.00  0.00    +0.000 A 
ATOM     27  C   UNL     1       3.410  14.034  18.331  0.00  0.00    +0.000 A 
ATOM     28  C   UNL     1       3.293  15.344  18.778  0.00  0.00    +0.000 A 
ATOM     29  C   UNL     1       2.032  15.858  19.091  0.00  0.00    +0.000 A 
ATOM     30 CL   UNL     1       1.893  17.474  19.667  0.00  0.00    +0.000 Cl
ATOM     31  C   UNL     1       0.888  15.060  18.983  0.00  0.00    +0.000 A 
ENDBRANCH  24  25
ENDBRANCH  16  24
TORSDOF 2
ENDMDL
MODEL 8
REMARK VINA RESULT:      -7.6      1.017      1.162
REMARK  Name = 
REMARK  3 active torsions:
REMARK  status: ('A' for Active; 'I' for Inactive)
REMARK    1  A    between atoms: C_1  and  N_2
REMARK    2  A    between atoms: N_16  and  C_17
REMARK    3  A    between atoms: C_17  and  C_18
REMARK                            x       y       z     vdW  Elec       q    Type
REMARK                         _______ _______ _______ _____ _____    ______ ____
ROOT
ATOM      1  C   UNL     1      -2.199  11.885  18.396  0.00  0.00    +0.000 C 
ATOM      2  N   UNL     1      -2.488  12.010  19.823  0.00  0.00    +0.000 N 
ATOM      3  C   UNL     1      -3.794  12.367  20.184  0.00  0.00    +0.000 A 
ATOM      4  C   UNL     1      -4.869  12.326  19.277  0.00  0.00    +0.000 A 
ATOM      5  C   UNL     1      -6.179  12.630  19.657  0.00  0.00    +0.000 A 
ATOM      6  C   UNL     1      -6.452  12.998  20.966  0.00  0.00    +0.000 A 
ATOM      7  C   UNL     1      -5.419  13.029  21.896  0.00  0.00    +0.000 A 
ATOM      8  C   UNL     1      -4.111  12.698  21.510  0.00  0.00    +0.000 A 
ATOM      9  C   UNL     1      -3.086  12.500  22.554  0.00  0.00    +0.000 C 
ATOM     10  O   UNL     1      -3.384  12.603  23.741  0.00  0.00    +0.000 OA
ATOM     11  N   UNL     1      -1.859  12.069  22.104  0.00  0.00    +0.000 N 
ATOM     12  C   UNL     1      -1.025  11.251  22.997  0.00  0.00    +0.000 C 
ATOM     13  C   UNL     1      -0.526   9.991  22.267  0.00  0.00    +0.000 C 
ATOM     14  C   UNL     1       0.188  10.447  21.046  0.00  0.00    +0.000 A 
ATOM     15  C   UNL     1      -0.117  11.669  20.478  0.00  0.00    +0.000 A 
ATOM     16  N   UNL     1       0.834  11.924  19.507  0.00  0.00    +0.000 N 
ATOM     17  C   UNL     1       1.376  10.689  19.139  0.00  0.00    +0.000 A 
ATOM     18  C   UNL     1       2.126  10.293  18.017  0.00  0.00    +0.000 A 
ATOM     19  C   UNL     1       2.355   8.923  17.826  0.00  0.00    +0.000 A 
ATOM     20  C   UNL     1       1.905   7.979  18.745  0.00  0.00    +0.000 A 
ATOM     21  C   UNL     1       1.238   8.384  19.902  0.00  0.00    +0.000 A 
ATOM     22  C   UNL     1       0.956   9.750  20.092  0.00  0.00    +0.000 A 
ATOM     23  C   UNL     1      -1.405  12.410  20.748  0.00  0.00    +0.000 C 
ENDROOT
BRANCH  16  24
ATOM     24  C   UNL     1       0.906  13.139  18.693  0.00  0.00    +0.000 C 
BRANCH  24  25
ATOM     25  C   UNL     1       2.130  13.997  18.904  0.00  0.00    +0.000 A 
ATOM     26  C   UNL     1       2.725  14.656  17.810  0.00  0.00    +0.000 A 
ATOM     27  C   UNL     1       3.960  15.299  17.939  0.00  0.00    +0.000 A 
ATOM     28  C   UNL     1       4.618  15.294  19.162  0.00  0.00    +0.000 A 
ATOM     29  C   UNL     1       4.026  14.671  20.264  0.00  0.00    +0.000 A 
ATOM     30 CL   UNL     1       4.855  14.645  21.772  0.00  0.00    +0.000 Cl
ATOM     31  C   UNL     1       2.788  14.030  20.143  0.00  0.00    +0.000 A 
ENDBRANCH  24  25
ENDBRANCH  16  24
TORSDOF 2
ENDMDL
MODEL 9
REMARK VINA RESULT:      -7.6      3.852      6.522
REMARK  Name = 
REMARK  3 active torsions:
REMARK  status: ('A' for Active; 'I' for Inactive)
REMARK    1  A    between atoms: C_1  and  N_2
REMARK    2  A    between atoms: N_16  and  C_17
REMARK    3  A    between atoms: C_17  and  C_18
REMARK                            x       y       z     vdW  Elec       q    Type
REMARK                         _______ _______ _______ _____ _____    ______ ____
ROOT
ATOM      1  C   UNL     1       0.393   8.497  17.292  0.00  0.00    +0.000 C 
ATOM      2  N   UNL     1       0.443   9.219  18.561  0.00  0.00    +0.000 N 
ATOM      3  C   UNL     1      -0.273  10.422  18.644  0.00  0.00    +0.000 A 
ATOM      4  C   UNL     1      -1.237  10.796  17.690  0.00  0.00    +0.000 A 
ATOM      5  C   UNL     1      -1.987  11.969  17.807  0.00  0.00    +0.000 A 
ATOM      6  C   UNL     1      -1.785  12.814  18.888  0.00  0.00    +0.000 A 
ATOM      7  C   UNL     1      -0.857  12.466  19.863  0.00  0.00    +0.000 A 
ATOM      8  C   UNL     1      -0.126  11.274  19.749  0.00  0.00    +0.000 A 
ATOM      9  C   UNL     1       0.665  10.806  20.904  0.00  0.00    +0.000 C 
ATOM     10  O   UNL     1       0.663  11.444  21.953  0.00  0.00    +0.000 OA
ATOM     11  N   UNL     1       1.263   9.576  20.753  0.00  0.00    +0.000 N 
ATOM     12  C   UNL     1       1.494   8.751  21.947  0.00  0.00    +0.000 C 
ATOM     13  C   UNL     1       0.973   7.319  21.724  0.00  0.00    +0.000 C 
ATOM     14  C   UNL     1       1.643   6.794  20.505  0.00  0.00    +0.000 A 
ATOM     15  C   UNL     1       2.114   7.666  19.542  0.00  0.00    +0.000 A 
ATOM     16  N   UNL     1       2.868   6.928  18.649  0.00  0.00    +0.000 N 
ATOM     17  C   UNL     1       2.445   5.600  18.762  0.00  0.00    +0.000 A 
ATOM     18  C   UNL     1       2.612   4.489  17.918  0.00  0.00    +0.000 A 
ATOM     19  C   UNL     1       1.888   3.324  18.208  0.00  0.00    +0.000 A 
ATOM     20  C   UNL     1       1.068   3.243  19.330  0.00  0.00    +0.000 A 
ATOM     21  C   UNL     1       0.973   4.318  20.214  0.00  0.00    +0.000 A 
ATOM     22  C   UNL     1       1.654   5.514  19.918  0.00  0.00    +0.000 A 
ATOM     23  C   UNL     1       1.643   9.096  19.417  0.00  0.00    +0.000 C 
ENDROOT
BRANCH  16  24
ATOM     24  C   UNL     1       3.588   7.474  17.498  0.00  0.00    +0.000 C 
BRANCH  24  25
ATOM     25  C   UNL     1       4.893   6.795  17.157  0.00  0.00    +0.000 A 
ATOM     26  C   UNL     1       5.074   6.213  15.886  0.00  0.00    +0.000 A 
ATOM     27  C   UNL     1       6.190   5.417  15.609  0.00  0.00    +0.000 A 
ATOM     28  C   UNL     1       7.142   5.192  16.596  0.00  0.00    +0.000 A 
ATOM     29  C   UNL     1       6.991   5.788  17.851  0.00  0.00    +0.000 A 
ATOM     30 CL   UNL     1       8.159   5.487  19.079  0.00  0.00    +0.000 Cl
ATOM     31  C   UNL     1       5.879   6.589  18.133  0.00  0.00    +0.000 A 
ENDBRANCH  24  25
ENDBRANCH  16  24
TORSDOF 2
ENDMDL
