MODEL 1
REMARK VINA RESULT:      -9.3      0.000      0.000
REMARK  Name = 
REMARK  9 active torsions:
REMARK  status: ('A' for Active; 'I' for Inactive)
REMARK    1  A    between atoms: C_1  and  N_2
REMARK    2  A    between atoms: C_5  and  N_6
REMARK    3  A    between atoms: N_6  and  C_7
REMARK    4  A    between atoms: C_10  and  C_11
REMARK    5  A    between atoms: N_13  and  C_14
REMARK    6  A    between atoms: C_17  and  N_18
REMARK    7  A    between atoms: N_18  and  C_19
REMARK    8  A    between atoms: N_22  and  C_23
REMARK    9  A    between atoms: C_27  and  N_28
REMARK                            x       y       z     vdW  Elec       q    Type
REMARK                         _______ _______ _______ _____ _____    ______ ____
ROOT
ATOM      1  C   UNL     1       8.082   7.093  18.478  0.00  0.00    +0.000 A 
ATOM      2  C   UNL     1       8.194   5.860  19.128  0.00  0.00    +0.000 A 
ATOM      3  C   UNL     1       7.453   4.753  18.714  0.00  0.00    +0.000 A 
ATOM      4  C   UNL     1       6.563   4.855  17.655  0.00  0.00    +0.000 A 
ATOM      5  C   UNL     1       6.548   6.050  16.917  0.00  0.00    +0.000 A 
ATOM      6  C   UNL     1       7.288   7.166  17.332  0.00  0.00    +0.000 A 
ENDROOT
BRANCH   1   9
ATOM      7  C   UNL     1       8.558   9.528  18.372  0.00  0.00    +0.000 C 
ATOM      8  O   UNL     1       7.785   9.812  17.463  0.00  0.00    +0.000 OA
ATOM      9  N   UNL     1       8.693   8.279  18.961  0.00  0.00    +0.000 N 
ATOM     10  H   UNL     1       9.228   8.203  19.816  0.00  0.00    +0.000 HD
BRANCH   7  14
ATOM     11  C   UNL     1      10.613  12.945  19.943  0.00  0.00    +0.000 A 
ATOM     12  C   UNL     1       9.880  12.080  20.762  0.00  0.00    +0.000 A 
ATOM     13  C   UNL     1       9.286  10.931  20.240  0.00  0.00    +0.000 A 
ATOM     14  C   UNL     1       9.407  10.628  18.878  0.00  0.00    +0.000 A 
ATOM     15  C   UNL     1      10.180  11.448  18.053  0.00  0.00    +0.000 A 
ATOM     16  C   UNL     1      10.785  12.597  18.593  0.00  0.00    +0.000 A 
BRANCH  11  17
ATOM     17  N   UNL     1      11.164  14.108  20.509  0.00  0.00    +0.000 N 
ATOM     18  H   UNL     1      12.166  14.197  20.353  0.00  0.00    +0.000 HD
BRANCH  17  23
ATOM     19  C   UNL     1       8.722  18.628  22.852  0.00  0.00    +0.000 C 
ATOM     20  N   UNL     1       9.322  17.429  22.244  0.00  0.00    +0.000 N 
ATOM     21  C   UNL     1       9.644  16.361  23.007  0.00  0.00    +0.000 A 
ATOM     22  C   UNL     1      10.268  15.254  22.438  0.00  0.00    +0.000 A 
ATOM     23  C   UNL     1      10.557  15.237  21.074  0.00  0.00    +0.000 A 
ATOM     24  C   UNL     1      10.175  16.336  20.310  0.00  0.00    +0.000 A 
ATOM     25  C   UNL     1       9.570  17.427  20.917  0.00  0.00    +0.000 A 
ENDBRANCH  17  23
ENDBRANCH  11  17
ENDBRANCH   7  14
ENDBRANCH   1   9
BRANCH   4  26
ATOM     26  N   UNL     1       5.614   3.862  17.367  0.00  0.00    +0.000 N 
ATOM     27  H   UNL     1       5.913   3.253  16.607  0.00  0.00    +0.000 HD
BRANCH  26  28
ATOM     28  C   UNL     1       4.413   3.478  17.992  0.00  0.00    +0.000 A 
ATOM     29  C   UNL     1       3.974   2.174  17.690  0.00  0.00    +0.000 A 
ATOM     30  C   UNL     1       2.707   1.765  18.082  0.00  0.00    +0.000 A 
ATOM     31  N   UNL     1       2.017   2.549  18.932  0.00  0.00    +0.000 N 
ATOM     32  C   UNL     1       0.533   2.493  18.950  0.00  0.00    +0.000 C 
ATOM     33  C   UNL     1       2.596   3.609  19.551  0.00  0.00    +0.000 A 
ATOM     34  C   UNL     1       2.008   4.130  20.694  0.00  0.00    +0.000 A 
ATOM     35  C   UNL     1       1.704   5.466  20.641  0.00  0.00    +0.000 A 
ATOM     36  C   UNL     1       2.535   6.295  19.910  0.00  0.00    +0.000 A 
ATOM     37  C   UNL     1       3.577   5.716  19.135  0.00  0.00    +0.000 A 
ATOM     38  C   UNL     1       3.628   4.287  18.899  0.00  0.00    +0.000 A 
BRANCH  36  39
ATOM     39  N   UNL     1       2.152   7.640  19.815  0.00  0.00    +0.000 N 
ATOM     40  H   UNL     1       1.541   7.878  19.036  0.00  0.00    +0.000 HD
ATOM     41  H   UNL     1       2.896   8.316  19.920  0.00  0.00    +0.000 HD
ENDBRANCH  36  39
ENDBRANCH  26  28
ENDBRANCH   4  26
TORSDOF 7
ENDMDL
MODEL 2
REMARK VINA RESULT:      -9.1      2.137     11.536
REMARK  Name = 
REMARK  9 active torsions:
REMARK  status: ('A' for Active; 'I' for Inactive)
REMARK    1  A    between atoms: C_1  and  N_2
REMARK    2  A    between atoms: C_5  and  N_6
REMARK    3  A    between atoms: N_6  and  C_7
REMARK    4  A    between atoms: C_10  and  C_11
REMARK    5  A    between atoms: N_13  and  C_14
REMARK    6  A    between atoms: C_17  and  N_18
REMARK    7  A    between atoms: N_18  and  C_19
REMARK    8  A    between atoms: N_22  and  C_23
REMARK    9  A    between atoms: C_27  and  N_28
REMARK                            x       y       z     vdW  Elec       q    Type
REMARK                         _______ _______ _______ _____ _____    ______ ____
ROOT
ATOM      1  C   UNL     1       9.671  10.601  19.466  0.00  0.00    +0.000 A 
ATOM      2  C   UNL     1      10.368  11.460  18.611  0.00  0.00    +0.000 A 
ATOM      3  C   UNL     1      10.607  12.790  18.957  0.00  0.00    +0.000 A 
ATOM      4  C   UNL     1      10.136  13.303  20.157  0.00  0.00    +0.000 A 
ATOM      5  C   UNL     1       9.556  12.412  21.075  0.00  0.00    +0.000 A 
ATOM      6  C   UNL     1       9.310  11.075  20.728  0.00  0.00    +0.000 A 
ENDROOT
BRANCH   1   9
ATOM      7  C   UNL     1       8.246   9.014  18.195  0.00  0.00    +0.000 C 
ATOM      8  O   UNL     1       7.657   9.835  17.500  0.00  0.00    +0.000 OA
ATOM      9  N   UNL     1       9.270   9.294  19.088  0.00  0.00    +0.000 N 
ATOM     10  H   UNL     1       9.801   8.523  19.472  0.00  0.00    +0.000 HD
BRANCH   7  14
ATOM     11  C   UNL     1       6.565   5.086  17.857  0.00  0.00    +0.000 A 
ATOM     12  C   UNL     1       6.313   6.084  16.909  0.00  0.00    +0.000 A 
ATOM     13  C   UNL     1       6.935   7.329  16.998  0.00  0.00    +0.000 A 
ATOM     14  C   UNL     1       7.820   7.605  18.049  0.00  0.00    +0.000 A 
ATOM     15  C   UNL     1       8.127   6.606  18.975  0.00  0.00    +0.000 A 
ATOM     16  C   UNL     1       7.504   5.349  18.868  0.00  0.00    +0.000 A 
BRANCH  11  17
ATOM     17  N   UNL     1       5.888   3.859  17.744  0.00  0.00    +0.000 N 
ATOM     18  H   UNL     1       6.509   3.070  17.577  0.00  0.00    +0.000 HD
BRANCH  17  23
ATOM     19  C   UNL     1       0.540   2.420  18.844  0.00  0.00    +0.000 C 
ATOM     20  N   UNL     1       1.940   2.758  18.538  0.00  0.00    +0.000 N 
ATOM     21  C   UNL     1       2.949   2.215  19.255  0.00  0.00    +0.000 A 
ATOM     22  C   UNL     1       4.268   2.584  19.004  0.00  0.00    +0.000 A 
ATOM     23  C   UNL     1       4.556   3.512  18.003  0.00  0.00    +0.000 A 
ATOM     24  C   UNL     1       3.497   4.021  17.257  0.00  0.00    +0.000 A 
ATOM     25  C   UNL     1       2.195   3.640  17.549  0.00  0.00    +0.000 A 
ENDBRANCH  17  23
ENDBRANCH  11  17
ENDBRANCH   7  14
ENDBRANCH   1   9
BRANCH   4  26
ATOM     26  N   UNL     1      10.119  14.678  20.437  0.00  0.00    +0.000 N 
ATOM     27  H   UNL     1      11.030  15.110  20.300  0.00  0.00    +0.000 HD
BRANCH  26  28
ATOM     28  C   UNL     1       9.080  15.578  20.743  0.00  0.00    +0.000 A 
ATOM     29  C   UNL     1       9.244  16.288  21.948  0.00  0.00    +0.000 A 
ATOM     30  C   UNL     1       8.194  17.044  22.451  0.00  0.00    +0.000 A 
ATOM     31  N   UNL     1       7.124  17.256  21.661  0.00  0.00    +0.000 N 
ATOM     32  C   UNL     1       5.799  17.538  22.271  0.00  0.00    +0.000 C 
ATOM     33  C   UNL     1       7.132  16.917  20.346  0.00  0.00    +0.000 A 
ATOM     34  C   UNL     1       6.210  17.502  19.491  0.00  0.00    +0.000 A 
ATOM     35  C   UNL     1       5.419  16.626  18.794  0.00  0.00    +0.000 A 
ATOM     36  C   UNL     1       5.964  15.412  18.419  0.00  0.00    +0.000 A 
ATOM     37  C   UNL     1       7.261  15.064  18.889  0.00  0.00    +0.000 A 
ATOM     38  C   UNL     1       7.905  15.830  19.938  0.00  0.00    +0.000 A 
BRANCH  36  39
ATOM     39  N   UNL     1       5.106  14.511  17.774  0.00  0.00    +0.000 N 
ATOM     40  H   UNL     1       4.904  13.647  18.275  0.00  0.00    +0.000 HD
ATOM     41  H   UNL     1       5.306  14.334  16.800  0.00  0.00    +0.000 HD
ENDBRANCH  36  39
ENDBRANCH  26  28
ENDBRANCH   4  26
TORSDOF 7
ENDMDL
MODEL 3
REMARK VINA RESULT:      -9.0      6.907     11.724
REMARK  Name = 
REMARK  9 active torsions:
REMARK  status: ('A' for Active; 'I' for Inactive)
REMARK    1  A    between atoms: C_1  and  N_2
REMARK    2  A    between atoms: C_5  and  N_6
REMARK    3  A    between atoms: N_6  and  C_7
REMARK    4  A    between atoms: C_10  and  C_11
REMARK    5  A    between atoms: N_13  and  C_14
REMARK    6  A    between atoms: C_17  and  N_18
REMARK    7  A    between atoms: N_18  and  C_19
REMARK    8  A    between atoms: N_22  and  C_23
REMARK    9  A    between atoms: C_27  and  N_28
REMARK                            x       y       z     vdW  Elec       q    Type
REMARK                         _______ _______ _______ _____ _____    ______ ____
ROOT
ATOM      1  C   UNL     1      -0.009  10.316  18.464  0.00  0.00    +0.000 A 
ATOM      2  C   UNL     1      -1.375  10.181  18.198  0.00  0.00    +0.000 A 
ATOM      3  C   UNL     1      -2.282  11.185  18.534  0.00  0.00    +0.000 A 
ATOM      4  C   UNL     1      -1.851  12.343  19.165  0.00  0.00    +0.000 A 
ATOM      5  C   UNL     1      -0.469  12.541  19.310  0.00  0.00    +0.000 A 
ATOM      6  C   UNL     1       0.446  11.532  18.978  0.00  0.00    +0.000 A 
ENDROOT
BRANCH   1   9
ATOM      7  C   UNL     1       1.453   8.500  19.316  0.00  0.00    +0.000 C 
ATOM      8  O   UNL     1       1.089   8.524  20.487  0.00  0.00    +0.000 OA
ATOM      9  N   UNL     1       0.921   9.261  18.285  0.00  0.00    +0.000 N 
ATOM     10  H   UNL     1       1.175   9.030  17.333  0.00  0.00    +0.000 HD
BRANCH   7  14
ATOM     11  C   UNL     1       4.398   5.690  17.974  0.00  0.00    +0.000 A 
ATOM     12  C   UNL     1       4.189   6.911  17.324  0.00  0.00    +0.000 A 
ATOM     13  C   UNL     1       3.281   7.843  17.826  0.00  0.00    +0.000 A 
ATOM     14  C   UNL     1       2.553   7.566  18.991  0.00  0.00    +0.000 A 
ATOM     15  C   UNL     1       2.786   6.376  19.686  0.00  0.00    +0.000 A 
ATOM     16  C   UNL     1       3.714   5.450  19.178  0.00  0.00    +0.000 A 
BRANCH  11  17
ATOM     17  N   UNL     1       5.299   4.769  17.410  0.00  0.00    +0.000 N 
ATOM     18  H   UNL     1       5.545   4.009  18.041  0.00  0.00    +0.000 HD
BRANCH  17  23
ATOM     19  C   UNL     1       7.217   4.174  12.133  0.00  0.00    +0.000 C 
ATOM     20  N   UNL     1       6.709   4.370  13.501  0.00  0.00    +0.000 N 
ATOM     21  C   UNL     1       7.462   5.001  14.428  0.00  0.00    +0.000 A 
ATOM     22  C   UNL     1       7.005   5.129  15.737  0.00  0.00    +0.000 A 
ATOM     23  C   UNL     1       5.759   4.614  16.097  0.00  0.00    +0.000 A 
ATOM     24  C   UNL     1       4.992   4.006  15.107  0.00  0.00    +0.000 A 
ATOM     25  C   UNL     1       5.491   3.883  13.819  0.00  0.00    +0.000 A 
ENDBRANCH  17  23
ENDBRANCH  11  17
ENDBRANCH   7  14
ENDBRANCH   1   9
BRANCH   4  26
ATOM     26  N   UNL     1      -2.738  13.258  19.753  0.00  0.00    +0.000 N 
ATOM     27  H   UNL     1      -2.879  14.083  19.174  0.00  0.00    +0.000 HD
BRANCH  26  28
ATOM     28  C   UNL     1      -3.547  13.200  20.904  0.00  0.00    +0.000 A 
ATOM     29  C   UNL     1      -2.935  13.660  22.086  0.00  0.00    +0.000 A 
ATOM     30  C   UNL     1      -3.560  13.460  23.309  0.00  0.00    +0.000 A 
ATOM     31  N   UNL     1      -4.836  13.030  23.312  0.00  0.00    +0.000 N 
ATOM     32  C   UNL     1      -5.362  12.282  24.482  0.00  0.00    +0.000 C 
ATOM     33  C   UNL     1      -5.570  12.973  22.170  0.00  0.00    +0.000 A 
ATOM     34  C   UNL     1      -6.954  12.926  22.257  0.00  0.00    +0.000 A 
ATOM     35  C   UNL     1      -7.544  11.859  21.631  0.00  0.00    +0.000 A 
ATOM     36  C   UNL     1      -6.954  11.371  20.480  0.00  0.00    +0.000 A 
ATOM     37  C   UNL     1      -5.696  11.895  20.074  0.00  0.00    +0.000 A 
ATOM     38  C   UNL     1      -4.915  12.733  20.962  0.00  0.00    +0.000 A 
BRANCH  36  39
ATOM     39  N   UNL     1      -7.542  10.233  19.909  0.00  0.00    +0.000 N 
ATOM     40  H   UNL     1      -8.339   9.842  20.407  0.00  0.00    +0.000 HD
ATOM     41  H   UNL     1      -6.901   9.510  19.613  0.00  0.00    +0.000 HD
ENDBRANCH  36  39
ENDBRANCH  26  28
ENDBRANCH   4  26
TORSDOF 7
ENDMDL
MODEL 4
REMARK VINA RESULT:      -8.6      6.970     11.735
REMARK  Name = 
REMARK  9 active torsions:
REMARK  status: ('A' for Active; 'I' for Inactive)
REMARK    1  A    between atoms: C_1  and  N_2
REMARK    2  A    between atoms: C_5  and  N_6
REMARK    3  A    between atoms: N_6  and  C_7
REMARK    4  A    between atoms: C_10  and  C_11
REMARK    5  A    between atoms: N_13  and  C_14
REMARK    6  A    between atoms: C_17  and  N_18
REMARK    7  A    between atoms: N_18  and  C_19
REMARK    8  A    between atoms: N_22  and  C_23
REMARK    9  A    between atoms: C_27  and  N_28
REMARK                            x       y       z     vdW  Elec       q    Type
REMARK                         _______ _______ _______ _____ _____    ______ ____
ROOT
ATOM      1  C   UNL     1      -0.435  10.262  18.326  0.00  0.00    +0.000 A 
ATOM      2  C   UNL     1      -1.738  10.066  17.859  0.00  0.00    +0.000 A 
ATOM      3  C   UNL     1      -2.752  10.982  18.134  0.00  0.00    +0.000 A 
ATOM      4  C   UNL     1      -2.497  12.109  18.902  0.00  0.00    +0.000 A 
ATOM      5  C   UNL     1      -1.166  12.379  19.257  0.00  0.00    +0.000 A 
ATOM      6  C   UNL     1      -0.144  11.458  18.987  0.00  0.00    +0.000 A 
ENDROOT
BRANCH   1   9
ATOM      7  C   UNL     1       1.153   8.606  19.276  0.00  0.00    +0.000 C 
ATOM      8  O   UNL     1       0.758   8.640  20.436  0.00  0.00    +0.000 OA
ATOM      9  N   UNL     1       0.585   9.284  18.206  0.00  0.00    +0.000 N 
ATOM     10  H   UNL     1       0.881   9.043  17.269  0.00  0.00    +0.000 HD
BRANCH   7  14
ATOM     11  C   UNL     1       4.351   6.004  18.107  0.00  0.00    +0.000 A 
ATOM     12  C   UNL     1       4.043   7.167  17.392  0.00  0.00    +0.000 A 
ATOM     13  C   UNL     1       3.050   8.039  17.837  0.00  0.00    +0.000 A 
ATOM     14  C   UNL     1       2.335   7.758  19.009  0.00  0.00    +0.000 A 
ATOM     15  C   UNL     1       2.663   6.631  19.767  0.00  0.00    +0.000 A 
ATOM     16  C   UNL     1       3.675   5.766  19.315  0.00  0.00    +0.000 A 
BRANCH  11  17
ATOM     17  N   UNL     1       5.337   5.139  17.599  0.00  0.00    +0.000 N 
ATOM     18  H   UNL     1       5.745   4.532  18.308  0.00  0.00    +0.000 HD
BRANCH  17  23
ATOM     19  C   UNL     1       6.919   3.954  12.310  0.00  0.00    +0.000 C 
ATOM     20  N   UNL     1       6.502   4.304  13.678  0.00  0.00    +0.000 N 
ATOM     21  C   UNL     1       7.356   4.932  14.516  0.00  0.00    +0.000 A 
ATOM     22  C   UNL     1       6.979   5.205  15.828  0.00  0.00    +0.000 A 
ATOM     23  C   UNL     1       5.713   4.839  16.284  0.00  0.00    +0.000 A 
ATOM     24  C   UNL     1       4.844   4.229  15.383  0.00  0.00    +0.000 A 
ATOM     25  C   UNL     1       5.263   3.959  14.088  0.00  0.00    +0.000 A 
ENDBRANCH  17  23
ENDBRANCH  11  17
ENDBRANCH   7  14
ENDBRANCH   1   9
BRANCH   4  26
ATOM     26  N   UNL     1      -3.520  12.917  19.422  0.00  0.00    +0.000 N 
ATOM     27  H   UNL     1      -3.833  13.619  18.754  0.00  0.00    +0.000 HD
BRANCH  26  28
ATOM     28  C   UNL     1      -4.264  12.866  20.616  0.00  0.00    +0.000 A 
ATOM     29  C   UNL     1      -5.597  12.434  20.469  0.00  0.00    +0.000 A 
ATOM     30  C   UNL     1      -6.478  12.540  21.536  0.00  0.00    +0.000 A 
ATOM     31  N   UNL     1      -5.979  12.847  22.749  0.00  0.00    +0.000 N 
ATOM     32  C   UNL     1      -6.844  13.508  23.758  0.00  0.00    +0.000 C 
ATOM     33  C   UNL     1      -4.641  12.865  22.984  0.00  0.00    +0.000 A 
ATOM     34  C   UNL     1      -4.183  12.778  24.290  0.00  0.00    +0.000 A 
ATOM     35  C   UNL     1      -3.364  13.801  24.692  0.00  0.00    +0.000 A 
ATOM     36  C   UNL     1      -2.527  14.375  23.753  0.00  0.00    +0.000 A 
ATOM     37  C   UNL     1      -2.649  13.983  22.391  0.00  0.00    +0.000 A 
ATOM     38  C   UNL     1      -3.780  13.199  21.937  0.00  0.00    +0.000 A 
BRANCH  36  39
ATOM     39  N   UNL     1      -1.759  15.467  24.181  0.00  0.00    +0.000 N 
ATOM     40  H   UNL     1      -1.357  15.393  25.114  0.00  0.00    +0.000 HD
ATOM     41  H   UNL     1      -2.167  16.378  24.026  0.00  0.00    +0.000 HD
ENDBRANCH  36  39
ENDBRANCH  26  28
ENDBRANCH   4  26
TORSDOF 7
ENDMDL
MODEL 5
REMARK VINA RESULT:      -8.5      6.992     11.625
REMARK  Name = 
REMARK  9 active torsions:
REMARK  status: ('A' for Active; 'I' for Inactive)
REMARK    1  A    between atoms: C_1  and  N_2
REMARK    2  A    between atoms: C_5  and  N_6
REMARK    3  A    between atoms: N_6  and  C_7
REMARK    4  A    between atoms: C_10  and  C_11
REMARK    5  A    between atoms: N_13  and  C_14
REMARK    6  A    between atoms: C_17  and  N_18
REMARK    7  A    between atoms: N_18  and  C_19
REMARK    8  A    between atoms: N_22  and  C_23
REMARK    9  A    between atoms: C_27  and  N_28
REMARK                            x       y       z     vdW  Elec       q    Type
REMARK                         _______ _______ _______ _____ _____    ______ ____
ROOT
ATOM      1  C   UNL     1       0.763   9.067  20.667  0.00  0.00    +0.000 A 
ATOM      2  C   UNL     1       0.553   9.068  22.050  0.00  0.00    +0.000 A 
ATOM      3  C   UNL     1      -0.253  10.029  22.660  0.00  0.00    +0.000 A 
ATOM      4  C   UNL     1      -0.853  11.028  21.908  0.00  0.00    +0.000 A 
ATOM      5  C   UNL     1      -0.756  10.951  20.509  0.00  0.00    +0.000 A 
ATOM      6  C   UNL     1       0.057   9.990  19.892  0.00  0.00    +0.000 A 
ENDROOT
BRANCH   1   9
ATOM      7  C   UNL     1       1.769   6.840  20.230  0.00  0.00    +0.000 C 
ATOM      8  O   UNL     1       0.959   6.162  20.854  0.00  0.00    +0.000 OA
ATOM      9  N   UNL     1       1.695   8.211  20.028  0.00  0.00    +0.000 N 
ATOM     10  H   UNL     1       2.317   8.634  19.352  0.00  0.00    +0.000 HD
BRANCH   7  14
ATOM     11  C   UNL     1       4.812   4.666  18.137  0.00  0.00    +0.000 A 
ATOM     12  C   UNL     1       4.393   5.936  17.726  0.00  0.00    +0.000 A 
ATOM     13  C   UNL     1       3.459   6.657  18.469  0.00  0.00    +0.000 A 
ATOM     14  C   UNL     1       2.914   6.113  19.640  0.00  0.00    +0.000 A 
ATOM     15  C   UNL     1       3.358   4.870  20.098  0.00  0.00    +0.000 A 
ATOM     16  C   UNL     1       4.311   4.158  19.347  0.00  0.00    +0.000 A 
BRANCH  11  17
ATOM     17  N   UNL     1       5.730   3.964  17.336  0.00  0.00    +0.000 N 
ATOM     18  H   UNL     1       6.085   3.118  17.776  0.00  0.00    +0.000 HD
BRANCH  17  23
ATOM     19  C   UNL     1       7.242   4.630  11.937  0.00  0.00    +0.000 C 
ATOM     20  N   UNL     1       6.834   4.496  13.344  0.00  0.00    +0.000 N 
ATOM     21  C   UNL     1       7.569   5.060  14.328  0.00  0.00    +0.000 A 
ATOM     22  C   UNL     1       7.214   4.879  15.663  0.00  0.00    +0.000 A 
ATOM     23  C   UNL     1       6.091   4.121  15.991  0.00  0.00    +0.000 A 
ATOM     24  C   UNL     1       5.333   3.588  14.952  0.00  0.00    +0.000 A 
ATOM     25  C   UNL     1       5.730   3.777  13.636  0.00  0.00    +0.000 A 
ENDBRANCH  17  23
ENDBRANCH  11  17
ENDBRANCH   7  14
ENDBRANCH   1   9
BRANCH   4  26
ATOM     26  N   UNL     1      -1.451  12.157  22.490  0.00  0.00    +0.000 N 
ATOM     27  H   UNL     1      -0.777  12.896  22.676  0.00  0.00    +0.000 HD
BRANCH  26  28
ATOM     28  C   UNL     1      -2.791  12.503  22.744  0.00  0.00    +0.000 A 
ATOM     29  C   UNL     1      -3.174  12.447  24.099  0.00  0.00    +0.000 A 
ATOM     30  C   UNL     1      -4.514  12.567  24.442  0.00  0.00    +0.000 A 
ATOM     31  N   UNL     1      -5.385  12.955  23.491  0.00  0.00    +0.000 N 
ATOM     32  C   UNL     1      -6.816  12.576  23.601  0.00  0.00    +0.000 C 
ATOM     33  C   UNL     1      -4.964  13.407  22.282  0.00  0.00    +0.000 A 
ATOM     34  C   UNL     1      -5.828  14.163  21.504  0.00  0.00    +0.000 A 
ATOM     35  C   UNL     1      -6.058  13.677  20.243  0.00  0.00    +0.000 A 
ATOM     36  C   UNL     1      -5.028  13.013  19.602  0.00  0.00    +0.000 A 
ATOM     37  C   UNL     1      -3.833  12.738  20.321  0.00  0.00    +0.000 A 
ATOM     38  C   UNL     1      -3.769  12.911  21.759  0.00  0.00    +0.000 A 
BRANCH  36  39
ATOM     39  N   UNL     1      -5.322  12.464  18.346  0.00  0.00    +0.000 N 
ATOM     40  H   UNL     1      -4.563  11.964  17.887  0.00  0.00    +0.000 HD
ATOM     41  H   UNL     1      -5.804  13.075  17.702  0.00  0.00    +0.000 HD
ENDBRANCH  36  39
ENDBRANCH  26  28
ENDBRANCH   4  26
TORSDOF 7
ENDMDL
MODEL 6
REMARK VINA RESULT:      -8.5      6.957     11.748
REMARK  Name = 
REMARK  9 active torsions:
REMARK  status: ('A' for Active; 'I' for Inactive)
REMARK    1  A    between atoms: C_1  and  N_2
REMARK    2  A    between atoms: C_5  and  N_6
REMARK    3  A    between atoms: N_6  and  C_7
REMARK    4  A    between atoms: C_10  and  C_11
REMARK    5  A    between atoms: N_13  and  C_14
REMARK    6  A    between atoms: C_17  and  N_18
REMARK    7  A    between atoms: N_18  and  C_19
REMARK    8  A    between atoms: N_22  and  C_23
REMARK    9  A    between atoms: C_27  and  N_28
REMARK                            x       y       z     vdW  Elec       q    Type
REMARK                         _______ _______ _______ _____ _____    ______ ____
ROOT
ATOM      1  C   UNL     1       0.348  10.371  21.776  0.00  0.00    +0.000 A 
ATOM      2  C   UNL     1       0.279  11.737  21.486  0.00  0.00    +0.000 A 
ATOM      3  C   UNL     1      -0.636  12.570  22.129  0.00  0.00    +0.000 A 
ATOM      4  C   UNL     1      -1.522  12.056  23.064  0.00  0.00    +0.000 A 
ATOM      5  C   UNL     1      -1.366  10.717  23.456  0.00  0.00    +0.000 A 
ATOM      6  C   UNL     1      -0.451   9.875  22.809  0.00  0.00    +0.000 A 
ENDROOT
BRANCH   1   9
ATOM      7  C   UNL     1       1.231   9.438  19.652  0.00  0.00    +0.000 C 
ATOM      8  O   UNL     1       0.758  10.274  18.890  0.00  0.00    +0.000 OA
ATOM      9  N   UNL     1       1.149   9.464  21.037  0.00  0.00    +0.000 N 
ATOM     10  H   UNL     1       1.725   8.824  21.568  0.00  0.00    +0.000 HD
BRANCH   7  14
ATOM     11  C   UNL     1       3.679   6.255  18.152  0.00  0.00    +0.000 A 
ATOM     12  C   UNL     1       3.059   6.186  19.404  0.00  0.00    +0.000 A 
ATOM     13  C   UNL     1       2.204   7.199  19.837  0.00  0.00    +0.000 A 
ATOM     14  C   UNL     1       1.957   8.313  19.023  0.00  0.00    +0.000 A 
ATOM     15  C   UNL     1       2.522   8.376  17.747  0.00  0.00    +0.000 A 
ATOM     16  C   UNL     1       3.373   7.343  17.316  0.00  0.00    +0.000 A 
BRANCH  11  17
ATOM     17  N   UNL     1       4.560   5.226  17.775  0.00  0.00    +0.000 N 
ATOM     18  H   UNL     1       4.546   4.431  18.411  0.00  0.00    +0.000 HD
BRANCH  17  23
ATOM     19  C   UNL     1       7.476   4.388  13.013  0.00  0.00    +0.000 C 
ATOM     20  N   UNL     1       6.720   4.566  14.264  0.00  0.00    +0.000 N 
ATOM     21  C   UNL     1       5.436   4.152  14.354  0.00  0.00    +0.000 A 
ATOM     22  C   UNL     1       4.705   4.378  15.518  0.00  0.00    +0.000 A 
ATOM     23  C   UNL     1       5.298   5.025  16.602  0.00  0.00    +0.000 A 
ATOM     24  C   UNL     1       6.633   5.401  16.490  0.00  0.00    +0.000 A 
ATOM     25  C   UNL     1       7.322   5.173  15.308  0.00  0.00    +0.000 A 
ENDBRANCH  17  23
ENDBRANCH  11  17
ENDBRANCH   7  14
ENDBRANCH   1   9
BRANCH   4  26
ATOM     26  N   UNL     1      -2.622  12.784  23.543  0.00  0.00    +0.000 N 
ATOM     27  H   UNL     1      -2.348  13.494  24.220  0.00  0.00    +0.000 HD
BRANCH  26  28
ATOM     28  C   UNL     1      -3.984  12.806  23.185  0.00  0.00    +0.000 A 
ATOM     29  C   UNL     1      -4.885  12.730  24.265  0.00  0.00    +0.000 A 
ATOM     30  C   UNL     1      -6.238  12.537  24.021  0.00  0.00    +0.000 A 
ATOM     31  N   UNL     1      -6.681  12.649  22.755  0.00  0.00    +0.000 N 
ATOM     32  C   UNL     1      -7.917  11.938  22.338  0.00  0.00    +0.000 C 
ATOM     33  C   UNL     1      -5.887  13.126  21.762  0.00  0.00    +0.000 A 
ATOM     34  C   UNL     1      -6.471  13.605  20.599  0.00  0.00    +0.000 A 
ATOM     35  C   UNL     1      -6.042  13.012  19.440  0.00  0.00    +0.000 A 
ATOM     36  C   UNL     1      -4.728  12.586  19.373  0.00  0.00    +0.000 A 
ATOM     37  C   UNL     1      -3.922  12.650  20.543  0.00  0.00    +0.000 A 
ATOM     38  C   UNL     1      -4.510  12.909  21.842  0.00  0.00    +0.000 A 
BRANCH  36  39
ATOM     39  N   UNL     1      -4.345  11.916  18.202  0.00  0.00    +0.000 N 
ATOM     40  H   UNL     1      -3.765  12.445  17.553  0.00  0.00    +0.000 HD
ATOM     41  H   UNL     1      -5.081  11.420  17.720  0.00  0.00    +0.000 HD
ENDBRANCH  36  39
ENDBRANCH  26  28
ENDBRANCH   4  26
TORSDOF 7
ENDMDL
MODEL 7
REMARK VINA RESULT:      -8.3      1.698     11.769
REMARK  Name = 
REMARK  9 active torsions:
REMARK  status: ('A' for Active; 'I' for Inactive)
REMARK    1  A    between atoms: C_1  and  N_2
REMARK    2  A    between atoms: C_5  and  N_6
REMARK    3  A    between atoms: N_6  and  C_7
REMARK    4  A    between atoms: C_10  and  C_11
REMARK    5  A    between atoms: N_13  and  C_14
REMARK    6  A    between atoms: C_17  and  N_18
REMARK    7  A    between atoms: N_18  and  C_19
REMARK    8  A    between atoms: N_22  and  C_23
REMARK    9  A    between atoms: C_27  and  N_28
REMARK                            x       y       z     vdW  Elec       q    Type
REMARK                         _______ _______ _______ _____ _____    ______ ____
ROOT
ATOM      1  C   UNL     1       9.822  11.065  18.765  0.00  0.00    +0.000 A 
ATOM      2  C   UNL     1       9.007  12.155  18.445  0.00  0.00    +0.000 A 
ATOM      3  C   UNL     1       9.358  13.455  18.808  0.00  0.00    +0.000 A 
ATOM      4  C   UNL     1      10.523  13.698  19.521  0.00  0.00    +0.000 A 
ATOM      5  C   UNL     1      11.408  12.627  19.726  0.00  0.00    +0.000 A 
ATOM      6  C   UNL     1      11.056  11.319  19.367  0.00  0.00    +0.000 A 
ENDROOT
BRANCH   1   9
ATOM      7  C   UNL     1       8.216   9.332  18.004  0.00  0.00    +0.000 C 
ATOM      8  O   UNL     1       7.394  10.079  17.485  0.00  0.00    +0.000 OA
ATOM      9  N   UNL     1       9.429   9.719  18.556  0.00  0.00    +0.000 N 
ATOM     10  H   UNL     1      10.103   9.002  18.793  0.00  0.00    +0.000 HD
BRANCH   7  14
ATOM     11  C   UNL     1       6.774   5.299  18.184  0.00  0.00    +0.000 A 
ATOM     12  C   UNL     1       6.373   6.186  17.178  0.00  0.00    +0.000 A 
ATOM     13  C   UNL     1       6.917   7.467  17.094  0.00  0.00    +0.000 A 
ATOM     14  C   UNL     1       7.872   7.893  18.027  0.00  0.00    +0.000 A 
ATOM     15  C   UNL     1       8.327   7.007  19.006  0.00  0.00    +0.000 A 
ATOM     16  C   UNL     1       7.781   5.712  19.073  0.00  0.00    +0.000 A 
BRANCH  11  17
ATOM     17  N   UNL     1       6.172   4.030  18.247  0.00  0.00    +0.000 N 
ATOM     18  H   UNL     1       6.844   3.269  18.317  0.00  0.00    +0.000 HD
BRANCH  17  23
ATOM     19  C   UNL     1       0.770   2.510  18.865  0.00  0.00    +0.000 C 
ATOM     20  N   UNL     1       2.166   2.947  18.705  0.00  0.00    +0.000 N 
ATOM     21  C   UNL     1       2.612   3.394  17.509  0.00  0.00    +0.000 A 
ATOM     22  C   UNL     1       3.949   3.747  17.345  0.00  0.00    +0.000 A 
ATOM     23  C   UNL     1       4.835   3.650  18.417  0.00  0.00    +0.000 A 
ATOM     24  C   UNL     1       4.334   3.225  19.644  0.00  0.00    +0.000 A 
ATOM     25  C   UNL     1       2.999   2.866  19.763  0.00  0.00    +0.000 A 
ENDBRANCH  17  23
ENDBRANCH  11  17
ENDBRANCH   7  14
ENDBRANCH   1   9
BRANCH   4  26
ATOM     26  N   UNL     1      10.792  14.933  20.132  0.00  0.00    +0.000 N 
ATOM     27  H   UNL     1      11.120  15.628  19.465  0.00  0.00    +0.000 HD
BRANCH  26  28
ATOM     28  C   UNL     1      10.582  15.420  21.436  0.00  0.00    +0.000 A 
ATOM     29  C   UNL     1      11.298  16.589  21.757  0.00  0.00    +0.000 A 
ATOM     30  C   UNL     1      11.329  17.040  23.070  0.00  0.00    +0.000 A 
ATOM     31  N   UNL     1      10.493  16.473  23.960  0.00  0.00    +0.000 N 
ATOM     32  C   UNL     1      10.835  16.480  25.405  0.00  0.00    +0.000 C 
ATOM     33  C   UNL     1       9.508  15.624  23.570  0.00  0.00    +0.000 A 
ATOM     34  C   UNL     1       8.439  15.388  24.423  0.00  0.00    +0.000 A 
ATOM     35  C   UNL     1       8.222  14.073  24.740  0.00  0.00    +0.000 A 
ATOM     36  C   UNL     1       8.504  13.116  23.783  0.00  0.00    +0.000 A 
ATOM     37  C   UNL     1       9.135  13.516  22.574  0.00  0.00    +0.000 A 
ATOM     38  C   UNL     1       9.708  14.840  22.432  0.00  0.00    +0.000 A 
BRANCH  36  39
ATOM     39  N   UNL     1       8.341  11.777  24.168  0.00  0.00    +0.000 N 
ATOM     40  H   UNL     1       7.398  11.499  24.433  0.00  0.00    +0.000 HD
ATOM     41  H   UNL     1       9.028  11.420  24.817  0.00  0.00    +0.000 HD
ENDBRANCH  36  39
ENDBRANCH  26  28
ENDBRANCH   4  26
TORSDOF 7
ENDMDL
MODEL 8
REMARK VINA RESULT:      -8.3      7.129     11.881
REMARK  Name = 
REMARK  9 active torsions:
REMARK  status: ('A' for Active; 'I' for Inactive)
REMARK    1  A    between atoms: C_1  and  N_2
REMARK    2  A    between atoms: C_5  and  N_6
REMARK    3  A    between atoms: N_6  and  C_7
REMARK    4  A    between atoms: C_10  and  C_11
REMARK    5  A    between atoms: N_13  and  C_14
REMARK    6  A    between atoms: C_17  and  N_18
REMARK    7  A    between atoms: N_18  and  C_19
REMARK    8  A    between atoms: N_22  and  C_23
REMARK    9  A    between atoms: C_27  and  N_28
REMARK                            x       y       z     vdW  Elec       q    Type
REMARK                         _______ _______ _______ _____ _____    ______ ____
ROOT
ATOM      1  C   UNL     1      -0.044  10.656  20.071  0.00  0.00    +0.000 A 
ATOM      2  C   UNL     1      -0.370  11.825  19.375  0.00  0.00    +0.000 A 
ATOM      3  C   UNL     1      -1.194  12.797  19.939  0.00  0.00    +0.000 A 
ATOM      4  C   UNL     1      -1.735  12.619  21.204  0.00  0.00    +0.000 A 
ATOM      5  C   UNL     1      -1.303  11.515  21.957  0.00  0.00    +0.000 A 
ATOM      6  C   UNL     1      -0.478  10.532  21.392  0.00  0.00    +0.000 A 
ENDROOT
BRANCH   1   9
ATOM      7  C   UNL     1       1.341   8.599  20.190  0.00  0.00    +0.000 C 
ATOM      8  O   UNL     1       1.309   8.443  21.406  0.00  0.00    +0.000 OA
ATOM      9  N   UNL     1       0.657   9.575  19.479  0.00  0.00    +0.000 N 
ATOM     10  H   UNL     1       0.615   9.498  18.471  0.00  0.00    +0.000 HD
BRANCH   7  14
ATOM     11  C   UNL     1       4.107   5.907  18.327  0.00  0.00    +0.000 A 
ATOM     12  C   UNL     1       3.477   5.601  19.539  0.00  0.00    +0.000 A 
ATOM     13  C   UNL     1       2.522   6.458  20.085  0.00  0.00    +0.000 A 
ATOM     14  C   UNL     1       2.181   7.648  19.430  0.00  0.00    +0.000 A 
ATOM     15  C   UNL     1       2.757   7.946  18.192  0.00  0.00    +0.000 A 
ATOM     16  C   UNL     1       3.710   7.069  17.644  0.00  0.00    +0.000 A 
BRANCH  11  17
ATOM     17  N   UNL     1       5.088   5.028  17.834  0.00  0.00    +0.000 N 
ATOM     18  H   UNL     1       5.385   4.333  18.516  0.00  0.00    +0.000 HD
BRANCH  17  23
ATOM     19  C   UNL     1       7.012   4.191  12.593  0.00  0.00    +0.000 C 
ATOM     20  N   UNL     1       6.516   4.368  13.967  0.00  0.00    +0.000 N 
ATOM     21  C   UNL     1       5.267   3.976  14.301  0.00  0.00    +0.000 A 
ATOM     22  C   UNL     1       4.779   4.202  15.585  0.00  0.00    +0.000 A 
ATOM     23  C   UNL     1       5.581   4.827  16.539  0.00  0.00    +0.000 A 
ATOM     24  C   UNL     1       6.877   5.181  16.174  0.00  0.00    +0.000 A 
ATOM     25  C   UNL     1       7.320   4.954  14.879  0.00  0.00    +0.000 A 
ENDBRANCH  17  23
ENDBRANCH  11  17
ENDBRANCH   7  14
ENDBRANCH   1   9
BRANCH   4  26
ATOM     26  N   UNL     1      -2.764  13.428  21.708  0.00  0.00    +0.000 N 
ATOM     27  H   UNL     1      -2.454  14.382  21.881  0.00  0.00    +0.000 HD
BRANCH  26  28
ATOM     28  C   UNL     1      -4.142  13.213  21.899  0.00  0.00    +0.000 A 
ATOM     29  C   UNL     1      -4.575  13.277  23.238  0.00  0.00    +0.000 A 
ATOM     30  C   UNL     1      -5.865  12.881  23.565  0.00  0.00    +0.000 A 
ATOM     31  N   UNL     1      -6.738  12.657  22.564  0.00  0.00    +0.000 N 
ATOM     32  C   UNL     1      -7.882  11.734  22.774  0.00  0.00    +0.000 C 
ATOM     33  C   UNL     1      -6.448  12.988  21.280  0.00  0.00    +0.000 A 
ATOM     34  C   UNL     1      -7.483  13.127  20.366  0.00  0.00    +0.000 A 
ATOM     35  C   UNL     1      -7.384  12.343  19.246  0.00  0.00    +0.000 A 
ATOM     36  C   UNL     1      -6.123  12.067  18.752  0.00  0.00    +0.000 A 
ATOM     37  C   UNL     1      -4.985  12.482  19.497  0.00  0.00    +0.000 A 
ATOM     38  C   UNL     1      -5.117  12.954  20.861  0.00  0.00    +0.000 A 
BRANCH  36  39
ATOM     39  N   UNL     1      -6.056  11.202  17.651  0.00  0.00    +0.000 N 
ATOM     40  H   UNL     1      -5.928  10.214  17.864  0.00  0.00    +0.000 HD
ATOM     41  H   UNL     1      -5.453  11.498  16.896  0.00  0.00    +0.000 HD
ENDBRANCH  36  39
ENDBRANCH  26  28
ENDBRANCH   4  26
TORSDOF 7
ENDMDL
MODEL 9
REMARK VINA RESULT:      -8.3      2.118     11.458
REMARK  Name = 
REMARK  9 active torsions:
REMARK  status: ('A' for Active; 'I' for Inactive)
REMARK    1  A    between atoms: C_1  and  N_2
REMARK    2  A    between atoms: C_5  and  N_6
REMARK    3  A    between atoms: N_6  and  C_7
REMARK    4  A    between atoms: C_10  and  C_11
REMARK    5  A    between atoms: N_13  and  C_14
REMARK    6  A    between atoms: C_17  and  N_18
REMARK    7  A    between atoms: N_18  and  C_19
REMARK    8  A    between atoms: N_22  and  C_23
REMARK    9  A    between atoms: C_27  and  N_28
REMARK                            x       y       z     vdW  Elec       q    Type
REMARK                         _______ _______ _______ _____ _____    ______ ____
ROOT
ATOM      1  C   UNL     1       9.465  10.692  19.120  0.00  0.00    +0.000 A 
ATOM      2  C   UNL     1       9.337  11.648  18.108  0.00  0.00    +0.000 A 
ATOM      3  C   UNL     1       9.553  13.003  18.359  0.00  0.00    +0.000 A 
ATOM      4  C   UNL     1       9.881  13.441  19.633  0.00  0.00    +0.000 A 
ATOM      5  C   UNL     1      10.143  12.474  20.617  0.00  0.00    +0.000 A 
ATOM      6  C   UNL     1       9.922  11.112  20.370  0.00  0.00    +0.000 A 
ENDROOT
BRANCH   1   9
ATOM      7  C   UNL     1       8.192   8.875  18.005  0.00  0.00    +0.000 C 
ATOM      8  O   UNL     1       7.699   9.543  17.102  0.00  0.00    +0.000 OA
ATOM      9  N   UNL     1       9.102   9.332  18.948  0.00  0.00    +0.000 N 
ATOM     10  H   UNL     1       9.576   8.654  19.531  0.00  0.00    +0.000 HD
BRANCH   7  14
ATOM     11  C   UNL     1       6.547   4.930  18.323  0.00  0.00    +0.000 A 
ATOM     12  C   UNL     1       6.176   5.808  17.298  0.00  0.00    +0.000 A 
ATOM     13  C   UNL     1       6.783   7.056  17.169  0.00  0.00    +0.000 A 
ATOM     14  C   UNL     1       7.774   7.458  18.075  0.00  0.00    +0.000 A 
ATOM     15  C   UNL     1       8.198   6.577  19.073  0.00  0.00    +0.000 A 
ATOM     16  C   UNL     1       7.588   5.315  19.185  0.00  0.00    +0.000 A 
BRANCH  11  17
ATOM     17  N   UNL     1       5.881   3.697  18.432  0.00  0.00    +0.000 N 
ATOM     18  H   UNL     1       6.510   2.910  18.578  0.00  0.00    +0.000 HD
BRANCH  17  23
ATOM     19  C   UNL     1       0.400   2.477  19.026  0.00  0.00    +0.000 C 
ATOM     20  N   UNL     1       1.838   2.757  18.888  0.00  0.00    +0.000 N 
ATOM     21  C   UNL     1       2.576   3.106  19.965  0.00  0.00    +0.000 A 
ATOM     22  C   UNL     1       3.922   3.431  19.821  0.00  0.00    +0.000 A 
ATOM     23  C   UNL     1       4.520   3.390  18.562  0.00  0.00    +0.000 A 
ATOM     24  C   UNL     1       3.742   2.988  17.480  0.00  0.00    +0.000 A 
ATOM     25  C   UNL     1       2.400   2.688  17.663  0.00  0.00    +0.000 A 
ENDBRANCH  17  23
ENDBRANCH  11  17
ENDBRANCH   7  14
ENDBRANCH   1   9
BRANCH   4  26
ATOM     26  N   UNL     1       9.854  14.796  19.997  0.00  0.00    +0.000 N 
ATOM     27  H   UNL     1      10.781  15.217  19.981  0.00  0.00    +0.000 HD
BRANCH  26  28
ATOM     28  C   UNL     1       8.802  15.696  20.254  0.00  0.00    +0.000 A 
ATOM     29  C   UNL     1       9.034  17.020  19.833  0.00  0.00    +0.000 A 
ATOM     30  C   UNL     1       8.160  18.028  20.216  0.00  0.00    +0.000 A 
ATOM     31  N   UNL     1       6.995  17.678  20.793  0.00  0.00    +0.000 N 
ATOM     32  C   UNL     1       6.304  18.630  21.701  0.00  0.00    +0.000 C 
ATOM     33  C   UNL     1       6.580  16.386  20.833  0.00  0.00    +0.000 A 
ATOM     34  C   UNL     1       5.238  16.112  21.052  0.00  0.00    +0.000 A 
ATOM     35  C   UNL     1       4.973  15.295  22.121  0.00  0.00    +0.000 A 
ATOM     36  C   UNL     1       5.890  14.308  22.430  0.00  0.00    +0.000 A 
ATOM     37  C   UNL     1       7.125  14.269  21.725  0.00  0.00    +0.000 A 
ATOM     38  C   UNL     1       7.540  15.374  20.884  0.00  0.00    +0.000 A 
BRANCH  36  39
ATOM     39  N   UNL     1       5.625  13.541  23.573  0.00  0.00    +0.000 N 
ATOM     40  H   UNL     1       4.642  13.399  23.799  0.00  0.00    +0.000 HD
ATOM     41  H   UNL     1       6.162  13.778  24.395  0.00  0.00    +0.000 HD
ENDBRANCH  36  39
ENDBRANCH  26  28
ENDBRANCH   4  26
TORSDOF 7
ENDMDL
