MODEL 1
REMARK VINA RESULT:      -7.3      0.000      0.000
REMARK  Name = 
REMARK  5 active torsions:
REMARK  status: ('A' for Active; 'I' for Inactive)
REMARK    1  A    between atoms: C_1  and  O_2
REMARK    2  A    between atoms: O_2  and  C_3
REMARK    3  A    between atoms: C_7  and  N_8
REMARK    4  A    between atoms: C_15  and  C_16
REMARK    5  A    between atoms: C_18  and  C_19
REMARK                            x       y       z     vdW  Elec       q    Type
REMARK                         _______ _______ _______ _____ _____    ______ ____
ROOT
ATOM      1  N   UNL     1       2.198   7.090  19.359  0.00  0.00    +0.000 N 
ATOM      2  C   UNL     1       2.748   7.917  18.272  0.00  0.00    +0.000 C 
ATOM      3  C   UNL     1       1.680   8.940  17.844  0.00  0.00    +0.000 C 
ATOM      4  N   UNL     1       1.193   9.721  18.996  0.00  0.00    +0.000 N 
ATOM      5  C   UNL     1       1.305  11.090  18.969  0.00  0.00    +0.000 A 
ATOM      6  C   UNL     1       0.481  11.909  19.728  0.00  0.00    +0.000 A 
ATOM      7  C   UNL     1       0.591  13.299  19.643  0.00  0.00    +0.000 A 
ATOM      8  C   UNL     1       1.542  13.844  18.803  0.00  0.00    +0.000 A 
ATOM      9  N   UNL     1       2.345  13.048  18.073  0.00  0.00    +0.000 NA
ATOM     10  N   UNL     1       2.214  11.673  18.156  0.00  0.00    +0.000 NA
ATOM     11  C   UNL     1       0.768   8.952  20.172  0.00  0.00    +0.000 C 
ATOM     12  C   UNL     1       1.803   7.858  20.552  0.00  0.00    +0.000 C 
ENDROOT
BRANCH   1  17
ATOM     13  C   UNL     1       4.373   4.111  19.290  0.00  0.00    +0.000 A 
ATOM     14  C   UNL     1       3.592   3.184  19.979  0.00  0.00    +0.000 A 
ATOM     15  C   UNL     1       2.311   3.527  20.408  0.00  0.00    +0.000 A 
ATOM     16  C   UNL     1       1.819   4.813  20.172  0.00  0.00    +0.000 A 
ATOM     17  C   UNL     1       2.588   5.770  19.501  0.00  0.00    +0.000 A 
ATOM     18  C   UNL     1       3.858   5.385  19.043  0.00  0.00    +0.000 A 
BRANCH  13  20
ATOM     19  C   UNL     1       6.430   4.597  18.213  0.00  0.00    +0.000 C 
ATOM     20  O   UNL     1       5.622   3.674  18.937  0.00  0.00    +0.000 OA
ENDBRANCH  13  20
ENDBRANCH   1  17
BRANCH   8  21
ATOM     21  C   UNL     1       1.707  15.287  18.658  0.00  0.00    +0.000 A 
ATOM     22  N   UNL     1       0.735  16.175  18.527  0.00  0.00    +0.000 NA
ATOM     23  C   UNL     1       1.302  17.440  18.420  0.00  0.00    +0.000 A 
ATOM     24  C   UNL     1       0.436  18.631  18.265  0.00  0.00    +0.000 C 
ATOM     25  N   UNL     1       2.629  17.575  18.465  0.00  0.00    +0.000 NA
ATOM     26  S   UNL     1       3.255  16.039  18.646  0.00  0.00    +0.000 S 
ENDBRANCH   8  21
TORSDOF 3
ENDMDL
MODEL 2
REMARK VINA RESULT:      -7.3      4.778      9.740
REMARK  Name = 
REMARK  5 active torsions:
REMARK  status: ('A' for Active; 'I' for Inactive)
REMARK    1  A    between atoms: C_1  and  O_2
REMARK    2  A    between atoms: O_2  and  C_3
REMARK    3  A    between atoms: C_7  and  N_8
REMARK    4  A    between atoms: C_15  and  C_16
REMARK    5  A    between atoms: C_18  and  C_19
REMARK                            x       y       z     vdW  Elec       q    Type
REMARK                         _______ _______ _______ _____ _____    ______ ____
ROOT
ATOM      1  N   UNL     1      -0.421  12.155  21.463  0.00  0.00    +0.000 N 
ATOM      2  C   UNL     1      -0.248  10.795  21.997  0.00  0.00    +0.000 C 
ATOM      3  C   UNL     1      -0.460   9.786  20.854  0.00  0.00    +0.000 C 
ATOM      4  N   UNL     1       0.412  10.088  19.704  0.00  0.00    +0.000 N 
ATOM      5  C   UNL     1       1.287   9.126  19.259  0.00  0.00    +0.000 A 
ATOM      6  C   UNL     1       1.770   9.118  17.959  0.00  0.00    +0.000 A 
ATOM      7  C   UNL     1       2.623   8.100  17.527  0.00  0.00    +0.000 A 
ATOM      8  C   UNL     1       2.988   7.109  18.418  0.00  0.00    +0.000 A 
ATOM      9  N   UNL     1       2.524   7.123  19.681  0.00  0.00    +0.000 NA
ATOM     10  N   UNL     1       1.667   8.130  20.090  0.00  0.00    +0.000 NA
ATOM     11  C   UNL     1       0.394  11.473  19.217  0.00  0.00    +0.000 C 
ATOM     12  C   UNL     1       0.516  12.495  20.379  0.00  0.00    +0.000 C 
ENDROOT
BRANCH   1  17
ATOM     13  C   UNL     1      -2.635  13.868  23.867  0.00  0.00    +0.000 A 
ATOM     14  C   UNL     1      -1.911  15.031  24.126  0.00  0.00    +0.000 A 
ATOM     15  C   UNL     1      -0.718  15.280  23.451  0.00  0.00    +0.000 A 
ATOM     16  C   UNL     1      -0.231  14.349  22.530  0.00  0.00    +0.000 A 
ATOM     17  C   UNL     1      -0.926  13.164  22.264  0.00  0.00    +0.000 A 
ATOM     18  C   UNL     1      -2.146  12.958  22.927  0.00  0.00    +0.000 A 
BRANCH  13  20
ATOM     19  C   UNL     1      -4.322  12.399  24.657  0.00  0.00    +0.000 C 
ATOM     20  O   UNL     1      -3.779  13.715  24.603  0.00  0.00    +0.000 OA
ENDBRANCH  13  20
ENDBRANCH   1  17
BRANCH   8  21
ATOM     21  C   UNL     1       3.868   6.011  18.032  0.00  0.00    +0.000 A 
ATOM     22  N   UNL     1       5.183   6.073  17.898  0.00  0.00    +0.000 NA
ATOM     23  C   UNL     1       5.649   4.819  17.522  0.00  0.00    +0.000 A 
ATOM     24  C   UNL     1       7.098   4.601  17.303  0.00  0.00    +0.000 C 
ATOM     25  N   UNL     1       4.787   3.812  17.366  0.00  0.00    +0.000 NA
ATOM     26  S   UNL     1       3.273   4.430  17.696  0.00  0.00    +0.000 S 
ENDBRANCH   8  21
TORSDOF 3
ENDMDL
MODEL 3
REMARK VINA RESULT:      -7.2      3.508      4.592
REMARK  Name = 
REMARK  5 active torsions:
REMARK  status: ('A' for Active; 'I' for Inactive)
REMARK    1  A    between atoms: C_1  and  O_2
REMARK    2  A    between atoms: O_2  and  C_3
REMARK    3  A    between atoms: C_7  and  N_8
REMARK    4  A    between atoms: C_15  and  C_16
REMARK    5  A    between atoms: C_18  and  C_19
REMARK                            x       y       z     vdW  Elec       q    Type
REMARK                         _______ _______ _______ _____ _____    ______ ____
ROOT
ATOM      1  N   UNL     1       4.120   6.116  18.039  0.00  0.00    +0.000 N 
ATOM      2  C   UNL     1       3.723   7.445  17.546  0.00  0.00    +0.000 C 
ATOM      3  C   UNL     1       2.235   7.666  17.871  0.00  0.00    +0.000 C 
ATOM      4  N   UNL     1       1.962   7.459  19.304  0.00  0.00    +0.000 N 
ATOM      5  C   UNL     1       1.404   8.482  20.032  0.00  0.00    +0.000 A 
ATOM      6  C   UNL     1       0.688   8.249  21.197  0.00  0.00    +0.000 A 
ATOM      7  C   UNL     1       0.096   9.308  21.888  0.00  0.00    +0.000 A 
ATOM      8  C   UNL     1       0.246  10.592  21.401  0.00  0.00    +0.000 A 
ATOM      9  N   UNL     1       0.946  10.817  20.275  0.00  0.00    +0.000 NA
ATOM     10  N   UNL     1       1.515   9.756  19.592  0.00  0.00    +0.000 NA
ATOM     11  C   UNL     1       2.467   6.211  19.891  0.00  0.00    +0.000 C 
ATOM     12  C   UNL     1       3.942   5.940  19.490  0.00  0.00    +0.000 C 
ENDROOT
BRANCH   1  17
ATOM     13  C   UNL     1       5.801   4.264  15.326  0.00  0.00    +0.000 A 
ATOM     14  C   UNL     1       7.088   4.127  15.844  0.00  0.00    +0.000 A 
ATOM     15  C   UNL     1       7.382   4.590  17.124  0.00  0.00    +0.000 A 
ATOM     16  C   UNL     1       6.391   5.218  17.883  0.00  0.00    +0.000 A 
ATOM     17  C   UNL     1       5.096   5.387  17.382  0.00  0.00    +0.000 A 
ATOM     18  C   UNL     1       4.816   4.874  16.106  0.00  0.00    +0.000 A 
BRANCH  13  20
ATOM     19  C   UNL     1       6.700   4.036  13.143  0.00  0.00    +0.000 C 
ATOM     20  O   UNL     1       5.630   3.794  14.052  0.00  0.00    +0.000 OA
ENDBRANCH  13  20
ENDBRANCH   1  17
BRANCH   8  21
ATOM     21  C   UNL     1      -0.353  11.745  22.067  0.00  0.00    +0.000 A 
ATOM     22  N   UNL     1       0.074  12.995  22.001  0.00  0.00    +0.000 NA
ATOM     23  C   UNL     1      -0.767  13.791  22.770  0.00  0.00    +0.000 A 
ATOM     24  C   UNL     1      -0.520  15.248  22.871  0.00  0.00    +0.000 C 
ATOM     25  N   UNL     1      -1.799  13.238  23.409  0.00  0.00    +0.000 NA
ATOM     26  S   UNL     1      -1.754  11.608  23.059  0.00  0.00    +0.000 S 
ENDBRANCH   8  21
TORSDOF 3
ENDMDL
MODEL 4
REMARK VINA RESULT:      -7.1      1.349      1.964
REMARK  Name = 
REMARK  5 active torsions:
REMARK  status: ('A' for Active; 'I' for Inactive)
REMARK    1  A    between atoms: C_1  and  O_2
REMARK    2  A    between atoms: O_2  and  C_3
REMARK    3  A    between atoms: C_7  and  N_8
REMARK    4  A    between atoms: C_15  and  C_16
REMARK    5  A    between atoms: C_18  and  C_19
REMARK                            x       y       z     vdW  Elec       q    Type
REMARK                         _______ _______ _______ _____ _____    ______ ____
ROOT
ATOM      1  N   UNL     1       2.240   7.051  18.854  0.00  0.00    +0.000 N 
ATOM      2  C   UNL     1       2.641   8.007  17.808  0.00  0.00    +0.000 C 
ATOM      3  C   UNL     1       1.558   9.096  17.696  0.00  0.00    +0.000 C 
ATOM      4  N   UNL     1       1.291   9.723  19.003  0.00  0.00    +0.000 N 
ATOM      5  C   UNL     1       1.449  11.082  19.136  0.00  0.00    +0.000 A 
ATOM      6  C   UNL     1       0.789  11.805  20.118  0.00  0.00    +0.000 A 
ATOM      7  C   UNL     1       0.937  13.192  20.197  0.00  0.00    +0.000 A 
ATOM      8  C   UNL     1       1.762  13.829  19.290  0.00  0.00    +0.000 A 
ATOM      9  N   UNL     1       2.407  13.124  18.343  0.00  0.00    +0.000 NA
ATOM     10  N   UNL     1       2.238  11.753  18.267  0.00  0.00    +0.000 NA
ATOM     11  C   UNL     1       1.030   8.811  20.124  0.00  0.00    +0.000 C 
ATOM     12  C   UNL     1       2.069   7.659  20.184  0.00  0.00    +0.000 C 
ENDROOT
BRANCH   1  17
ATOM     13  C   UNL     1       2.165   3.411  19.451  0.00  0.00    +0.000 A 
ATOM     14  C   UNL     1       3.041   2.953  18.468  0.00  0.00    +0.000 A 
ATOM     15  C   UNL     1       3.711   3.859  17.648  0.00  0.00    +0.000 A 
ATOM     16  C   UNL     1       3.484   5.230  17.793  0.00  0.00    +0.000 A 
ATOM     17  C   UNL     1       2.596   5.718  18.758  0.00  0.00    +0.000 A 
ATOM     18  C   UNL     1       1.967   4.786  19.599  0.00  0.00    +0.000 A 
BRANCH  13  20
ATOM     19  C   UNL     1       1.541   2.613  21.596  0.00  0.00    +0.000 C 
ATOM     20  O   UNL     1       1.545   2.434  20.183  0.00  0.00    +0.000 OA
ENDBRANCH  13  20
ENDBRANCH   1  17
BRANCH   8  21
ATOM     21  C   UNL     1       1.956  15.275  19.309  0.00  0.00    +0.000 A 
ATOM     22  N   UNL     1       1.131  16.168  19.830  0.00  0.00    +0.000 NA
ATOM     23  C   UNL     1       1.675  17.434  19.647  0.00  0.00    +0.000 A 
ATOM     24  C   UNL     1       0.955  18.630  20.142  0.00  0.00    +0.000 C 
ATOM     25  N   UNL     1       2.852  17.565  19.032  0.00  0.00    +0.000 NA
ATOM     26  S   UNL     1       3.349  16.025  18.628  0.00  0.00    +0.000 S 
ENDBRANCH   8  21
TORSDOF 3
ENDMDL
MODEL 5
REMARK VINA RESULT:      -7.1      4.598     10.073
REMARK  Name = 
REMARK  5 active torsions:
REMARK  status: ('A' for Active; 'I' for Inactive)
REMARK    1  A    between atoms: C_1  and  O_2
REMARK    2  A    between atoms: O_2  and  C_3
REMARK    3  A    between atoms: C_7  and  N_8
REMARK    4  A    between atoms: C_15  and  C_16
REMARK    5  A    between atoms: C_18  and  C_19
REMARK                            x       y       z     vdW  Elec       q    Type
REMARK                         _______ _______ _______ _____ _____    ______ ____
ROOT
ATOM      1  N   UNL     1       0.126  12.377  21.366  0.00  0.00    +0.000 N 
ATOM      2  C   UNL     1      -0.050  11.062  22.004  0.00  0.00    +0.000 C 
ATOM      3  C   UNL     1      -0.327  10.017  20.908  0.00  0.00    +0.000 C 
ATOM      4  N   UNL     1       0.720  10.037  19.871  0.00  0.00    +0.000 N 
ATOM      5  C   UNL     1       1.424   8.886  19.610  0.00  0.00    +0.000 A 
ATOM      6  C   UNL     1       2.048   8.667  18.391  0.00  0.00    +0.000 A 
ATOM      7  C   UNL     1       2.718   7.467  18.143  0.00  0.00    +0.000 A 
ATOM      8  C   UNL     1       2.761   6.508  19.137  0.00  0.00    +0.000 A 
ATOM      9  N   UNL     1       2.161   6.725  20.321  0.00  0.00    +0.000 NA
ATOM     10  N   UNL     1       1.488   7.913  20.546  0.00  0.00    +0.000 NA
ATOM     11  C   UNL     1       1.047  11.350  19.299  0.00  0.00    +0.000 C 
ATOM     12  C   UNL     1       1.237  12.428  20.401  0.00  0.00    +0.000 C 
ENDROOT
BRANCH   1  17
ATOM     13  C   UNL     1      -1.602  14.554  23.792  0.00  0.00    +0.000 A 
ATOM     14  C   UNL     1      -0.917  15.755  23.620  0.00  0.00    +0.000 A 
ATOM     15  C   UNL     1       0.077  15.863  22.650  0.00  0.00    +0.000 A 
ATOM     16  C   UNL     1       0.406  14.757  21.863  0.00  0.00    +0.000 A 
ATOM     17  C   UNL     1      -0.251  13.533  22.026  0.00  0.00    +0.000 A 
ATOM     18  C   UNL     1      -1.277  13.463  22.983  0.00  0.00    +0.000 A 
BRANCH  13  20
ATOM     19  C   UNL     1      -3.728  13.808  24.536  0.00  0.00    +0.000 C 
ATOM     20  O   UNL     1      -2.541  14.554  24.788  0.00  0.00    +0.000 OA
ENDBRANCH  13  20
ENDBRANCH   1  17
BRANCH   8  21
ATOM     21  C   UNL     1       3.436   5.228  18.944  0.00  0.00    +0.000 A 
ATOM     22  N   UNL     1       2.861   4.084  18.609  0.00  0.00    +0.000 NA
ATOM     23  C   UNL     1       3.843   3.104  18.523  0.00  0.00    +0.000 A 
ATOM     24  C   UNL     1       3.475   1.716  18.158  0.00  0.00    +0.000 C 
ATOM     25  N   UNL     1       5.116   3.421  18.762  0.00  0.00    +0.000 NA
ATOM     26  S   UNL     1       5.138   5.048  19.132  0.00  0.00    +0.000 S 
ENDBRANCH   8  21
TORSDOF 3
ENDMDL
MODEL 6
REMARK VINA RESULT:      -7.1      4.896      9.656
REMARK  Name = 
REMARK  5 active torsions:
REMARK  status: ('A' for Active; 'I' for Inactive)
REMARK    1  A    between atoms: C_1  and  O_2
REMARK    2  A    between atoms: O_2  and  C_3
REMARK    3  A    between atoms: C_7  and  N_8
REMARK    4  A    between atoms: C_15  and  C_16
REMARK    5  A    between atoms: C_18  and  C_19
REMARK                            x       y       z     vdW  Elec       q    Type
REMARK                         _______ _______ _______ _____ _____    ______ ____
ROOT
ATOM      1  N   UNL     1      -0.572  11.511  21.724  0.00  0.00    +0.000 N 
ATOM      2  C   UNL     1      -0.316  10.130  22.163  0.00  0.00    +0.000 C 
ATOM      3  C   UNL     1      -0.424   9.198  20.943  0.00  0.00    +0.000 C 
ATOM      4  N   UNL     1       0.454   9.644  19.847  0.00  0.00    +0.000 N 
ATOM      5  C   UNL     1       1.407   8.782  19.361  0.00  0.00    +0.000 A 
ATOM      6  C   UNL     1       1.924   8.905  18.080  0.00  0.00    +0.000 A 
ATOM      7  C   UNL     1       2.859   7.984  17.602  0.00  0.00    +0.000 A 
ATOM      8  C   UNL     1       3.270   6.957  18.430  0.00  0.00    +0.000 A 
ATOM      9  N   UNL     1       2.772   6.843  19.674  0.00  0.00    +0.000 NA
ATOM     10  N   UNL     1       1.835   7.755  20.129  0.00  0.00    +0.000 NA
ATOM     11  C   UNL     1       0.350  11.058  19.462  0.00  0.00    +0.000 C 
ATOM     12  C   UNL     1       0.368  11.996  20.700  0.00  0.00    +0.000 C 
ENDROOT
BRANCH   1  17
ATOM     13  C   UNL     1      -1.180  14.685  23.504  0.00  0.00    +0.000 A 
ATOM     14  C   UNL     1      -2.425  14.442  24.082  0.00  0.00    +0.000 A 
ATOM     15  C   UNL     1      -3.035  13.198  23.937  0.00  0.00    +0.000 A 
ATOM     16  C   UNL     1      -2.409  12.198  23.188  0.00  0.00    +0.000 A 
ATOM     17  C   UNL     1      -1.168  12.420  22.581  0.00  0.00    +0.000 A 
ATOM     18  C   UNL     1      -0.557  13.668  22.778  0.00  0.00    +0.000 A 
BRANCH  13  20
ATOM     19  C   UNL     1      -0.873  16.513  24.985  0.00  0.00    +0.000 C 
ATOM     20  O   UNL     1      -0.685  15.948  23.691  0.00  0.00    +0.000 OA
ENDBRANCH  13  20
ENDBRANCH   1  17
BRANCH   8  21
ATOM     21  C   UNL     1       4.236   5.954  17.993  0.00  0.00    +0.000 A 
ATOM     22  N   UNL     1       4.445   5.561  16.747  0.00  0.00    +0.000 NA
ATOM     23  C   UNL     1       5.446   4.596  16.749  0.00  0.00    +0.000 A 
ATOM     24  C   UNL     1       5.886   3.981  15.476  0.00  0.00    +0.000 C 
ATOM     25  N   UNL     1       6.013   4.234  17.902  0.00  0.00    +0.000 NA
ATOM     26  S   UNL     1       5.270   5.131  19.097  0.00  0.00    +0.000 S 
ENDBRANCH   8  21
TORSDOF 3
ENDMDL
MODEL 7
REMARK VINA RESULT:      -7.0      3.338      3.854
REMARK  Name = 
REMARK  5 active torsions:
REMARK  status: ('A' for Active; 'I' for Inactive)
REMARK    1  A    between atoms: C_1  and  O_2
REMARK    2  A    between atoms: O_2  and  C_3
REMARK    3  A    between atoms: C_7  and  N_8
REMARK    4  A    between atoms: C_15  and  C_16
REMARK    5  A    between atoms: C_18  and  C_19
REMARK                            x       y       z     vdW  Elec       q    Type
REMARK                         _______ _______ _______ _____ _____    ______ ____
ROOT
ATOM      1  N   UNL     1       2.151   7.747  18.756  0.00  0.00    +0.000 N 
ATOM      2  C   UNL     1       2.025   9.122  18.247  0.00  0.00    +0.000 C 
ATOM      3  C   UNL     1       0.637   9.664  18.633  0.00  0.00    +0.000 C 
ATOM      4  N   UNL     1       0.398   9.544  20.083  0.00  0.00    +0.000 N 
ATOM      5  C   UNL     1       0.110  10.674  20.808  0.00  0.00    +0.000 A 
ATOM      6  C   UNL     1      -0.580  10.620  22.010  0.00  0.00    +0.000 A 
ATOM      7  C   UNL     1      -0.896  11.793  22.700  0.00  0.00    +0.000 A 
ATOM      8  C   UNL     1      -0.498  13.006  22.173  0.00  0.00    +0.000 A 
ATOM      9  N   UNL     1       0.177  13.056  21.010  0.00  0.00    +0.000 NA
ATOM     10  N   UNL     1       0.469  11.887  20.330  0.00  0.00    +0.000 NA
ATOM     11  C   UNL     1       0.652   8.225  20.678  0.00  0.00    +0.000 C 
ATOM     12  C   UNL     1       2.012   7.636  20.217  0.00  0.00    +0.000 C 
ENDROOT
BRANCH   1  17
ATOM     13  C   UNL     1       4.994   6.322  16.884  0.00  0.00    +0.000 A 
ATOM     14  C   UNL     1       4.678   4.965  16.897  0.00  0.00    +0.000 A 
ATOM     15  C   UNL     1       3.485   4.527  17.468  0.00  0.00    +0.000 A 
ATOM     16  C   UNL     1       2.615   5.448  18.055  0.00  0.00    +0.000 A 
ATOM     17  C   UNL     1       2.914   6.815  18.075  0.00  0.00    +0.000 A 
ATOM     18  C   UNL     1       4.102   7.233  17.455  0.00  0.00    +0.000 A 
BRANCH  13  20
ATOM     19  C   UNL     1       7.298   6.779  17.213  0.00  0.00    +0.000 C 
ATOM     20  O   UNL     1       6.200   6.637  16.318  0.00  0.00    +0.000 OA
ENDBRANCH  13  20
ENDBRANCH   1  17
BRANCH   8  21
ATOM     21  C   UNL     1      -0.802  14.271  22.835  0.00  0.00    +0.000 A 
ATOM     22  N   UNL     1      -0.828  14.483  24.141  0.00  0.00    +0.000 NA
ATOM     23  C   UNL     1      -1.155  15.815  24.367  0.00  0.00    +0.000 A 
ATOM     24  C   UNL     1      -1.252  16.330  25.751  0.00  0.00    +0.000 C 
ATOM     25  N   UNL     1      -1.372  16.627  23.331  0.00  0.00    +0.000 NA
ATOM     26  S   UNL     1      -1.172  15.704  21.955  0.00  0.00    +0.000 S 
ENDBRANCH   8  21
TORSDOF 3
ENDMDL
MODEL 8
REMARK VINA RESULT:      -7.0      3.655      4.600
REMARK  Name = 
REMARK  5 active torsions:
REMARK  status: ('A' for Active; 'I' for Inactive)
REMARK    1  A    between atoms: C_1  and  O_2
REMARK    2  A    between atoms: O_2  and  C_3
REMARK    3  A    between atoms: C_7  and  N_8
REMARK    4  A    between atoms: C_15  and  C_16
REMARK    5  A    between atoms: C_18  and  C_19
REMARK                            x       y       z     vdW  Elec       q    Type
REMARK                         _______ _______ _______ _____ _____    ______ ____
ROOT
ATOM      1  N   UNL     1       4.028   6.233  18.226  0.00  0.00    +0.000 N 
ATOM      2  C   UNL     1       3.653   7.562  17.716  0.00  0.00    +0.000 C 
ATOM      3  C   UNL     1       2.150   7.780  17.971  0.00  0.00    +0.000 C 
ATOM      4  N   UNL     1       1.812   7.572  19.390  0.00  0.00    +0.000 N 
ATOM      5  C   UNL     1       1.219   8.594  20.092  0.00  0.00    +0.000 A 
ATOM      6  C   UNL     1       0.450   8.359  21.223  0.00  0.00    +0.000 A 
ATOM      7  C   UNL     1      -0.176   9.417  21.886  0.00  0.00    +0.000 A 
ATOM      8  C   UNL     1      -0.005  10.701  21.407  0.00  0.00    +0.000 A 
ATOM      9  N   UNL     1       0.747  10.928  20.315  0.00  0.00    +0.000 NA
ATOM     10  N   UNL     1       1.348   9.868  19.659  0.00  0.00    +0.000 NA
ATOM     11  C   UNL     1       2.291   6.324  19.999  0.00  0.00    +0.000 C 
ATOM     12  C   UNL     1       3.783   6.056  19.667  0.00  0.00    +0.000 C 
ENDROOT
BRANCH   1  17
ATOM     13  C   UNL     1       5.824   4.362  15.602  0.00  0.00    +0.000 A 
ATOM     14  C   UNL     1       7.094   4.247  16.166  0.00  0.00    +0.000 A 
ATOM     15  C   UNL     1       7.337   4.733  17.449  0.00  0.00    +0.000 A 
ATOM     16  C   UNL     1       6.314   5.360  18.163  0.00  0.00    +0.000 A 
ATOM     17  C   UNL     1       5.035   5.507  17.615  0.00  0.00    +0.000 A 
ATOM     18  C   UNL     1       4.805   4.971  16.337  0.00  0.00    +0.000 A 
BRANCH  13  20
ATOM     19  C   UNL     1       6.748   4.211  13.422  0.00  0.00    +0.000 C 
ATOM     20  O   UNL     1       5.704   3.871  14.329  0.00  0.00    +0.000 OA
ENDBRANCH  13  20
ENDBRANCH   1  17
BRANCH   8  21
ATOM     21  C   UNL     1      -0.636  11.852  22.045  0.00  0.00    +0.000 A 
ATOM     22  N   UNL     1      -1.699  11.824  22.833  0.00  0.00    +0.000 NA
ATOM     23  C   UNL     1      -1.984  13.122  23.238  0.00  0.00    +0.000 A 
ATOM     24  C   UNL     1      -3.132  13.384  24.137  0.00  0.00    +0.000 C 
ATOM     25  N   UNL     1      -1.215  14.129  22.821  0.00  0.00    +0.000 NA
ATOM     26  S   UNL     1      -0.043  13.456  21.844  0.00  0.00    +0.000 S 
ENDBRANCH   8  21
TORSDOF 3
ENDMDL
MODEL 9
REMARK VINA RESULT:      -6.9      4.717      9.918
REMARK  Name = 
REMARK  5 active torsions:
REMARK  status: ('A' for Active; 'I' for Inactive)
REMARK    1  A    between atoms: C_1  and  O_2
REMARK    2  A    between atoms: O_2  and  C_3
REMARK    3  A    between atoms: C_7  and  N_8
REMARK    4  A    between atoms: C_15  and  C_16
REMARK    5  A    between atoms: C_18  and  C_19
REMARK                            x       y       z     vdW  Elec       q    Type
REMARK                         _______ _______ _______ _____ _____    ______ ____
ROOT
ATOM      1  N   UNL     1       0.120  12.524  21.280  0.00  0.00    +0.000 N 
ATOM      2  C   UNL     1       0.040  11.154  21.812  0.00  0.00    +0.000 C 
ATOM      3  C   UNL     1      -0.265  10.191  20.650  0.00  0.00    +0.000 C 
ATOM      4  N   UNL     1       0.710  10.347  19.555  0.00  0.00    +0.000 N 
ATOM      5  C   UNL     1       1.443   9.256  19.153  0.00  0.00    +0.000 A 
ATOM      6  C   UNL     1       1.994   9.169  17.883  0.00  0.00    +0.000 A 
ATOM      7  C   UNL     1       2.695   8.026  17.493  0.00  0.00    +0.000 A 
ATOM      8  C   UNL     1       2.843   6.990  18.395  0.00  0.00    +0.000 A 
ATOM      9  N   UNL     1       2.313   7.080  19.629  0.00  0.00    +0.000 NA
ATOM     10  N   UNL     1       1.608   8.212  19.997  0.00  0.00    +0.000 NA
ATOM     11  C   UNL     1       0.944  11.717  19.080  0.00  0.00    +0.000 C 
ATOM     12  C   UNL     1       1.162  12.707  20.256  0.00  0.00    +0.000 C 
ENDROOT
BRANCH   1  17
ATOM     13  C   UNL     1      -1.687  14.446  23.860  0.00  0.00    +0.000 A 
ATOM     14  C   UNL     1      -0.953  15.631  23.883  0.00  0.00    +0.000 A 
ATOM     15  C   UNL     1       0.102  15.821  22.994  0.00  0.00    +0.000 A 
ATOM     16  C   UNL     1       0.445  14.809  22.093  0.00  0.00    +0.000 A 
ATOM     17  C   UNL     1      -0.261  13.602  22.060  0.00  0.00    +0.000 A 
ATOM     18  C   UNL     1      -1.346  13.454  22.938  0.00  0.00    +0.000 A 
BRANCH  13  20
ATOM     19  C   UNL     1      -2.861  15.492  25.636  0.00  0.00    +0.000 C 
ATOM     20  O   UNL     1      -2.685  14.358  24.792  0.00  0.00    +0.000 OA
ENDBRANCH  13  20
ENDBRANCH   1  17
BRANCH   8  21
ATOM     21  C   UNL     1       3.555   5.764  18.052  0.00  0.00    +0.000 A 
ATOM     22  N   UNL     1       4.321   5.576  16.989  0.00  0.00    +0.000 NA
ATOM     23  C   UNL     1       4.818   4.279  17.026  0.00  0.00    +0.000 A 
ATOM     24  C   UNL     1       5.715   3.798  15.950  0.00  0.00    +0.000 C 
ATOM     25  N   UNL     1       4.490   3.473  18.037  0.00  0.00    +0.000 NA
ATOM     26  S   UNL     1       3.484   4.353  19.036  0.00  0.00    +0.000 S 
ENDBRANCH   8  21
TORSDOF 3
ENDMDL
