MODEL 1
REMARK VINA RESULT:      -7.9      0.000      0.000
REMARK  Name = 
REMARK  6 active torsions:
REMARK  status: ('A' for Active; 'I' for Inactive)
REMARK    1  A    between atoms: C_1  and  O_2
REMARK    2  A    between atoms: O_2  and  C_3
REMARK    3  A    between atoms: C_5  and  C_6
REMARK    4  A    between atoms: C_9  and  C_10
REMARK    5  A    between atoms: N_13  and  C_14
REMARK    6  A    between atoms: C_15  and  C_16
REMARK                            x       y       z     vdW  Elec       q    Type
REMARK                         _______ _______ _______ _____ _____    ______ ____
ROOT
ATOM      1  C   UNL     1       6.442   4.604  16.137  0.00  0.00    +0.000 A 
ATOM      2  N   UNL     1       7.413   4.542  17.065  0.00  0.00    +0.000 NA
ATOM      3  O   UNL     1       6.736   4.589  18.266  0.00  0.00    +0.000 OA
ATOM      4  C   UNL     1       5.409   4.678  17.968  0.00  0.00    +0.000 A 
ATOM      5  N   UNL     1       5.167   4.711  16.677  0.00  0.00    +0.000 NA
ENDROOT
BRANCH   4   6
ATOM      6  C   UNL     1       4.518   4.805  19.151  0.00  0.00    +0.000 C 
ATOM      7  C   UNL     1       3.356   5.747  18.819  0.00  0.00    +0.000 C 
ATOM      8  C   UNL     1       2.441   5.916  20.028  0.00  0.00    +0.000 C 
ATOM      9  N   UNL     1       1.942   4.639  20.556  0.00  0.00    +0.000 NA
ATOM     10  C   UNL     1       0.947   4.045  19.661  0.00  0.00    +0.000 C 
ATOM     11  C   UNL     1       3.065   3.743  20.904  0.00  0.00    +0.000 C 
ATOM     12  C   UNL     1       2.594   2.458  21.589  0.00  0.00    +0.000 C 
ATOM     13  C   UNL     1       4.006   3.470  19.709  0.00  0.00    +0.000 C 
ENDBRANCH   4   6
BRANCH   1  16
ATOM     14  C   UNL     1       6.390   3.669  12.564  0.00  0.00    +0.000 A 
ATOM     15  C   UNL     1       6.017   3.658  13.893  0.00  0.00    +0.000 A 
ATOM     16  C   UNL     1       6.709   4.529  14.700  0.00  0.00    +0.000 A 
ATOM     17  N   UNL     1       7.688   5.347  14.235  0.00  0.00    +0.000 NA
ATOM     18  C   UNL     1       7.960   5.266  12.936  0.00  0.00    +0.000 A 
ATOM     19  N   UNL     1       7.349   4.469  12.064  0.00  0.00    +0.000 NA
BRANCH  14  21
ATOM     20  C   UNL     1       4.410   3.168  11.446  0.00  0.00    +0.000 C 
ATOM     21  O   UNL     1       5.768   2.795  11.695  0.00  0.00    +0.000 OA
ENDBRANCH  14  21
ENDBRANCH   1  16
TORSDOF 3
ENDMDL
MODEL 2
REMARK VINA RESULT:      -7.5      5.700      7.576
REMARK  Name = 
REMARK  6 active torsions:
REMARK  status: ('A' for Active; 'I' for Inactive)
REMARK    1  A    between atoms: C_1  and  O_2
REMARK    2  A    between atoms: O_2  and  C_3
REMARK    3  A    between atoms: C_5  and  C_6
REMARK    4  A    between atoms: C_9  and  C_10
REMARK    5  A    between atoms: N_13  and  C_14
REMARK    6  A    between atoms: C_15  and  C_16
REMARK                            x       y       z     vdW  Elec       q    Type
REMARK                         _______ _______ _______ _____ _____    ______ ____
ROOT
ATOM      1  C   UNL     1       7.615   7.249  17.602  0.00  0.00    +0.000 A 
ATOM      2  N   UNL     1       8.281   6.953  18.731  0.00  0.00    +0.000 NA
ATOM      3  O   UNL     1       8.776   8.167  19.159  0.00  0.00    +0.000 OA
ATOM      4  C   UNL     1       8.370   9.100  18.253  0.00  0.00    +0.000 A 
ATOM      5  N   UNL     1       7.670   8.595  17.264  0.00  0.00    +0.000 NA
ENDROOT
BRANCH   4   6
ATOM      6  C   UNL     1       8.868  10.476  18.518  0.00  0.00    +0.000 C 
ATOM      7  C   UNL     1       9.340  10.580  19.971  0.00  0.00    +0.000 C 
ATOM      8  C   UNL     1       9.831  11.992  20.276  0.00  0.00    +0.000 C 
ATOM      9  N   UNL     1      10.880  12.448  19.354  0.00  0.00    +0.000 NA
ATOM     10  C   UNL     1      12.148  11.760  19.607  0.00  0.00    +0.000 C 
ATOM     11  C   UNL     1      10.412  12.376  17.954  0.00  0.00    +0.000 C 
ATOM     12  C   UNL     1      11.421  12.974  16.971  0.00  0.00    +0.000 C 
ATOM     13  C   UNL     1       9.956  10.957  17.548  0.00  0.00    +0.000 C 
ENDBRANCH   4   6
BRANCH   1  16
ATOM     14  C   UNL     1       5.095   4.801  16.460  0.00  0.00    +0.000 A 
ATOM     15  C   UNL     1       5.669   5.761  17.270  0.00  0.00    +0.000 A 
ATOM     16  C   UNL     1       6.875   6.250  16.830  0.00  0.00    +0.000 A 
ATOM     17  N   UNL     1       7.468   5.828  15.683  0.00  0.00    +0.000 NA
ATOM     18  C   UNL     1       6.820   4.898  14.987  0.00  0.00    +0.000 A 
ATOM     19  N   UNL     1       5.646   4.365  15.314  0.00  0.00    +0.000 NA
BRANCH  14  21
ATOM     20  C   UNL     1       3.611   4.495  18.229  0.00  0.00    +0.000 C 
ATOM     21  O   UNL     1       3.899   4.233  16.853  0.00  0.00    +0.000 OA
ENDBRANCH  14  21
ENDBRANCH   1  16
TORSDOF 3
ENDMDL
MODEL 3
REMARK VINA RESULT:      -6.9      4.787      8.449
REMARK  Name = 
REMARK  6 active torsions:
REMARK  status: ('A' for Active; 'I' for Inactive)
REMARK    1  A    between atoms: C_1  and  O_2
REMARK    2  A    between atoms: O_2  and  C_3
REMARK    3  A    between atoms: C_5  and  C_6
REMARK    4  A    between atoms: C_9  and  C_10
REMARK    5  A    between atoms: N_13  and  C_14
REMARK    6  A    between atoms: C_15  and  C_16
REMARK                            x       y       z     vdW  Elec       q    Type
REMARK                         _______ _______ _______ _____ _____    ______ ____
ROOT
ATOM      1  C   UNL     1       1.677   9.073  18.791  0.00  0.00    +0.000 A 
ATOM      2  N   UNL     1       2.085   9.275  17.526  0.00  0.00    +0.000 NA
ATOM      3  O   UNL     1       2.725   8.102  17.187  0.00  0.00    +0.000 OA
ATOM      4  C   UNL     1       2.655   7.285  18.275  0.00  0.00    +0.000 A 
ATOM      5  N   UNL     1       2.041   7.832  19.298  0.00  0.00    +0.000 NA
ENDROOT
BRANCH   4   6
ATOM      6  C   UNL     1       3.357   5.984  18.116  0.00  0.00    +0.000 C 
ATOM      7  C   UNL     1       4.316   5.771  19.291  0.00  0.00    +0.000 C 
ATOM      8  C   UNL     1       5.070   4.453  19.137  0.00  0.00    +0.000 C 
ATOM      9  N   UNL     1       4.180   3.297  18.975  0.00  0.00    +0.000 NA
ATOM     10  C   UNL     1       3.501   2.967  20.231  0.00  0.00    +0.000 C 
ATOM     11  C   UNL     1       3.276   3.490  17.822  0.00  0.00    +0.000 C 
ATOM     12  C   UNL     1       2.428   2.249  17.532  0.00  0.00    +0.000 C 
ATOM     13  C   UNL     1       2.427   4.776  17.936  0.00  0.00    +0.000 C 
ENDBRANCH   4   6
BRANCH   1  16
ATOM     14  C   UNL     1      -0.266  10.807  21.411  0.00  0.00    +0.000 A 
ATOM     15  C   UNL     1       0.491   9.808  20.832  0.00  0.00    +0.000 A 
ATOM     16  C   UNL     1       0.895  10.056  19.542  0.00  0.00    +0.000 A 
ATOM     17  N   UNL     1       0.579  11.197  18.876  0.00  0.00    +0.000 NA
ATOM     18  C   UNL     1      -0.157  12.085  19.538  0.00  0.00    +0.000 A 
ATOM     19  N   UNL     1      -0.592  11.953  20.788  0.00  0.00    +0.000 NA
BRANCH  14  21
ATOM     20  C   UNL     1      -0.086   9.529  23.350  0.00  0.00    +0.000 C 
ATOM     21  O   UNL     1      -0.742  10.617  22.693  0.00  0.00    +0.000 OA
ENDBRANCH  14  21
ENDBRANCH   1  16
TORSDOF 3
ENDMDL
MODEL 4
REMARK VINA RESULT:      -6.9      5.890      7.661
REMARK  Name = 
REMARK  6 active torsions:
REMARK  status: ('A' for Active; 'I' for Inactive)
REMARK    1  A    between atoms: C_1  and  O_2
REMARK    2  A    between atoms: O_2  and  C_3
REMARK    3  A    between atoms: C_5  and  C_6
REMARK    4  A    between atoms: C_9  and  C_10
REMARK    5  A    between atoms: N_13  and  C_14
REMARK    6  A    between atoms: C_15  and  C_16
REMARK                            x       y       z     vdW  Elec       q    Type
REMARK                         _______ _______ _______ _____ _____    ______ ____
ROOT
ATOM      1  C   UNL     1       7.554   7.519  17.797  0.00  0.00    +0.000 A 
ATOM      2  N   UNL     1       8.402   7.192  18.787  0.00  0.00    +0.000 NA
ATOM      3  O   UNL     1       8.989   8.389  19.138  0.00  0.00    +0.000 OA
ATOM      4  C   UNL     1       8.450   9.345  18.331  0.00  0.00    +0.000 A 
ATOM      5  N   UNL     1       7.576   8.870  17.473  0.00  0.00    +0.000 NA
ENDROOT
BRANCH   4   6
ATOM      6  C   UNL     1       9.015  10.706  18.524  0.00  0.00    +0.000 C 
ATOM      7  C   UNL     1       9.381  10.907  19.997  0.00  0.00    +0.000 C 
ATOM      8  C   UNL     1       9.940  12.308  20.226  0.00  0.00    +0.000 C 
ATOM      9  N   UNL     1      11.082  12.622  19.358  0.00  0.00    +0.000 NA
ATOM     10  C   UNL     1      12.280  11.885  19.767  0.00  0.00    +0.000 C 
ATOM     11  C   UNL     1      10.718  12.458  17.935  0.00  0.00    +0.000 C 
ATOM     12  C   UNL     1      11.836  12.910  16.992  0.00  0.00    +0.000 C 
ATOM     13  C   UNL     1      10.202  11.039  17.609  0.00  0.00    +0.000 C 
ENDBRANCH   4   6
BRANCH   1  16
ATOM     14  C   UNL     1       6.223   4.731  15.773  0.00  0.00    +0.000 A 
ATOM     15  C   UNL     1       7.170   5.559  16.341  0.00  0.00    +0.000 A 
ATOM     16  C   UNL     1       6.669   6.548  17.152  0.00  0.00    +0.000 A 
ATOM     17  N   UNL     1       5.341   6.708  17.387  0.00  0.00    +0.000 NA
ATOM     18  C   UNL     1       4.524   5.850  16.782  0.00  0.00    +0.000 A 
ATOM     19  N   UNL     1       4.900   4.852  15.987  0.00  0.00    +0.000 NA
BRANCH  14  21
ATOM     20  C   UNL     1       6.317   4.030  13.554  0.00  0.00    +0.000 C 
ATOM     21  O   UNL     1       6.644   3.735  14.914  0.00  0.00    +0.000 OA
ENDBRANCH  14  21
ENDBRANCH   1  16
TORSDOF 3
ENDMDL
MODEL 5
REMARK VINA RESULT:      -6.9      4.889      8.805
REMARK  Name = 
REMARK  6 active torsions:
REMARK  status: ('A' for Active; 'I' for Inactive)
REMARK    1  A    between atoms: C_1  and  O_2
REMARK    2  A    between atoms: O_2  and  C_3
REMARK    3  A    between atoms: C_5  and  C_6
REMARK    4  A    between atoms: C_9  and  C_10
REMARK    5  A    between atoms: N_13  and  C_14
REMARK    6  A    between atoms: C_15  and  C_16
REMARK                            x       y       z     vdW  Elec       q    Type
REMARK                         _______ _______ _______ _____ _____    ______ ____
ROOT
ATOM      1  C   UNL     1       1.472   9.418  18.842  0.00  0.00    +0.000 A 
ATOM      2  N   UNL     1       1.864   9.770  17.605  0.00  0.00    +0.000 NA
ATOM      3  O   UNL     1       2.550   8.667  17.141  0.00  0.00    +0.000 OA
ATOM      4  C   UNL     1       2.520   7.737  18.136  0.00  0.00    +0.000 A 
ATOM      5  N   UNL     1       1.890   8.147  19.213  0.00  0.00    +0.000 NA
ENDROOT
BRANCH   4   6
ATOM      6  C   UNL     1       3.274   6.491  17.839  0.00  0.00    +0.000 C 
ATOM      7  C   UNL     1       4.644   6.847  17.254  0.00  0.00    +0.000 C 
ATOM      8  C   UNL     1       5.428   5.582  16.914  0.00  0.00    +0.000 C 
ATOM      9  N   UNL     1       5.570   4.669  18.055  0.00  0.00    +0.000 NA
ATOM     10  C   UNL     1       6.509   5.198  19.047  0.00  0.00    +0.000 C 
ATOM     11  C   UNL     1       4.246   4.302  18.599  0.00  0.00    +0.000 C 
ATOM     12  C   UNL     1       4.341   3.241  19.699  0.00  0.00    +0.000 C 
ATOM     13  C   UNL     1       3.414   5.530  19.028  0.00  0.00    +0.000 C 
ENDBRANCH   4   6
BRANCH   1  16
ATOM     14  C   UNL     1      -0.221  10.968  21.735  0.00  0.00    +0.000 A 
ATOM     15  C   UNL     1       0.614  10.104  21.056  0.00  0.00    +0.000 A 
ATOM     16  C   UNL     1       0.655  10.282  19.694  0.00  0.00    +0.000 A 
ATOM     17  N   UNL     1      -0.068  11.236  19.053  0.00  0.00    +0.000 NA
ATOM     18  C   UNL     1      -0.838  12.009  19.814  0.00  0.00    +0.000 A 
ATOM     19  N   UNL     1      -0.945  11.931  21.137  0.00  0.00    +0.000 NA
BRANCH  14  21
ATOM     20  C   UNL     1      -0.046   9.499  23.533  0.00  0.00    +0.000 C 
ATOM     21  O   UNL     1      -0.346  10.829  23.103  0.00  0.00    +0.000 OA
ENDBRANCH  14  21
ENDBRANCH   1  16
TORSDOF 3
ENDMDL
MODEL 6
REMARK VINA RESULT:      -6.8      4.259      8.664
REMARK  Name = 
REMARK  6 active torsions:
REMARK  status: ('A' for Active; 'I' for Inactive)
REMARK    1  A    between atoms: C_1  and  O_2
REMARK    2  A    between atoms: O_2  and  C_3
REMARK    3  A    between atoms: C_5  and  C_6
REMARK    4  A    between atoms: C_9  and  C_10
REMARK    5  A    between atoms: N_13  and  C_14
REMARK    6  A    between atoms: C_15  and  C_16
REMARK                            x       y       z     vdW  Elec       q    Type
REMARK                         _______ _______ _______ _____ _____    ______ ____
ROOT
ATOM      1  C   UNL     1       1.709   7.397  20.390  0.00  0.00    +0.000 A 
ATOM      2  N   UNL     1       1.348   6.289  21.059  0.00  0.00    +0.000 NA
ATOM      3  O   UNL     1       2.167   5.304  20.546  0.00  0.00    +0.000 OA
ATOM      4  C   UNL     1       2.956   5.896  19.607  0.00  0.00    +0.000 A 
ATOM      5  N   UNL     1       2.708   7.177  19.451  0.00  0.00    +0.000 NA
ENDROOT
BRANCH   4   6
ATOM      6  C   UNL     1       3.870   4.966  18.892  0.00  0.00    +0.000 C 
ATOM      7  C   UNL     1       3.260   4.587  17.539  0.00  0.00    +0.000 C 
ATOM      8  C   UNL     1       4.167   3.609  16.797  0.00  0.00    +0.000 C 
ATOM      9  N   UNL     1       5.538   4.110  16.629  0.00  0.00    +0.000 NA
ATOM     10  C   UNL     1       5.593   5.189  15.641  0.00  0.00    +0.000 C 
ATOM     11  C   UNL     1       6.135   4.447  17.939  0.00  0.00    +0.000 C 
ATOM     12  C   UNL     1       7.610   4.839  17.822  0.00  0.00    +0.000 C 
ATOM     13  C   UNL     1       5.305   5.484  18.726  0.00  0.00    +0.000 C 
ENDBRANCH   4   6
BRANCH   1  16
ATOM     14  C   UNL     1       0.125  10.312  22.015  0.00  0.00    +0.000 A 
ATOM     15  C   UNL     1       0.682   9.053  21.911  0.00  0.00    +0.000 A 
ATOM     16  C   UNL     1       1.125   8.713  20.656  0.00  0.00    +0.000 A 
ATOM     17  N   UNL     1       1.030   9.547  19.588  0.00  0.00    +0.000 NA
ATOM     18  C   UNL     1       0.473  10.734  19.811  0.00  0.00    +0.000 A 
ATOM     19  N   UNL     1       0.021  11.169  20.983  0.00  0.00    +0.000 NA
BRANCH  14  21
ATOM     20  C   UNL     1      -1.563  11.504  23.089  0.00  0.00    +0.000 C 
ATOM     21  O   UNL     1      -0.379  10.715  23.235  0.00  0.00    +0.000 OA
ENDBRANCH  14  21
ENDBRANCH   1  16
TORSDOF 3
ENDMDL
MODEL 7
REMARK VINA RESULT:      -6.8      4.784      8.877
REMARK  Name = 
REMARK  6 active torsions:
REMARK  status: ('A' for Active; 'I' for Inactive)
REMARK    1  A    between atoms: C_1  and  O_2
REMARK    2  A    between atoms: O_2  and  C_3
REMARK    3  A    between atoms: C_5  and  C_6
REMARK    4  A    between atoms: C_9  and  C_10
REMARK    5  A    between atoms: N_13  and  C_14
REMARK    6  A    between atoms: C_15  and  C_16
REMARK                            x       y       z     vdW  Elec       q    Type
REMARK                         _______ _______ _______ _____ _____    ______ ____
ROOT
ATOM      1  C   UNL     1       1.446   8.748  19.827  0.00  0.00    +0.000 A 
ATOM      2  N   UNL     1       1.634   9.287  18.610  0.00  0.00    +0.000 NA
ATOM      3  O   UNL     1       2.250   8.285  17.889  0.00  0.00    +0.000 OA
ATOM      4  C   UNL     1       2.387   7.221  18.729  0.00  0.00    +0.000 A 
ATOM      5  N   UNL     1       1.929   7.451  19.938  0.00  0.00    +0.000 NA
ENDROOT
BRANCH   4   6
ATOM      6  C   UNL     1       3.097   6.056  18.139  0.00  0.00    +0.000 C 
ATOM      7  C   UNL     1       4.479   5.917  18.784  0.00  0.00    +0.000 C 
ATOM      8  C   UNL     1       5.240   4.742  18.175  0.00  0.00    +0.000 C 
ATOM      9  N   UNL     1       4.500   3.476  18.250  0.00  0.00    +0.000 NA
ATOM     10  C   UNL     1       4.455   2.966  19.622  0.00  0.00    +0.000 C 
ATOM     11  C   UNL     1       3.179   3.603  17.600  0.00  0.00    +0.000 C 
ATOM     12  C   UNL     1       2.433   2.268  17.531  0.00  0.00    +0.000 C 
ATOM     13  C   UNL     1       2.319   4.734  18.207  0.00  0.00    +0.000 C 
ENDBRANCH   4   6
BRANCH   1  16
ATOM     14  C   UNL     1      -0.503  11.190  21.797  0.00  0.00    +0.000 A 
ATOM     15  C   UNL     1       0.064  10.612  20.679  0.00  0.00    +0.000 A 
ATOM     16  C   UNL     1       0.764   9.453  20.913  0.00  0.00    +0.000 A 
ATOM     17  N   UNL     1       0.894   8.906  22.149  0.00  0.00    +0.000 NA
ATOM     18  C   UNL     1       0.304   9.555  23.149  0.00  0.00    +0.000 A 
ATOM     19  N   UNL     1      -0.405  10.674  23.035  0.00  0.00    +0.000 NA
BRANCH  14  21
ATOM     20  C   UNL     1      -1.737  12.520  20.336  0.00  0.00    +0.000 C 
ATOM     21  O   UNL     1      -1.192  12.378  21.651  0.00  0.00    +0.000 OA
ENDBRANCH  14  21
ENDBRANCH   1  16
TORSDOF 3
ENDMDL
MODEL 8
REMARK VINA RESULT:      -6.7      5.118      8.851
REMARK  Name = 
REMARK  6 active torsions:
REMARK  status: ('A' for Active; 'I' for Inactive)
REMARK    1  A    between atoms: C_1  and  O_2
REMARK    2  A    between atoms: O_2  and  C_3
REMARK    3  A    between atoms: C_5  and  C_6
REMARK    4  A    between atoms: C_9  and  C_10
REMARK    5  A    between atoms: N_13  and  C_14
REMARK    6  A    between atoms: C_15  and  C_16
REMARK                            x       y       z     vdW  Elec       q    Type
REMARK                         _______ _______ _______ _____ _____    ______ ____
ROOT
ATOM      1  C   UNL     1       1.411   9.266  18.846  0.00  0.00    +0.000 A 
ATOM      2  N   UNL     1       1.930   9.341  17.608  0.00  0.00    +0.000 NA
ATOM      3  O   UNL     1       2.681   8.190  17.487  0.00  0.00    +0.000 OA
ATOM      4  C   UNL     1       2.558   7.513  18.663  0.00  0.00    +0.000 A 
ATOM      5  N   UNL     1       1.807   8.132  19.544  0.00  0.00    +0.000 NA
ENDROOT
BRANCH   4   6
ATOM      6  C   UNL     1       3.361   6.264  18.742  0.00  0.00    +0.000 C 
ATOM      7  C   UNL     1       2.563   5.188  19.485  0.00  0.00    +0.000 C 
ATOM      8  C   UNL     1       3.377   3.903  19.605  0.00  0.00    +0.000 C 
ATOM      9  N   UNL     1       3.851   3.399  18.309  0.00  0.00    +0.000 NA
ATOM     10  C   UNL     1       2.751   2.840  17.521  0.00  0.00    +0.000 C 
ATOM     11  C   UNL     1       4.646   4.428  17.607  0.00  0.00    +0.000 C 
ATOM     12  C   UNL     1       5.277   3.897  16.317  0.00  0.00    +0.000 C 
ATOM     13  C   UNL     1       3.865   5.743  17.390  0.00  0.00    +0.000 C 
ENDBRANCH   4   6
BRANCH   1  16
ATOM     14  C   UNL     1      -0.231  11.780  20.998  0.00  0.00    +0.000 A 
ATOM     15  C   UNL     1       0.733  10.878  20.593  0.00  0.00    +0.000 A 
ATOM     16  C   UNL     1       0.491  10.268  19.386  0.00  0.00    +0.000 A 
ATOM     17  N   UNL     1      -0.611  10.527  18.636  0.00  0.00    +0.000 NA
ATOM     18  C   UNL     1      -1.470  11.414  19.130  0.00  0.00    +0.000 A 
ATOM     19  N   UNL     1      -1.331  12.069  20.279  0.00  0.00    +0.000 NA
BRANCH  14  21
ATOM     20  C   UNL     1      -1.304  12.434  22.958  0.00  0.00    +0.000 C 
ATOM     21  O   UNL     1      -0.080  12.407  22.218  0.00  0.00    +0.000 OA
ENDBRANCH  14  21
ENDBRANCH   1  16
TORSDOF 3
ENDMDL
MODEL 9
REMARK VINA RESULT:      -6.7      4.572      8.569
REMARK  Name = 
REMARK  6 active torsions:
REMARK  status: ('A' for Active; 'I' for Inactive)
REMARK    1  A    between atoms: C_1  and  O_2
REMARK    2  A    between atoms: O_2  and  C_3
REMARK    3  A    between atoms: C_5  and  C_6
REMARK    4  A    between atoms: C_9  and  C_10
REMARK    5  A    between atoms: N_13  and  C_14
REMARK    6  A    between atoms: C_15  and  C_16
REMARK                            x       y       z     vdW  Elec       q    Type
REMARK                         _______ _______ _______ _____ _____    ______ ____
ROOT
ATOM      1  C   UNL     1       1.750   8.797  18.841  0.00  0.00    +0.000 A 
ATOM      2  N   UNL     1       2.210   8.967  17.589  0.00  0.00    +0.000 NA
ATOM      3  O   UNL     1       2.967   7.839  17.352  0.00  0.00    +0.000 OA
ATOM      4  C   UNL     1       2.907   7.078  18.481  0.00  0.00    +0.000 A 
ATOM      5  N   UNL     1       2.190   7.623  19.437  0.00  0.00    +0.000 NA
ENDROOT
BRANCH   4   6
ATOM      6  C   UNL     1       3.726   5.839  18.434  0.00  0.00    +0.000 C 
ATOM      7  C   UNL     1       3.043   4.805  17.535  0.00  0.00    +0.000 C 
ATOM      8  C   UNL     1       3.852   3.512  17.492  0.00  0.00    +0.000 C 
ATOM      9  N   UNL     1       5.247   3.719  17.082  0.00  0.00    +0.000 NA
ATOM     10  C   UNL     1       5.341   4.034  15.655  0.00  0.00    +0.000 C 
ATOM     11  C   UNL     1       5.914   4.693  17.971  0.00  0.00    +0.000 C 
ATOM     12  C   UNL     1       7.407   4.832  17.666  0.00  0.00    +0.000 C 
ATOM     13  C   UNL     1       5.187   6.056  18.017  0.00  0.00    +0.000 C 
ENDBRANCH   4   6
BRANCH   1  16
ATOM     14  C   UNL     1      -0.421  10.526  21.279  0.00  0.00    +0.000 A 
ATOM     15  C   UNL     1       0.461   9.577  20.801  0.00  0.00    +0.000 A 
ATOM     16  C   UNL     1       0.844   9.745  19.492  0.00  0.00    +0.000 A 
ATOM     17  N   UNL     1       0.398  10.767  18.717  0.00  0.00    +0.000 NA
ATOM     18  C   UNL     1      -0.450  11.618  19.289  0.00  0.00    +0.000 A 
ATOM     19  N   UNL     1      -0.878  11.556  20.546  0.00  0.00    +0.000 NA
BRANCH  14  21
ATOM     20  C   UNL     1      -0.063   9.533  23.355  0.00  0.00    +0.000 C 
ATOM     21  O   UNL     1      -0.884  10.406  22.574  0.00  0.00    +0.000 OA
ENDBRANCH  14  21
ENDBRANCH   1  16
TORSDOF 3
ENDMDL
