MODEL 1
REMARK VINA RESULT:      -8.2      0.000      0.000
REMARK  Name = 
REMARK  4 active torsions:
REMARK  status: ('A' for Active; 'I' for Inactive)
REMARK    1  A    between atoms: C_2  and  C_3
REMARK    2  A    between atoms: C_6  and  S_7
REMARK    3  A    between atoms: S_7  and  C_8
REMARK    4  A    between atoms: C_15  and  N_16
REMARK                            x       y       z     vdW  Elec       q    Type
REMARK                         _______ _______ _______ _____ _____    ______ ____
ROOT
ATOM      1  C   UNL     1       2.742   6.908  18.995  0.00  0.00    +0.000 A 
ATOM      2  C   UNL     1       2.595   7.695  17.849  0.00  0.00    +0.000 A 
ATOM      3  C   UNL     1       1.969   8.944  17.915  0.00  0.00    +0.000 A 
ATOM      4  C   UNL     1       1.382   9.395  19.104  0.00  0.00    +0.000 A 
ATOM      5  C   UNL     1       1.449   8.547  20.220  0.00  0.00    +0.000 A 
ATOM      6  C   UNL     1       2.133   7.318  20.183  0.00  0.00    +0.000 A 
ENDROOT
BRANCH   1   8
ATOM      7  O   UNL     1       4.634   5.628  18.589  0.00  0.00    +0.000 OA
ATOM      8  C   UNL     1       3.464   5.607  18.969  0.00  0.00    +0.000 C 
ATOM      9  N   UNL     1       2.823   4.433  19.356  0.00  0.00    +0.000 N 
ATOM     10  C   UNL     1       3.619   3.213  19.544  0.00  0.00    +0.000 C 
ATOM     11  C   UNL     1       3.023   2.040  18.761  0.00  0.00    +0.000 C 
ATOM     12  O   UNL     1       1.642   1.841  19.104  0.00  0.00    +0.000 OA
ATOM     13  C   UNL     1       0.876   3.010  18.787  0.00  0.00    +0.000 C 
ATOM     14  C   UNL     1       1.382   4.229  19.561  0.00  0.00    +0.000 C 
ENDBRANCH   1   8
BRANCH   5  15
ATOM     15  N   UNL     1       0.806   8.900  21.468  0.00  0.00    +0.000 N 
ATOM     16  O   UNL     1      -0.382   8.590  21.607  0.00  0.00    +0.000 OA
ATOM     17  O   UNL     1       1.517   9.435  22.331  0.00  0.00    +0.000 OA
ENDBRANCH   5  15
BRANCH   4  18
ATOM     18  S   UNL     1       0.742  11.063  19.113  0.00  0.00    +0.000 S 
BRANCH  18  19
ATOM     19  C   UNL     1      -0.932  10.828  18.548  0.00  0.00    +0.000 A 
ATOM     20  C   UNL     1      -1.943  11.643  19.072  0.00  0.00    +0.000 A 
ATOM     21  C   UNL     1      -3.252  11.542  18.600  0.00  0.00    +0.000 A 
ATOM     22  C   UNL     1      -3.546  10.634  17.592  0.00  0.00    +0.000 A 
ATOM     23  F   UNL     1      -4.798  10.554  17.123  0.00  0.00    +0.000 F 
ATOM     24  C   UNL     1      -2.556   9.818  17.055  0.00  0.00    +0.000 A 
ATOM     25  C   UNL     1      -1.245   9.915  17.532  0.00  0.00    +0.000 A 
ENDBRANCH  18  19
ENDBRANCH   4  18
TORSDOF 4
ENDMDL
MODEL 2
REMARK VINA RESULT:      -8.0      1.686      2.762
REMARK  Name = 
REMARK  4 active torsions:
REMARK  status: ('A' for Active; 'I' for Inactive)
REMARK    1  A    between atoms: C_2  and  C_3
REMARK    2  A    between atoms: C_6  and  S_7
REMARK    3  A    between atoms: S_7  and  C_8
REMARK    4  A    between atoms: C_15  and  N_16
REMARK                            x       y       z     vdW  Elec       q    Type
REMARK                         _______ _______ _______ _____ _____    ______ ____
ROOT
ATOM      1  C   UNL     1       2.732   7.141  18.586  0.00  0.00    +0.000 A 
ATOM      2  C   UNL     1       2.491   8.052  17.555  0.00  0.00    +0.000 A 
ATOM      3  C   UNL     1       1.832   9.260  17.807  0.00  0.00    +0.000 A 
ATOM      4  C   UNL     1       1.305   9.543  19.074  0.00  0.00    +0.000 A 
ATOM      5  C   UNL     1       1.467   8.571  20.073  0.00  0.00    +0.000 A 
ATOM      6  C   UNL     1       2.184   7.382  19.848  0.00  0.00    +0.000 A 
ENDROOT
BRANCH   1   8
ATOM      7  O   UNL     1       3.046   4.863  18.894  0.00  0.00    +0.000 OA
ATOM      8  C   UNL     1       3.490   5.880  18.362  0.00  0.00    +0.000 C 
ATOM      9  N   UNL     1       4.647   5.876  17.588  0.00  0.00    +0.000 N 
ATOM     10  C   UNL     1       5.237   4.591  17.192  0.00  0.00    +0.000 C 
ATOM     11  C   UNL     1       6.728   4.539  17.539  0.00  0.00    +0.000 C 
ATOM     12  O   UNL     1       7.429   5.654  16.964  0.00  0.00    +0.000 OA
ATOM     13  C   UNL     1       6.906   6.887  17.473  0.00  0.00    +0.000 C 
ATOM     14  C   UNL     1       5.421   7.040  17.135  0.00  0.00    +0.000 C 
ENDBRANCH   1   8
BRANCH   5  15
ATOM     15  N   UNL     1       0.890   8.748  21.389  0.00  0.00    +0.000 N 
ATOM     16  O   UNL     1       1.591   9.286  22.252  0.00  0.00    +0.000 OA
ATOM     17  O   UNL     1      -0.291   8.399  21.534  0.00  0.00    +0.000 OA
ENDBRANCH   5  15
BRANCH   4  18
ATOM     18  S   UNL     1       0.617  11.173  19.322  0.00  0.00    +0.000 S 
BRANCH  18  19
ATOM     19  C   UNL     1      -1.059  10.966  18.751  0.00  0.00    +0.000 A 
ATOM     20  C   UNL     1      -2.041  11.858  19.197  0.00  0.00    +0.000 A 
ATOM     21  C   UNL     1      -3.347  11.777  18.714  0.00  0.00    +0.000 A 
ATOM     22  C   UNL     1      -3.667  10.808  17.772  0.00  0.00    +0.000 A 
ATOM     23  F   UNL     1      -4.915  10.745  17.291  0.00  0.00    +0.000 F 
ATOM     24  C   UNL     1      -2.706   9.914  17.312  0.00  0.00    +0.000 A 
ATOM     25  C   UNL     1      -1.398   9.993  17.801  0.00  0.00    +0.000 A 
ENDBRANCH  18  19
ENDBRANCH   4  18
TORSDOF 4
ENDMDL
MODEL 3
REMARK VINA RESULT:      -7.9      0.213      1.168
REMARK  Name = 
REMARK  4 active torsions:
REMARK  status: ('A' for Active; 'I' for Inactive)
REMARK    1  A    between atoms: C_2  and  C_3
REMARK    2  A    between atoms: C_6  and  S_7
REMARK    3  A    between atoms: S_7  and  C_8
REMARK    4  A    between atoms: C_15  and  N_16
REMARK                            x       y       z     vdW  Elec       q    Type
REMARK                         _______ _______ _______ _____ _____    ______ ____
ROOT
ATOM      1  C   UNL     1       2.694   7.012  18.908  0.00  0.00    +0.000 A 
ATOM      2  C   UNL     1       2.577   7.880  17.820  0.00  0.00    +0.000 A 
ATOM      3  C   UNL     1       1.976   9.135  17.967  0.00  0.00    +0.000 A 
ATOM      4  C   UNL     1       1.385   9.514  19.179  0.00  0.00    +0.000 A 
ATOM      5  C   UNL     1       1.421   8.588  20.233  0.00  0.00    +0.000 A 
ATOM      6  C   UNL     1       2.080   7.350  20.116  0.00  0.00    +0.000 A 
ENDROOT
BRANCH   1   8
ATOM      7  O   UNL     1       4.479   5.696  18.227  0.00  0.00    +0.000 OA
ATOM      8  C   UNL     1       3.388   5.701  18.798  0.00  0.00    +0.000 C 
ATOM      9  N   UNL     1       2.810   4.546  19.319  0.00  0.00    +0.000 N 
ATOM     10  C   UNL     1       3.615   3.320  19.404  0.00  0.00    +0.000 C 
ATOM     11  C   UNL     1       2.885   2.136  18.765  0.00  0.00    +0.000 C 
ATOM     12  O   UNL     1       1.579   1.965  19.340  0.00  0.00    +0.000 OA
ATOM     13  C   UNL     1       0.782   3.136  19.124  0.00  0.00    +0.000 C 
ATOM     14  C   UNL     1       1.423   4.368  19.769  0.00  0.00    +0.000 C 
ENDBRANCH   1   8
BRANCH   5  15
ATOM     15  N   UNL     1       0.771   8.866  21.496  0.00  0.00    +0.000 N 
ATOM     16  O   UNL     1       1.430   9.453  22.361  0.00  0.00    +0.000 OA
ATOM     17  O   UNL     1      -0.423   8.546  21.593  0.00  0.00    +0.000 OA
ENDBRANCH   5  15
BRANCH   4  18
ATOM     18  S   UNL     1       0.780  11.190  19.300  0.00  0.00    +0.000 S 
BRANCH  18  19
ATOM     19  C   UNL     1      -0.881  11.039  18.673  0.00  0.00    +0.000 A 
ATOM     20  C   UNL     1      -1.170  10.014  17.764  0.00  0.00    +0.000 A 
ATOM     21  C   UNL     1      -2.473   9.815  17.309  0.00  0.00    +0.000 A 
ATOM     22  C   UNL     1      -3.492  10.635  17.776  0.00  0.00    +0.000 A 
ATOM     23  F   UNL     1      -4.748  10.428  17.357  0.00  0.00    +0.000 F 
ATOM     24  C   UNL     1      -3.229  11.655  18.683  0.00  0.00    +0.000 A 
ATOM     25  C   UNL     1      -1.920  11.858  19.135  0.00  0.00    +0.000 A 
ENDBRANCH  18  19
ENDBRANCH   4  18
TORSDOF 4
ENDMDL
MODEL 4
REMARK VINA RESULT:      -7.8      1.698      2.842
REMARK  Name = 
REMARK  4 active torsions:
REMARK  status: ('A' for Active; 'I' for Inactive)
REMARK    1  A    between atoms: C_2  and  C_3
REMARK    2  A    between atoms: C_6  and  S_7
REMARK    3  A    between atoms: S_7  and  C_8
REMARK    4  A    between atoms: C_15  and  N_16
REMARK                            x       y       z     vdW  Elec       q    Type
REMARK                         _______ _______ _______ _____ _____    ______ ____
ROOT
ATOM      1  C   UNL     1       2.682   7.237  18.620  0.00  0.00    +0.000 A 
ATOM      2  C   UNL     1       2.485   8.171  17.599  0.00  0.00    +0.000 A 
ATOM      3  C   UNL     1       1.850   9.390  17.857  0.00  0.00    +0.000 A 
ATOM      4  C   UNL     1       1.302   9.665  19.117  0.00  0.00    +0.000 A 
ATOM      5  C   UNL     1       1.419   8.673  20.103  0.00  0.00    +0.000 A 
ATOM      6  C   UNL     1       2.113   7.471  19.874  0.00  0.00    +0.000 A 
ENDROOT
BRANCH   1   8
ATOM      7  O   UNL     1       2.957   4.954  18.929  0.00  0.00    +0.000 OA
ATOM      8  C   UNL     1       3.414   5.962  18.391  0.00  0.00    +0.000 C 
ATOM      9  N   UNL     1       4.564   5.936  17.606  0.00  0.00    +0.000 N 
ATOM     10  C   UNL     1       5.127   4.639  17.207  0.00  0.00    +0.000 C 
ATOM     11  C   UNL     1       6.619   4.561  17.539  0.00  0.00    +0.000 C 
ATOM     12  O   UNL     1       7.335   5.663  16.956  0.00  0.00    +0.000 OA
ATOM     13  C   UNL     1       6.839   6.906  17.467  0.00  0.00    +0.000 C 
ATOM     14  C   UNL     1       5.354   7.085  17.143  0.00  0.00    +0.000 C 
ENDBRANCH   1   8
BRANCH   5  15
ATOM     15  N   UNL     1       0.819   8.843  21.410  0.00  0.00    +0.000 N 
ATOM     16  O   UNL     1      -0.337   8.435  21.565  0.00  0.00    +0.000 OA
ATOM     17  O   UNL     1       1.535   9.333  22.295  0.00  0.00    +0.000 OA
ENDBRANCH   5  15
BRANCH   4  18
ATOM     18  S   UNL     1       0.647  11.307  19.378  0.00  0.00    +0.000 S 
BRANCH  18  19
ATOM     19  C   UNL     1      -1.013  11.155  18.748  0.00  0.00    +0.000 A 
ATOM     20  C   UNL     1      -1.311  10.103  17.873  0.00  0.00    +0.000 A 
ATOM     21  C   UNL     1      -2.615   9.905  17.419  0.00  0.00    +0.000 A 
ATOM     22  C   UNL     1      -3.625  10.754  17.851  0.00  0.00    +0.000 A 
ATOM     23  F   UNL     1      -4.881  10.550  17.433  0.00  0.00    +0.000 F 
ATOM     24  C   UNL     1      -3.352  11.802  18.723  0.00  0.00    +0.000 A 
ATOM     25  C   UNL     1      -2.043  12.004  19.175  0.00  0.00    +0.000 A 
ENDBRANCH  18  19
ENDBRANCH   4  18
TORSDOF 4
ENDMDL
MODEL 5
REMARK VINA RESULT:      -7.7      4.038      7.797
REMARK  Name = 
REMARK  4 active torsions:
REMARK  status: ('A' for Active; 'I' for Inactive)
REMARK    1  A    between atoms: C_2  and  C_3
REMARK    2  A    between atoms: C_6  and  S_7
REMARK    3  A    between atoms: S_7  and  C_8
REMARK    4  A    between atoms: C_15  and  N_16
REMARK                            x       y       z     vdW  Elec       q    Type
REMARK                         _______ _______ _______ _____ _____    ______ ____
ROOT
ATOM      1  C   UNL     1       1.920   7.262  20.222  0.00  0.00    +0.000 A 
ATOM      2  C   UNL     1       2.892   7.254  19.217  0.00  0.00    +0.000 A 
ATOM      3  C   UNL     1       3.394   6.048  18.717  0.00  0.00    +0.000 A 
ATOM      4  C   UNL     1       3.016   4.822  19.278  0.00  0.00    +0.000 A 
ATOM      5  C   UNL     1       2.117   4.854  20.356  0.00  0.00    +0.000 A 
ATOM      6  C   UNL     1       1.555   6.056  20.823  0.00  0.00    +0.000 A 
ENDROOT
BRANCH   1   8
ATOM      7  O   UNL     1       1.159   8.620  21.942  0.00  0.00    +0.000 OA
ATOM      8  C   UNL     1       1.319   8.527  20.725  0.00  0.00    +0.000 C 
ATOM      9  N   UNL     1       0.956   9.541  19.842  0.00  0.00    +0.000 N 
ATOM     10  C   UNL     1       0.587  10.857  20.379  0.00  0.00    +0.000 C 
ATOM     11  C   UNL     1      -0.759  11.323  19.817  0.00  0.00    +0.000 C 
ATOM     12  O   UNL     1      -0.749  11.310  18.380  0.00  0.00    +0.000 OA
ATOM     13  C   UNL     1      -0.511   9.983  17.896  0.00  0.00    +0.000 C 
ATOM     14  C   UNL     1       0.839   9.451  18.381  0.00  0.00    +0.000 C 
ENDBRANCH   1   8
BRANCH   5  15
ATOM     15  N   UNL     1       1.729   3.640  21.043  0.00  0.00    +0.000 N 
ATOM     16  O   UNL     1       2.318   3.365  22.094  0.00  0.00    +0.000 OA
ATOM     17  O   UNL     1       0.788   2.997  20.554  0.00  0.00    +0.000 OA
ENDBRANCH   5  15
BRANCH   4  18
ATOM     18  S   UNL     1       3.601   3.341  18.468  0.00  0.00    +0.000 S 
BRANCH  18  19
ATOM     19  C   UNL     1       4.818   3.987  17.336  0.00  0.00    +0.000 A 
ATOM     20  C   UNL     1       6.105   4.263  17.813  0.00  0.00    +0.000 A 
ATOM     21  C   UNL     1       7.105   4.697  16.943  0.00  0.00    +0.000 A 
ATOM     22  C   UNL     1       6.821   4.841  15.592  0.00  0.00    +0.000 A 
ATOM     23  F   UNL     1       7.788   5.234  14.753  0.00  0.00    +0.000 F 
ATOM     24  C   UNL     1       5.551   4.567  15.097  0.00  0.00    +0.000 A 
ATOM     25  C   UNL     1       4.545   4.137  15.970  0.00  0.00    +0.000 A 
ENDBRANCH  18  19
ENDBRANCH   4  18
TORSDOF 4
ENDMDL
MODEL 6
REMARK VINA RESULT:      -7.7      0.817      1.067
REMARK  Name = 
REMARK  4 active torsions:
REMARK  status: ('A' for Active; 'I' for Inactive)
REMARK    1  A    between atoms: C_2  and  C_3
REMARK    2  A    between atoms: C_6  and  S_7
REMARK    3  A    between atoms: S_7  and  C_8
REMARK    4  A    between atoms: C_15  and  N_16
REMARK                            x       y       z     vdW  Elec       q    Type
REMARK                         _______ _______ _______ _____ _____    ______ ____
ROOT
ATOM      1  C   UNL     1       2.583   7.208  18.847  0.00  0.00    +0.000 A 
ATOM      2  C   UNL     1       2.209   8.030  17.780  0.00  0.00    +0.000 A 
ATOM      3  C   UNL     1       1.449   9.184  18.000  0.00  0.00    +0.000 A 
ATOM      4  C   UNL     1       0.955   9.491  19.274  0.00  0.00    +0.000 A 
ATOM      5  C   UNL     1       1.254   8.599  20.315  0.00  0.00    +0.000 A 
ATOM      6  C   UNL     1       2.072   7.471  20.120  0.00  0.00    +0.000 A 
ENDROOT
BRANCH   1   8
ATOM      7  O   UNL     1       4.570   6.208  18.188  0.00  0.00    +0.000 OA
ATOM      8  C   UNL     1       3.447   6.012  18.653  0.00  0.00    +0.000 C 
ATOM      9  N   UNL     1       2.985   4.741  18.983  0.00  0.00    +0.000 N 
ATOM     10  C   UNL     1       3.932   3.619  19.004  0.00  0.00    +0.000 C 
ATOM     11  C   UNL     1       3.413   2.445  18.169  0.00  0.00    +0.000 C 
ATOM     12  O   UNL     1       2.099   2.050  18.598  0.00  0.00    +0.000 OA
ATOM     13  C   UNL     1       1.177   3.135  18.443  0.00  0.00    +0.000 C 
ATOM     14  C   UNL     1       1.601   4.345  19.280  0.00  0.00    +0.000 C 
ENDBRANCH   1   8
BRANCH   5  15
ATOM     15  N   UNL     1       0.724   8.799  21.648  0.00  0.00    +0.000 N 
ATOM     16  O   UNL     1       1.471   9.310  22.489  0.00  0.00    +0.000 OA
ATOM     17  O   UNL     1      -0.465   8.496  21.828  0.00  0.00    +0.000 OA
ENDBRANCH   5  15
BRANCH   4  18
ATOM     18  S   UNL     1       0.125  11.061  19.469  0.00  0.00    +0.000 S 
BRANCH  18  19
ATOM     19  C   UNL     1      -1.288  10.876  18.398  0.00  0.00    +0.000 A 
ATOM     20  C   UNL     1      -1.498  11.820  17.386  0.00  0.00    +0.000 A 
ATOM     21  C   UNL     1      -2.548  11.668  16.480  0.00  0.00    +0.000 A 
ATOM     22  C   UNL     1      -3.381  10.562  16.580  0.00  0.00    +0.000 A 
ATOM     23  F   UNL     1      -4.375  10.405  15.696  0.00  0.00    +0.000 F 
ATOM     24  C   UNL     1      -3.188   9.611  17.576  0.00  0.00    +0.000 A 
ATOM     25  C   UNL     1      -2.138   9.766  18.487  0.00  0.00    +0.000 A 
ENDBRANCH  18  19
ENDBRANCH   4  18
TORSDOF 4
ENDMDL
MODEL 7
REMARK VINA RESULT:      -7.6      4.533      8.027
REMARK  Name = 
REMARK  4 active torsions:
REMARK  status: ('A' for Active; 'I' for Inactive)
REMARK    1  A    between atoms: C_2  and  C_3
REMARK    2  A    between atoms: C_6  and  S_7
REMARK    3  A    between atoms: S_7  and  C_8
REMARK    4  A    between atoms: C_15  and  N_16
REMARK                            x       y       z     vdW  Elec       q    Type
REMARK                         _______ _______ _______ _____ _____    ______ ____
ROOT
ATOM      1  C   UNL     1       2.531   7.496  18.182  0.00  0.00    +0.000 A 
ATOM      2  C   UNL     1       3.865   7.390  17.777  0.00  0.00    +0.000 A 
ATOM      3  C   UNL     1       4.443   6.138  17.542  0.00  0.00    +0.000 A 
ATOM      4  C   UNL     1       3.738   4.957  17.806  0.00  0.00    +0.000 A 
ATOM      5  C   UNL     1       2.435   5.081  18.310  0.00  0.00    +0.000 A 
ATOM      6  C   UNL     1       1.820   6.334  18.488  0.00  0.00    +0.000 A 
ENDROOT
BRANCH   1   8
ATOM      7  O   UNL     1       1.960   9.621  17.448  0.00  0.00    +0.000 OA
ATOM      8  C   UNL     1       1.869   8.815  18.374  0.00  0.00    +0.000 C 
ATOM      9  N   UNL     1       1.190   9.103  19.555  0.00  0.00    +0.000 N 
ATOM     10  C   UNL     1       0.355  10.309  19.622  0.00  0.00    +0.000 C 
ATOM     11  C   UNL     1       0.704  11.153  20.851  0.00  0.00    +0.000 C 
ATOM     12  O   UNL     1       0.621  10.371  22.053  0.00  0.00    +0.000 OA
ATOM     13  C   UNL     1       1.543   9.276  22.001  0.00  0.00    +0.000 C 
ATOM     14  C   UNL     1       1.239   8.354  20.817  0.00  0.00    +0.000 C 
ENDBRANCH   1   8
BRANCH   5  15
ATOM     15  N   UNL     1       1.661   3.915  18.680  0.00  0.00    +0.000 N 
ATOM     16  O   UNL     1       0.965   3.390  17.805  0.00  0.00    +0.000 OA
ATOM     17  O   UNL     1       1.804   3.492  19.837  0.00  0.00    +0.000 OA
ENDBRANCH   5  15
BRANCH   4  18
ATOM     18  S   UNL     1       4.518   3.421  17.330  0.00  0.00    +0.000 S 
BRANCH  18  19
ATOM     19  C   UNL     1       5.613   3.942  16.025  0.00  0.00    +0.000 A 
ATOM     20  C   UNL     1       5.182   3.835  14.697  0.00  0.00    +0.000 A 
ATOM     21  C   UNL     1       5.979   4.302  13.652  0.00  0.00    +0.000 A 
ATOM     22  C   UNL     1       7.203   4.891  13.937  0.00  0.00    +0.000 A 
ATOM     23  F   UNL     1       7.958   5.361  12.935  0.00  0.00    +0.000 F 
ATOM     24  C   UNL     1       7.649   5.011  15.249  0.00  0.00    +0.000 A 
ATOM     25  C   UNL     1       6.852   4.538  16.297  0.00  0.00    +0.000 A 
ENDBRANCH  18  19
ENDBRANCH   4  18
TORSDOF 4
ENDMDL
MODEL 8
REMARK VINA RESULT:      -7.5      2.996      3.670
REMARK  Name = 
REMARK  4 active torsions:
REMARK  status: ('A' for Active; 'I' for Inactive)
REMARK    1  A    between atoms: C_2  and  C_3
REMARK    2  A    between atoms: C_6  and  S_7
REMARK    3  A    between atoms: S_7  and  C_8
REMARK    4  A    between atoms: C_15  and  N_16
REMARK                            x       y       z     vdW  Elec       q    Type
REMARK                         _______ _______ _______ _____ _____    ______ ____
ROOT
ATOM      1  C   UNL     1       2.580   7.281  18.835  0.00  0.00    +0.000 A 
ATOM      2  C   UNL     1       2.205   8.036  17.720  0.00  0.00    +0.000 A 
ATOM      3  C   UNL     1       1.424   9.187  17.866  0.00  0.00    +0.000 A 
ATOM      4  C   UNL     1       0.912   9.558  19.116  0.00  0.00    +0.000 A 
ATOM      5  C   UNL     1       1.214   8.731  20.209  0.00  0.00    +0.000 A 
ATOM      6  C   UNL     1       2.051   7.608  20.086  0.00  0.00    +0.000 A 
ENDROOT
BRANCH   1   8
ATOM      7  O   UNL     1       4.605   6.286  18.293  0.00  0.00    +0.000 OA
ATOM      8  C   UNL     1       3.466   6.091  18.718  0.00  0.00    +0.000 C 
ATOM      9  N   UNL     1       3.005   4.826  19.073  0.00  0.00    +0.000 N 
ATOM     10  C   UNL     1       3.964   3.718  19.171  0.00  0.00    +0.000 C 
ATOM     11  C   UNL     1       3.494   2.509  18.357  0.00  0.00    +0.000 C 
ATOM     12  O   UNL     1       2.168   2.112  18.746  0.00  0.00    +0.000 OA
ATOM     13  C   UNL     1       1.240   3.179  18.516  0.00  0.00    +0.000 C 
ATOM     14  C   UNL     1       1.615   4.422  19.327  0.00  0.00    +0.000 C 
ENDBRANCH   1   8
BRANCH   5  15
ATOM     15  N   UNL     1       0.666   8.997  21.523  0.00  0.00    +0.000 N 
ATOM     16  O   UNL     1      -0.446   8.527  21.785  0.00  0.00    +0.000 OA
ATOM     17  O   UNL     1       1.385   9.629  22.311  0.00  0.00    +0.000 OA
ENDBRANCH   5  15
BRANCH   4  18
ATOM     18  S   UNL     1       0.054  11.122  19.213  0.00  0.00    +0.000 S 
BRANCH  18  19
ATOM     19  C   UNL     1       1.398  12.277  19.405  0.00  0.00    +0.000 A 
ATOM     20  C   UNL     1       2.053  12.749  18.262  0.00  0.00    +0.000 A 
ATOM     21  C   UNL     1       3.057  13.712  18.366  0.00  0.00    +0.000 A 
ATOM     22  C   UNL     1       3.398  14.211  19.616  0.00  0.00    +0.000 A 
ATOM     23  F   UNL     1       4.346  15.152  19.713  0.00  0.00    +0.000 F 
ATOM     24  C   UNL     1       2.757  13.759  20.764  0.00  0.00    +0.000 A 
ATOM     25  C   UNL     1       1.753  12.791  20.660  0.00  0.00    +0.000 A 
ENDBRANCH  18  19
ENDBRANCH   4  18
TORSDOF 4
ENDMDL
MODEL 9
REMARK VINA RESULT:      -7.3      3.949      7.901
REMARK  Name = 
REMARK  4 active torsions:
REMARK  status: ('A' for Active; 'I' for Inactive)
REMARK    1  A    between atoms: C_2  and  C_3
REMARK    2  A    between atoms: C_6  and  S_7
REMARK    3  A    between atoms: S_7  and  C_8
REMARK    4  A    between atoms: C_15  and  N_16
REMARK                            x       y       z     vdW  Elec       q    Type
REMARK                         _______ _______ _______ _____ _____    ______ ____
ROOT
ATOM      1  C   UNL     1       1.484   8.409  20.246  0.00  0.00    +0.000 A 
ATOM      2  C   UNL     1       2.058   8.502  18.975  0.00  0.00    +0.000 A 
ATOM      3  C   UNL     1       2.366   7.350  18.243  0.00  0.00    +0.000 A 
ATOM      4  C   UNL     1       2.205   6.076  18.802  0.00  0.00    +0.000 A 
ATOM      5  C   UNL     1       1.723   6.004  20.118  0.00  0.00    +0.000 A 
ATOM      6  C   UNL     1       1.348   7.152  20.840  0.00  0.00    +0.000 A 
ENDROOT
BRANCH   1   8
ATOM      7  O   UNL     1       1.374   9.630  22.216  0.00  0.00    +0.000 OA
ATOM      8  C   UNL     1       1.083   9.615  21.020  0.00  0.00    +0.000 C 
ATOM      9  N   UNL     1       0.407  10.663  20.400  0.00  0.00    +0.000 N 
ATOM     10  C   UNL     1       0.235  11.929  21.124  0.00  0.00    +0.000 C 
ATOM     11  C   UNL     1      -1.231  12.371  21.119  0.00  0.00    +0.000 C 
ATOM     12  O   UNL     1      -1.742  12.442  19.778  0.00  0.00    +0.000 OA
ATOM     13  C   UNL     1      -1.673  11.157  19.149  0.00  0.00    +0.000 C 
ATOM     14  C   UNL     1      -0.229  10.654  19.076  0.00  0.00    +0.000 C 
ENDBRANCH   1   8
BRANCH   5  15
ATOM     15  N   UNL     1       1.595   4.733  20.799  0.00  0.00    +0.000 N 
ATOM     16  O   UNL     1       0.625   4.024  20.510  0.00  0.00    +0.000 OA
ATOM     17  O   UNL     1       2.505   4.423  21.582  0.00  0.00    +0.000 OA
ENDBRANCH   5  15
BRANCH   4  18
ATOM     18  S   UNL     1       2.487   4.676  17.729  0.00  0.00    +0.000 S 
BRANCH  18  19
ATOM     19  C   UNL     1       4.265   4.646  17.607  0.00  0.00    +0.000 A 
ATOM     20  C   UNL     1       5.025   4.873  18.760  0.00  0.00    +0.000 A 
ATOM     21  C   UNL     1       6.417   4.783  18.722  0.00  0.00    +0.000 A 
ATOM     22  C   UNL     1       7.047   4.451  17.530  0.00  0.00    +0.000 A 
ATOM     23  F   UNL     1       8.381   4.341  17.499  0.00  0.00    +0.000 F 
ATOM     24  C   UNL     1       6.310   4.217  16.374  0.00  0.00    +0.000 A 
ATOM     25  C   UNL     1       4.915   4.313  16.411  0.00  0.00    +0.000 A 
ENDBRANCH  18  19
ENDBRANCH   4  18
TORSDOF 4
ENDMDL
