MODEL 1
REMARK VINA RESULT:      -7.6      0.000      0.000
REMARK  Name = 
REMARK  6 active torsions:
REMARK  status: ('A' for Active; 'I' for Inactive)
REMARK    1  A    between atoms: C_2  and  C_3
REMARK    2  A    between atoms: N_6  and  C_7
REMARK    3  A    between atoms: C_7  and  C_8
REMARK    4  A    between atoms: C_8  and  N_9
REMARK    5  A    between atoms: C_13  and  C_14
REMARK    6  A    between atoms: C_14  and  N_15
REMARK                            x       y       z     vdW  Elec       q    Type
REMARK                         _______ _______ _______ _____ _____    ______ ____
ROOT
ATOM      1  N   UNL     1       1.367   4.716  19.259  0.00  0.00    +0.000 NA
ATOM      2  C   UNL     1       0.917   3.712  20.251  0.00  0.00    +0.000 C 
ATOM      3  C   UNL     1       1.877   2.521  20.402  0.00  0.00    +0.000 C 
ATOM      4  O   UNL     1       2.049   1.844  19.152  0.00  0.00    +0.000 OA
ATOM      5  C   UNL     1       2.557   2.712  18.120  0.00  0.00    +0.000 C 
ATOM      6  C   UNL     1       1.704   4.003  18.007  0.00  0.00    +0.000 C 
ENDROOT
BRANCH   1   7
ATOM      7  C   UNL     1       2.423   5.597  19.799  0.00  0.00    +0.000 C 
BRANCH   7   8
ATOM      8  C   UNL     1       2.523   6.941  19.058  0.00  0.00    +0.000 C 
BRANCH   8  12
ATOM      9  C   UNL     1       0.824   9.233  21.254  0.00  0.00    +0.000 A 
ATOM     10  C   UNL     1       0.752   9.809  19.974  0.00  0.00    +0.000 A 
ATOM     11  N   UNL     1       1.419   9.094  19.064  0.00  0.00    +0.000 NA
ATOM     12  N   UNL     1       1.910   8.050  19.761  0.00  0.00    +0.000 N 
ATOM     13  C   UNL     1       1.582   8.094  21.090  0.00  0.00    +0.000 A 
BRANCH   9  15
ATOM     14  N   UNL     1      -0.262  10.083  23.439  0.00  0.00    +0.000 NA
ATOM     15  C   UNL     1       0.223   9.698  22.461  0.00  0.00    +0.000 C 
ENDBRANCH   9  15
ENDBRANCH   8  12
ENDBRANCH   7   8
ENDBRANCH   1   7
BRANCH   5  16
ATOM     16  C   UNL     1       4.070   2.982  18.264  0.00  0.00    +0.000 C 
BRANCH  16  17
ATOM     17  N   UNL     1       4.513   4.035  17.336  0.00  0.00    +0.000 N 
ATOM     18  C   UNL     1       5.605   4.776  17.826  0.00  0.00    +0.000 A 
ATOM     19  C   UNL     1       6.132   5.788  17.035  0.00  0.00    +0.000 A 
ATOM     20  C   UNL     1       7.219   6.523  17.501  0.00  0.00    +0.000 A 
ATOM     21  C   UNL     1       7.734   6.210  18.739  0.00  0.00    +0.000 A 
ATOM     22  N   UNL     1       7.229   5.221  19.495  0.00  0.00    +0.000 NA
ATOM     23  N   UNL     1       6.166   4.499  19.024  0.00  0.00    +0.000 NA
ATOM     24  H   UNL     1       3.766   4.664  17.058  0.00  0.00    +0.000 HD
ENDBRANCH  16  17
ENDBRANCH   5  16
TORSDOF 6
ENDMDL
MODEL 2
REMARK VINA RESULT:      -7.4      1.070      1.599
REMARK  Name = 
REMARK  6 active torsions:
REMARK  status: ('A' for Active; 'I' for Inactive)
REMARK    1  A    between atoms: C_2  and  C_3
REMARK    2  A    between atoms: N_6  and  C_7
REMARK    3  A    between atoms: C_7  and  C_8
REMARK    4  A    between atoms: C_8  and  N_9
REMARK    5  A    between atoms: C_13  and  C_14
REMARK    6  A    between atoms: C_14  and  N_15
REMARK                            x       y       z     vdW  Elec       q    Type
REMARK                         _______ _______ _______ _____ _____    ______ ____
ROOT
ATOM      1  N   UNL     1       1.543   4.713  19.230  0.00  0.00    +0.000 NA
ATOM      2  C   UNL     1       0.930   3.778  20.202  0.00  0.00    +0.000 C 
ATOM      3  C   UNL     1       1.747   2.495  20.423  0.00  0.00    +0.000 C 
ATOM      4  O   UNL     1       1.920   1.784  19.193  0.00  0.00    +0.000 OA
ATOM      5  C   UNL     1       2.578   2.576  18.185  0.00  0.00    +0.000 C 
ATOM      6  C   UNL     1       1.876   3.948  18.007  0.00  0.00    +0.000 C 
ENDROOT
BRANCH   1   7
ATOM      7  C   UNL     1       2.652   5.486  19.824  0.00  0.00    +0.000 C 
BRANCH   7   8
ATOM      8  C   UNL     1       2.943   6.796  19.073  0.00  0.00    +0.000 C 
BRANCH   8  12
ATOM      9  C   UNL     1       0.972   9.796  19.350  0.00  0.00    +0.000 A 
ATOM     10  C   UNL     1       0.926   9.192  20.619  0.00  0.00    +0.000 A 
ATOM     11  N   UNL     1       1.558   8.015  20.638  0.00  0.00    +0.000 NA
ATOM     12  N   UNL     1       2.020   7.871  19.380  0.00  0.00    +0.000 N 
ATOM     13  C   UNL     1       1.686   8.918  18.565  0.00  0.00    +0.000 A 
BRANCH   9  15
ATOM     14  N   UNL     1      -0.017  12.075  18.642  0.00  0.00    +0.000 NA
ATOM     15  C   UNL     1       0.430  11.055  18.957  0.00  0.00    +0.000 C 
ENDBRANCH   9  15
ENDBRANCH   8  12
ENDBRANCH   7   8
ENDBRANCH   1   7
BRANCH   5  16
ATOM     16  C   UNL     1       4.100   2.687  18.418  0.00  0.00    +0.000 C 
BRANCH  16  17
ATOM     17  N   UNL     1       4.737   3.517  17.383  0.00  0.00    +0.000 N 
ATOM     18  C   UNL     1       5.713   4.389  17.902  0.00  0.00    +0.000 A 
ATOM     19  C   UNL     1       6.404   5.214  17.025  0.00  0.00    +0.000 A 
ATOM     20  C   UNL     1       7.380   6.074  17.521  0.00  0.00    +0.000 A 
ATOM     21  C   UNL     1       7.625   6.068  18.877  0.00  0.00    +0.000 A 
ATOM     22  N   UNL     1       6.963   5.258  19.719  0.00  0.00    +0.000 NA
ATOM     23  N   UNL     1       6.011   4.411  19.220  0.00  0.00    +0.000 NA
ATOM     24  H   UNL     1       4.070   4.039  16.823  0.00  0.00    +0.000 HD
ENDBRANCH  16  17
ENDBRANCH   5  16
TORSDOF 6
ENDMDL
MODEL 3
REMARK VINA RESULT:      -7.1      1.529      1.774
REMARK  Name = 
REMARK  6 active torsions:
REMARK  status: ('A' for Active; 'I' for Inactive)
REMARK    1  A    between atoms: C_2  and  C_3
REMARK    2  A    between atoms: N_6  and  C_7
REMARK    3  A    between atoms: C_7  and  C_8
REMARK    4  A    between atoms: C_8  and  N_9
REMARK    5  A    between atoms: C_13  and  C_14
REMARK    6  A    between atoms: C_14  and  N_15
REMARK                            x       y       z     vdW  Elec       q    Type
REMARK                         _______ _______ _______ _____ _____    ______ ____
ROOT
ATOM      1  N   UNL     1       1.501   4.588  18.997  0.00  0.00    +0.000 NA
ATOM      2  C   UNL     1       0.999   4.363  20.372  0.00  0.00    +0.000 C 
ATOM      3  C   UNL     1       1.942   3.519  21.243  0.00  0.00    +0.000 C 
ATOM      4  O   UNL     1       2.169   2.235  20.652  0.00  0.00    +0.000 OA
ATOM      5  C   UNL     1       2.732   2.329  19.329  0.00  0.00    +0.000 C 
ATOM      6  C   UNL     1       1.893   3.277  18.432  0.00  0.00    +0.000 C 
ENDROOT
BRANCH   1   7
ATOM      7  C   UNL     1       2.535   5.642  18.948  0.00  0.00    +0.000 C 
BRANCH   7   8
ATOM      8  C   UNL     1       2.295   6.769  19.966  0.00  0.00    +0.000 C 
BRANCH   8  12
ATOM      9  C   UNL     1       1.048   9.940  18.805  0.00  0.00    +0.000 A 
ATOM     10  C   UNL     1       1.941   9.497  17.814  0.00  0.00    +0.000 A 
ATOM     11  N   UNL     1       2.545   8.355  18.157  0.00  0.00    +0.000 NA
ATOM     12  N   UNL     1       2.027   8.060  19.365  0.00  0.00    +0.000 N 
ATOM     13  C   UNL     1       1.124   8.992  19.801  0.00  0.00    +0.000 A 
BRANCH   9  15
ATOM     14  N   UNL     1      -0.458  12.039  18.772  0.00  0.00    +0.000 NA
ATOM     15  C   UNL     1       0.218  11.099  18.782  0.00  0.00    +0.000 C 
ENDBRANCH   9  15
ENDBRANCH   8  12
ENDBRANCH   7   8
ENDBRANCH   1   7
BRANCH   5  16
ATOM     16  C   UNL     1       4.237   2.666  19.346  0.00  0.00    +0.000 C 
BRANCH  16  17
ATOM     17  N   UNL     1       4.648   3.327  18.098  0.00  0.00    +0.000 N 
ATOM     18  C   UNL     1       5.665   4.283  18.290  0.00  0.00    +0.000 A 
ATOM     19  C   UNL     1       6.157   4.964  17.185  0.00  0.00    +0.000 A 
ATOM     20  C   UNL     1       7.170   5.903  17.358  0.00  0.00    +0.000 A 
ATOM     21  C   UNL     1       7.650   6.117  18.632  0.00  0.00    +0.000 A 
ATOM     22  N   UNL     1       7.180   5.445  19.695  0.00  0.00    +0.000 NA
ATOM     23  N   UNL     1       6.190   4.518  19.513  0.00  0.00    +0.000 NA
ATOM     24  H   UNL     1       3.873   3.746  17.592  0.00  0.00    +0.000 HD
ENDBRANCH  16  17
ENDBRANCH   5  16
TORSDOF 6
ENDMDL
MODEL 4
REMARK VINA RESULT:      -7.0      1.836      6.379
REMARK  Name = 
REMARK  6 active torsions:
REMARK  status: ('A' for Active; 'I' for Inactive)
REMARK    1  A    between atoms: C_2  and  C_3
REMARK    2  A    between atoms: N_6  and  C_7
REMARK    3  A    between atoms: C_7  and  C_8
REMARK    4  A    between atoms: C_8  and  N_9
REMARK    5  A    between atoms: C_13  and  C_14
REMARK    6  A    between atoms: C_14  and  N_15
REMARK                            x       y       z     vdW  Elec       q    Type
REMARK                         _______ _______ _______ _____ _____    ______ ____
ROOT
ATOM      1  N   UNL     1       2.834   2.203  19.540  0.00  0.00    +0.000 NA
ATOM      2  C   UNL     1       1.448   2.097  19.027  0.00  0.00    +0.000 C 
ATOM      3  C   UNL     1       0.680   3.427  19.044  0.00  0.00    +0.000 C 
ATOM      4  O   UNL     1       0.607   3.956  20.373  0.00  0.00    +0.000 OA
ATOM      5  C   UNL     1       1.909   4.173  20.952  0.00  0.00    +0.000 C 
ATOM      6  C   UNL     1       2.786   2.897  20.846  0.00  0.00    +0.000 C 
ENDROOT
BRANCH   1   7
ATOM      7  C   UNL     1       3.754   2.781  18.540  0.00  0.00    +0.000 C 
BRANCH   7   8
ATOM      8  C   UNL     1       4.903   3.583  19.172  0.00  0.00    +0.000 C 
BRANCH   8  12
ATOM      9  C   UNL     1       6.781   4.742  16.326  0.00  0.00    +0.000 A 
ATOM     10  C   UNL     1       7.652   4.845  17.425  0.00  0.00    +0.000 A 
ATOM     11  N   UNL     1       7.053   4.518  18.574  0.00  0.00    +0.000 NA
ATOM     12  N   UNL     1       5.797   4.193  18.208  0.00  0.00    +0.000 N 
ATOM     13  C   UNL     1       5.584   4.319  16.861  0.00  0.00    +0.000 A 
BRANCH   9  15
ATOM     14  N   UNL     1       7.309   5.183  13.836  0.00  0.00    +0.000 NA
ATOM     15  C   UNL     1       7.068   4.988  14.952  0.00  0.00    +0.000 C 
ENDBRANCH   9  15
ENDBRANCH   8  12
ENDBRANCH   7   8
ENDBRANCH   1   7
BRANCH   5  16
ATOM     16  C   UNL     1       2.597   5.442  20.408  0.00  0.00    +0.000 C 
BRANCH  16  17
ATOM     17  N   UNL     1       1.909   6.659  20.868  0.00  0.00    +0.000 N 
ATOM     18  C   UNL     1       1.847   7.662  19.881  0.00  0.00    +0.000 A 
ATOM     19  C   UNL     1       1.204   8.855  20.183  0.00  0.00    +0.000 A 
ATOM     20  C   UNL     1       1.125   9.852  19.215  0.00  0.00    +0.000 A 
ATOM     21  C   UNL     1       1.692   9.610  17.983  0.00  0.00    +0.000 A 
ATOM     22  N   UNL     1       2.301   8.449  17.692  0.00  0.00    +0.000 NA
ATOM     23  N   UNL     1       2.365   7.472  18.648  0.00  0.00    +0.000 NA
ATOM     24  H   UNL     1       2.299   7.040  21.724  0.00  0.00    +0.000 HD
ENDBRANCH  16  17
ENDBRANCH   5  16
TORSDOF 6
ENDMDL
MODEL 5
REMARK VINA RESULT:      -6.9      2.194      6.289
REMARK  Name = 
REMARK  6 active torsions:
REMARK  status: ('A' for Active; 'I' for Inactive)
REMARK    1  A    between atoms: C_2  and  C_3
REMARK    2  A    between atoms: N_6  and  C_7
REMARK    3  A    between atoms: C_7  and  C_8
REMARK    4  A    between atoms: C_8  and  N_9
REMARK    5  A    between atoms: C_13  and  C_14
REMARK    6  A    between atoms: C_14  and  N_15
REMARK                            x       y       z     vdW  Elec       q    Type
REMARK                         _______ _______ _______ _____ _____    ______ ____
ROOT
ATOM      1  N   UNL     1       3.133   2.380  20.045  0.00  0.00    +0.000 NA
ATOM      2  C   UNL     1       1.885   2.091  19.302  0.00  0.00    +0.000 C 
ATOM      3  C   UNL     1       1.043   3.341  19.001  0.00  0.00    +0.000 C 
ATOM      4  O   UNL     1       0.677   4.011  20.213  0.00  0.00    +0.000 OA
ATOM      5  C   UNL     1       1.824   4.409  20.990  0.00  0.00    +0.000 C 
ATOM      6  C   UNL     1       2.786   3.213  21.217  0.00  0.00    +0.000 C 
ENDROOT
BRANCH   1   7
ATOM      7  C   UNL     1       4.192   2.918  19.166  0.00  0.00    +0.000 C 
BRANCH   7   8
ATOM      8  C   UNL     1       3.845   2.814  17.672  0.00  0.00    +0.000 C 
BRANCH   8  12
ATOM      9  C   UNL     1       5.929   4.887  15.593  0.00  0.00    +0.000 A 
ATOM     10  C   UNL     1       5.091   5.772  16.294  0.00  0.00    +0.000 A 
ATOM     11  N   UNL     1       4.201   5.125  17.053  0.00  0.00    +0.000 NA
ATOM     12  N   UNL     1       4.479   3.823  16.846  0.00  0.00    +0.000 N 
ATOM     13  C   UNL     1       5.510   3.629  15.967  0.00  0.00    +0.000 A 
BRANCH   9  15
ATOM     14  N   UNL     1       7.866   5.473  13.987  0.00  0.00    +0.000 NA
ATOM     15  C   UNL     1       7.001   5.208  14.710  0.00  0.00    +0.000 C 
ENDBRANCH   9  15
ENDBRANCH   8  12
ENDBRANCH   7   8
ENDBRANCH   1   7
BRANCH   5  16
ATOM     16  C   UNL     1       2.520   5.663  20.423  0.00  0.00    +0.000 C 
BRANCH  16  17
ATOM     17  N   UNL     1       1.805   6.890  20.809  0.00  0.00    +0.000 N 
ATOM     18  C   UNL     1       1.787   7.861  19.789  0.00  0.00    +0.000 A 
ATOM     19  C   UNL     1       1.124   9.059  20.021  0.00  0.00    +0.000 A 
ATOM     20  C   UNL     1       1.089  10.024  19.019  0.00  0.00    +0.000 A 
ATOM     21  C   UNL     1       1.717   9.747  17.824  0.00  0.00    +0.000 A 
ATOM     22  N   UNL     1       2.345   8.581  17.601  0.00  0.00    +0.000 NA
ATOM     23  N   UNL     1       2.366   7.635  18.590  0.00  0.00    +0.000 NA
ATOM     24  H   UNL     1       2.150   7.300  21.671  0.00  0.00    +0.000 HD
ENDBRANCH  16  17
ENDBRANCH   5  16
TORSDOF 6
ENDMDL
MODEL 6
REMARK VINA RESULT:      -6.9      0.856      1.109
REMARK  Name = 
REMARK  6 active torsions:
REMARK  status: ('A' for Active; 'I' for Inactive)
REMARK    1  A    between atoms: C_2  and  C_3
REMARK    2  A    between atoms: N_6  and  C_7
REMARK    3  A    between atoms: C_7  and  C_8
REMARK    4  A    between atoms: C_8  and  N_9
REMARK    5  A    between atoms: C_13  and  C_14
REMARK    6  A    between atoms: C_14  and  N_15
REMARK                            x       y       z     vdW  Elec       q    Type
REMARK                         _______ _______ _______ _____ _____    ______ ____
ROOT
ATOM      1  N   UNL     1       1.675   4.712  18.522  0.00  0.00    +0.000 NA
ATOM      2  C   UNL     1       1.040   3.928  19.607  0.00  0.00    +0.000 C 
ATOM      3  C   UNL     1       1.916   2.781  20.134  0.00  0.00    +0.000 C 
ATOM      4  O   UNL     1       2.246   1.868  19.081  0.00  0.00    +0.000 OA
ATOM      5  C   UNL     1       2.939   2.509  17.992  0.00  0.00    +0.000 C 
ATOM      6  C   UNL     1       2.166   3.761  17.500  0.00  0.00    +0.000 C 
ENDROOT
BRANCH   1   7
ATOM      7  C   UNL     1       2.672   5.671  19.039  0.00  0.00    +0.000 C 
BRANCH   7   8
ATOM      8  C   UNL     1       2.365   7.126  18.650  0.00  0.00    +0.000 C 
BRANCH   8  12
ATOM      9  C   UNL     1       0.922   9.536  20.904  0.00  0.00    +0.000 A 
ATOM     10  C   UNL     1       1.054   8.351  21.648  0.00  0.00    +0.000 A 
ATOM     11  N   UNL     1       1.509   7.338  20.903  0.00  0.00    +0.000 NA
ATOM     12  N   UNL     1       1.680   7.881  19.682  0.00  0.00    +0.000 N 
ATOM     13  C   UNL     1       1.333   9.204  19.631  0.00  0.00    +0.000 A 
BRANCH   9  15
ATOM     14  N   UNL     1       0.143  11.855  21.733  0.00  0.00    +0.000 NA
ATOM     15  C   UNL     1       0.488  10.815  21.360  0.00  0.00    +0.000 C 
ENDBRANCH   9  15
ENDBRANCH   8  12
ENDBRANCH   7   8
ENDBRANCH   1   7
BRANCH   5  16
ATOM     16  C   UNL     1       4.422   2.786  18.314  0.00  0.00    +0.000 C 
BRANCH  16  17
ATOM     17  N   UNL     1       5.022   3.691  17.321  0.00  0.00    +0.000 N 
ATOM     18  C   UNL     1       5.977   4.563  17.877  0.00  0.00    +0.000 A 
ATOM     19  C   UNL     1       6.633   5.456  17.040  0.00  0.00    +0.000 A 
ATOM     20  C   UNL     1       7.587   6.317  17.573  0.00  0.00    +0.000 A 
ATOM     21  C   UNL     1       7.848   6.244  18.924  0.00  0.00    +0.000 A 
ATOM     22  N   UNL     1       7.221   5.370  19.727  0.00  0.00    +0.000 NA
ATOM     23  N   UNL     1       6.290   4.522  19.191  0.00  0.00    +0.000 NA
ATOM     24  H   UNL     1       4.334   4.223  16.796  0.00  0.00    +0.000 HD
ENDBRANCH  16  17
ENDBRANCH   5  16
TORSDOF 6
ENDMDL
MODEL 7
REMARK VINA RESULT:      -6.9      2.289      7.340
REMARK  Name = 
REMARK  6 active torsions:
REMARK  status: ('A' for Active; 'I' for Inactive)
REMARK    1  A    between atoms: C_2  and  C_3
REMARK    2  A    between atoms: N_6  and  C_7
REMARK    3  A    between atoms: C_7  and  C_8
REMARK    4  A    between atoms: C_8  and  N_9
REMARK    5  A    between atoms: C_13  and  C_14
REMARK    6  A    between atoms: C_14  and  N_15
REMARK                            x       y       z     vdW  Elec       q    Type
REMARK                         _______ _______ _______ _____ _____    ______ ____
ROOT
ATOM      1  N   UNL     1       4.397   3.782  18.919  0.00  0.00    +0.000 NA
ATOM      2  C   UNL     1       3.533   3.202  17.865  0.00  0.00    +0.000 C 
ATOM      3  C   UNL     1       2.250   4.008  17.607  0.00  0.00    +0.000 C 
ATOM      4  O   UNL     1       1.465   4.110  18.800  0.00  0.00    +0.000 OA
ATOM      5  C   UNL     1       2.184   4.732  19.883  0.00  0.00    +0.000 C 
ATOM      6  C   UNL     1       3.556   4.043  20.108  0.00  0.00    +0.000 C 
ENDROOT
BRANCH   1   7
ATOM      7  C   UNL     1       5.183   4.930  18.425  0.00  0.00    +0.000 C 
BRANCH   7   8
ATOM      8  C   UNL     1       6.512   4.515  17.773  0.00  0.00    +0.000 C 
BRANCH   8  12
ATOM      9  C   UNL     1       6.378   4.130  14.195  0.00  0.00    +0.000 A 
ATOM     10  C   UNL     1       7.256   5.202  14.430  0.00  0.00    +0.000 A 
ATOM     11  N   UNL     1       7.339   5.509  15.728  0.00  0.00    +0.000 NA
ATOM     12  N   UNL     1       6.520   4.622  16.327  0.00  0.00    +0.000 N 
ATOM     13  C   UNL     1       5.912   3.773  15.442  0.00  0.00    +0.000 A 
BRANCH   9  15
ATOM     14  N   UNL     1       5.791   3.012  11.942  0.00  0.00    +0.000 NA
ATOM     15  C   UNL     1       6.054   3.517  12.950  0.00  0.00    +0.000 C 
ENDBRANCH   9  15
ENDBRANCH   8  12
ENDBRANCH   7   8
ENDBRANCH   1   7
BRANCH   5  16
ATOM     16  C   UNL     1       2.280   6.264  19.729  0.00  0.00    +0.000 C 
BRANCH  16  17
ATOM     17  N   UNL     1       1.809   6.950  20.942  0.00  0.00    +0.000 N 
ATOM     18  C   UNL     1       1.413   8.281  20.703  0.00  0.00    +0.000 A 
ATOM     19  C   UNL     1       0.928   9.033  21.765  0.00  0.00    +0.000 A 
ATOM     20  C   UNL     1       0.522  10.346  21.542  0.00  0.00    +0.000 A 
ATOM     21  C   UNL     1       0.616  10.849  20.263  0.00  0.00    +0.000 A 
ATOM     22  N   UNL     1       1.074  10.113  19.237  0.00  0.00    +0.000 NA
ATOM     23  N   UNL     1       1.462   8.820  19.465  0.00  0.00    +0.000 NA
ATOM     24  H   UNL     1       2.479   6.922  21.705  0.00  0.00    +0.000 HD
ENDBRANCH  16  17
ENDBRANCH   5  16
TORSDOF 6
ENDMDL
MODEL 8
REMARK VINA RESULT:      -6.9      1.211      1.380
REMARK  Name = 
REMARK  6 active torsions:
REMARK  status: ('A' for Active; 'I' for Inactive)
REMARK    1  A    between atoms: C_2  and  C_3
REMARK    2  A    between atoms: N_6  and  C_7
REMARK    3  A    between atoms: C_7  and  C_8
REMARK    4  A    between atoms: C_8  and  N_9
REMARK    5  A    between atoms: C_13  and  C_14
REMARK    6  A    between atoms: C_14  and  N_15
REMARK                            x       y       z     vdW  Elec       q    Type
REMARK                         _______ _______ _______ _____ _____    ______ ____
ROOT
ATOM      1  N   UNL     1       2.160   4.661  19.496  0.00  0.00    +0.000 NA
ATOM      2  C   UNL     1       2.636   3.619  20.434  0.00  0.00    +0.000 C 
ATOM      3  C   UNL     1       3.838   2.819  19.910  0.00  0.00    +0.000 C 
ATOM      4  O   UNL     1       3.519   2.171  18.674  0.00  0.00    +0.000 OA
ATOM      5  C   UNL     1       3.110   3.102  17.653  0.00  0.00    +0.000 C 
ATOM      6  C   UNL     1       1.981   4.034  18.167  0.00  0.00    +0.000 C 
ENDROOT
BRANCH   1   7
ATOM      7  C   UNL     1       3.013   5.867  19.525  0.00  0.00    +0.000 C 
BRANCH   7   8
ATOM      8  C   UNL     1       2.419   7.044  18.734  0.00  0.00    +0.000 C 
BRANCH   8  12
ATOM      9  C   UNL     1       0.917   9.171  21.220  0.00  0.00    +0.000 A 
ATOM     10  C   UNL     1       0.767   9.850  19.998  0.00  0.00    +0.000 A 
ATOM     11  N   UNL     1       1.357   9.203  18.989  0.00  0.00    +0.000 NA
ATOM     12  N   UNL     1       1.876   8.100  19.565  0.00  0.00    +0.000 N 
ATOM     13  C   UNL     1       1.642   8.041  20.912  0.00  0.00    +0.000 A 
BRANCH   9  15
ATOM     14  N   UNL     1      -0.009   9.847  23.535  0.00  0.00    +0.000 NA
ATOM     15  C   UNL     1       0.411   9.545  22.499  0.00  0.00    +0.000 C 
ENDBRANCH   9  15
ENDBRANCH   8  12
ENDBRANCH   7   8
ENDBRANCH   1   7
BRANCH   5  16
ATOM     16  C   UNL     1       4.301   3.861  17.030  0.00  0.00    +0.000 C 
BRANCH  16  17
ATOM     17  N   UNL     1       5.421   3.963  17.979  0.00  0.00    +0.000 N 
ATOM     18  C   UNL     1       6.155   5.157  17.837  0.00  0.00    +0.000 A 
ATOM     19  C   UNL     1       7.227   5.386  18.689  0.00  0.00    +0.000 A 
ATOM     20  C   UNL     1       7.955   6.566  18.568  0.00  0.00    +0.000 A 
ATOM     21  C   UNL     1       7.575   7.470  17.600  0.00  0.00    +0.000 A 
ATOM     22  N   UNL     1       6.529   7.250  16.788  0.00  0.00    +0.000 NA
ATOM     23  N   UNL     1       5.814   6.090  16.921  0.00  0.00    +0.000 NA
ATOM     24  H   UNL     1       6.049   3.166  17.945  0.00  0.00    +0.000 HD
ENDBRANCH  16  17
ENDBRANCH   5  16
TORSDOF 6
ENDMDL
MODEL 9
REMARK VINA RESULT:      -6.9      1.800      5.706
REMARK  Name = 
REMARK  6 active torsions:
REMARK  status: ('A' for Active; 'I' for Inactive)
REMARK    1  A    between atoms: C_2  and  C_3
REMARK    2  A    between atoms: N_6  and  C_7
REMARK    3  A    between atoms: C_7  and  C_8
REMARK    4  A    between atoms: C_8  and  N_9
REMARK    5  A    between atoms: C_13  and  C_14
REMARK    6  A    between atoms: C_14  and  N_15
REMARK                            x       y       z     vdW  Elec       q    Type
REMARK                         _______ _______ _______ _____ _____    ______ ____
ROOT
ATOM      1  N   UNL     1       3.041   2.276  19.679  0.00  0.00    +0.000 NA
ATOM      2  C   UNL     1       1.682   2.011  19.153  0.00  0.00    +0.000 C 
ATOM      3  C   UNL     1       0.813   3.271  19.026  0.00  0.00    +0.000 C 
ATOM      4  O   UNL     1       0.665   3.918  20.295  0.00  0.00    +0.000 OA
ATOM      5  C   UNL     1       1.930   4.292  20.874  0.00  0.00    +0.000 C 
ATOM      6  C   UNL     1       2.906   3.086  20.910  0.00  0.00    +0.000 C 
ENDROOT
BRANCH   1   7
ATOM      7  C   UNL     1       3.940   2.827  18.644  0.00  0.00    +0.000 C 
BRANCH   7   8
ATOM      8  C   UNL     1       5.172   3.534  19.232  0.00  0.00    +0.000 C 
BRANCH   8  12
ATOM      9  C   UNL     1       6.661   6.393  17.627  0.00  0.00    +0.000 A 
ATOM     10  C   UNL     1       5.891   5.759  16.637  0.00  0.00    +0.000 A 
ATOM     11  N   UNL     1       5.339   4.625  17.079  0.00  0.00    +0.000 NA
ATOM     12  N   UNL     1       5.748   4.540  18.360  0.00  0.00    +0.000 N 
ATOM     13  C   UNL     1       6.553   5.581  18.735  0.00  0.00    +0.000 A 
BRANCH   9  15
ATOM     14  N   UNL     1       7.960   8.619  17.443  0.00  0.00    +0.000 NA
ATOM     15  C   UNL     1       7.376   7.622  17.530  0.00  0.00    +0.000 C 
ENDBRANCH   9  15
ENDBRANCH   8  12
ENDBRANCH   7   8
ENDBRANCH   1   7
BRANCH   5  16
ATOM     16  C   UNL     1       2.532   5.554  20.222  0.00  0.00    +0.000 C 
BRANCH  16  17
ATOM     17  N   UNL     1       1.852   6.771  20.693  0.00  0.00    +0.000 N 
ATOM     18  C   UNL     1       1.832   7.798  19.728  0.00  0.00    +0.000 A 
ATOM     19  C   UNL     1       1.201   8.994  20.042  0.00  0.00    +0.000 A 
ATOM     20  C   UNL     1       1.163  10.014  19.096  0.00  0.00    +0.000 A 
ATOM     21  C   UNL     1       1.757   9.791  17.873  0.00  0.00    +0.000 A 
ATOM     22  N   UNL     1       2.354   8.627  17.570  0.00  0.00    +0.000 NA
ATOM     23  N   UNL     1       2.378   7.627  18.505  0.00  0.00    +0.000 NA
ATOM     24  H   UNL     1       2.227   7.126  21.567  0.00  0.00    +0.000 HD
ENDBRANCH  16  17
ENDBRANCH   5  16
TORSDOF 6
ENDMDL
