MODEL 1
REMARK VINA RESULT:      -8.0      0.000      0.000
REMARK  Name = 
REMARK  6 active torsions:
REMARK  status: ('A' for Active; 'I' for Inactive)
REMARK    1  A    between atoms: C_1  and  O_2
REMARK    2  A    between atoms: O_2  and  C_3
REMARK    3  A    between atoms: N_10  and  S_11
REMARK    4  A    between atoms: S_11  and  C_14
REMARK    5  A    between atoms: C_25  and  O_26
REMARK    6  A    between atoms: O_26  and  C_27
REMARK                            x       y       z     vdW  Elec       q    Type
REMARK                         _______ _______ _______ _____ _____    ______ ____
ROOT
ATOM      1  C   UNL     1       6.868   5.178  14.463  0.00  0.00    +0.000 A 
ATOM      2  C   UNL     1       7.129   5.836  15.681  0.00  0.00    +0.000 A 
ATOM      3  C   UNL     1       6.646   5.383  16.901  0.00  0.00    +0.000 A 
ATOM      4  N   UNL     1       7.018   6.010  18.025  0.00  0.00    +0.000 NA
ATOM      5  C   UNL     1       6.561   5.522  19.186  0.00  0.00    +0.000 A 
ATOM      6  N   UNL     1       5.754   4.470  19.334  0.00  0.00    +0.000 NA
ATOM      7  C   UNL     1       5.419   3.854  18.194  0.00  0.00    +0.000 A 
ATOM      8  N   UNL     1       4.602   2.714  18.415  0.00  0.00    +0.000 N 
ATOM      9  C   UNL     1       5.818   4.264  16.915  0.00  0.00    +0.000 A 
ATOM     10  C   UNL     1       5.474   3.645  15.689  0.00  0.00    +0.000 A 
ATOM     11  C   UNL     1       5.995   4.085  14.465  0.00  0.00    +0.000 A 
ATOM     12  H   UNL     1       4.774   1.947  17.772  0.00  0.00    +0.000 HD
ENDROOT
BRANCH   8  13
ATOM     13  S   UNL     1       2.951   3.033  18.450  0.00  0.00    +0.000 S 
ATOM     14  O   UNL     1       2.388   2.727  17.152  0.00  0.00    +0.000 OA
ATOM     15  O   UNL     1       2.440   2.379  19.638  0.00  0.00    +0.000 OA
BRANCH  13  16
ATOM     16  C   UNL     1       2.651   4.765  18.687  0.00  0.00    +0.000 A 
ATOM     17  C   UNL     1       2.635   5.819  17.798  0.00  0.00    +0.000 A 
ATOM     18  C   UNL     1       2.255   7.062  18.399  0.00  0.00    +0.000 A 
ATOM     19  C   UNL     1       2.098   8.349  17.830  0.00  0.00    +0.000 A 
ATOM     20  C   UNL     1       1.692   9.428  18.620  0.00  0.00    +0.000 A 
ATOM     21  C   UNL     1       1.432   9.246  19.972  0.00  0.00    +0.000 A 
ATOM     22  C   UNL     1       1.580   7.988  20.561  0.00  0.00    +0.000 A 
ATOM     23  C   UNL     1       1.997   6.904  19.763  0.00  0.00    +0.000 A 
ATOM     24  S   UNL     1       2.257   5.274  20.265  0.00  0.00    +0.000 S 
ENDBRANCH  13  16
ENDBRANCH   8  13
BRANCH   1  26
ATOM     25  C   UNL     1       8.856   5.774  13.306  0.00  0.00    +0.000 C 
ATOM     26  O   UNL     1       7.440   5.586  13.285  0.00  0.00    +0.000 OA
ENDBRANCH   1  26
BRANCH  11  27
ATOM     27  O   UNL     1       5.551   3.311  13.430  0.00  0.00    +0.000 OA
ATOM     28  C   UNL     1       6.248   3.300  12.196  0.00  0.00    +0.000 C 
ENDBRANCH  11  27
TORSDOF 4
ENDMDL
MODEL 2
REMARK VINA RESULT:      -7.5      5.656      9.334
REMARK  Name = 
REMARK  6 active torsions:
REMARK  status: ('A' for Active; 'I' for Inactive)
REMARK    1  A    between atoms: C_1  and  O_2
REMARK    2  A    between atoms: O_2  and  C_3
REMARK    3  A    between atoms: N_10  and  S_11
REMARK    4  A    between atoms: S_11  and  C_14
REMARK    5  A    between atoms: C_25  and  O_26
REMARK    6  A    between atoms: O_26  and  C_27
REMARK                            x       y       z     vdW  Elec       q    Type
REMARK                         _______ _______ _______ _____ _____    ______ ____
ROOT
ATOM      1  C   UNL     1      -3.536  11.605  18.414  0.00  0.00    +0.000 A 
ATOM      2  C   UNL     1      -3.157  12.427  19.494  0.00  0.00    +0.000 A 
ATOM      3  C   UNL     1      -1.960  12.267  20.179  0.00  0.00    +0.000 A 
ATOM      4  N   UNL     1      -1.628  13.149  21.131  0.00  0.00    +0.000 NA
ATOM      5  C   UNL     1      -0.450  12.984  21.745  0.00  0.00    +0.000 A 
ATOM      6  N   UNL     1       0.430  12.009  21.508  0.00  0.00    +0.000 NA
ATOM      7  C   UNL     1       0.079  11.158  20.537  0.00  0.00    +0.000 A 
ATOM      8  N   UNL     1       1.073  10.174  20.295  0.00  0.00    +0.000 N 
ATOM      9  C   UNL     1      -1.126  11.211  19.824  0.00  0.00    +0.000 A 
ATOM     10  C   UNL     1      -1.536  10.323  18.801  0.00  0.00    +0.000 A 
ATOM     11  C   UNL     1      -2.727  10.512  18.088  0.00  0.00    +0.000 A 
ATOM     12  H   UNL     1       1.160   9.902  19.320  0.00  0.00    +0.000 HD
ENDROOT
BRANCH   8  13
ATOM     13  S   UNL     1       0.930   8.787  21.236  0.00  0.00    +0.000 S 
ATOM     14  O   UNL     1       1.708   8.961  22.445  0.00  0.00    +0.000 OA
ATOM     15  O   UNL     1      -0.487   8.500  21.316  0.00  0.00    +0.000 OA
BRANCH  13  16
ATOM     16  C   UNL     1       1.659   7.394  20.414  0.00  0.00    +0.000 A 
ATOM     17  C   UNL     1       1.710   6.058  20.752  0.00  0.00    +0.000 A 
ATOM     18  C   UNL     1       2.328   5.243  19.750  0.00  0.00    +0.000 A 
ATOM     19  C   UNL     1       2.547   3.845  19.708  0.00  0.00    +0.000 A 
ATOM     20  C   UNL     1       3.161   3.257  18.598  0.00  0.00    +0.000 A 
ATOM     21  C   UNL     1       3.557   4.040  17.522  0.00  0.00    +0.000 A 
ATOM     22  C   UNL     1       3.356   5.423  17.537  0.00  0.00    +0.000 A 
ATOM     23  C   UNL     1       2.743   6.013  18.660  0.00  0.00    +0.000 A 
ATOM     24  S   UNL     1       2.401   7.685  18.908  0.00  0.00    +0.000 S 
ENDBRANCH  13  16
ENDBRANCH   8  13
BRANCH   1  26
ATOM     25  C   UNL     1      -5.894  11.363  18.253  0.00  0.00    +0.000 C 
ATOM     26  O   UNL     1      -4.674  11.846  17.688  0.00  0.00    +0.000 OA
ENDBRANCH   1  26
BRANCH  11  27
ATOM     27  O   UNL     1      -2.889   9.553  17.128  0.00  0.00    +0.000 OA
ATOM     28  C   UNL     1      -2.708   9.874  15.759  0.00  0.00    +0.000 C 
ENDBRANCH  11  27
TORSDOF 4
ENDMDL
MODEL 3
REMARK VINA RESULT:      -7.3      2.582      4.100
REMARK  Name = 
REMARK  6 active torsions:
REMARK  status: ('A' for Active; 'I' for Inactive)
REMARK    1  A    between atoms: C_1  and  O_2
REMARK    2  A    between atoms: O_2  and  C_3
REMARK    3  A    between atoms: N_10  and  S_11
REMARK    4  A    between atoms: S_11  and  C_14
REMARK    5  A    between atoms: C_25  and  O_26
REMARK    6  A    between atoms: O_26  and  C_27
REMARK                            x       y       z     vdW  Elec       q    Type
REMARK                         _______ _______ _______ _____ _____    ______ ____
ROOT
ATOM      1  C   UNL     1       6.316   4.796  16.100  0.00  0.00    +0.000 A 
ATOM      2  C   UNL     1       5.551   3.635  16.331  0.00  0.00    +0.000 A 
ATOM      3  C   UNL     1       4.304   3.663  16.939  0.00  0.00    +0.000 A 
ATOM      4  N   UNL     1       3.598   2.529  17.036  0.00  0.00    +0.000 NA
ATOM      5  C   UNL     1       2.384   2.601  17.597  0.00  0.00    +0.000 A 
ATOM      6  N   UNL     1       1.807   3.701  18.083  0.00  0.00    +0.000 NA
ATOM      7  C   UNL     1       2.529   4.820  17.952  0.00  0.00    +0.000 A 
ATOM      8  N   UNL     1       1.846   5.965  18.441  0.00  0.00    +0.000 N 
ATOM      9  C   UNL     1       3.813   4.883  17.395  0.00  0.00    +0.000 A 
ATOM     10  C   UNL     1       4.610   6.044  17.250  0.00  0.00    +0.000 A 
ATOM     11  C   UNL     1       5.851   6.016  16.602  0.00  0.00    +0.000 A 
ATOM     12  H   UNL     1       2.024   6.814  17.911  0.00  0.00    +0.000 HD
ENDROOT
BRANCH   8  13
ATOM     13  S   UNL     1       2.092   6.282  20.074  0.00  0.00    +0.000 S 
ATOM     14  O   UNL     1       1.446   5.247  20.854  0.00  0.00    +0.000 OA
ATOM     15  O   UNL     1       3.511   6.531  20.227  0.00  0.00    +0.000 OA
BRANCH  13  16
ATOM     16  C   UNL     1       1.286   7.789  20.549  0.00  0.00    +0.000 A 
ATOM     17  C   UNL     1       0.620   8.144  21.703  0.00  0.00    +0.000 A 
ATOM     18  C   UNL     1       0.189   9.510  21.711  0.00  0.00    +0.000 A 
ATOM     19  C   UNL     1      -0.493  10.254  22.704  0.00  0.00    +0.000 A 
ATOM     20  C   UNL     1      -0.795  11.603  22.497  0.00  0.00    +0.000 A 
ATOM     21  C   UNL     1      -0.424  12.228  21.315  0.00  0.00    +0.000 A 
ATOM     22  C   UNL     1       0.249  11.519  20.316  0.00  0.00    +0.000 A 
ATOM     23  C   UNL     1       0.545  10.158  20.525  0.00  0.00    +0.000 A 
ATOM     24  S   UNL     1       1.352   9.084  19.443  0.00  0.00    +0.000 S 
ENDBRANCH  13  16
ENDBRANCH   8  13
BRANCH   1  26
ATOM     25  C   UNL     1       7.395   4.830  13.983  0.00  0.00    +0.000 C 
ATOM     26  O   UNL     1       7.498   4.755  15.406  0.00  0.00    +0.000 OA
ENDBRANCH   1  26
BRANCH  11  27
ATOM     27  O   UNL     1       6.414   7.260  16.551  0.00  0.00    +0.000 OA
ATOM     28  C   UNL     1       7.451   7.613  17.449  0.00  0.00    +0.000 C 
ENDBRANCH  11  27
TORSDOF 4
ENDMDL
MODEL 4
REMARK VINA RESULT:      -7.1      9.218     12.290
REMARK  Name = 
REMARK  6 active torsions:
REMARK  status: ('A' for Active; 'I' for Inactive)
REMARK    1  A    between atoms: C_1  and  O_2
REMARK    2  A    between atoms: O_2  and  C_3
REMARK    3  A    between atoms: N_10  and  S_11
REMARK    4  A    between atoms: S_11  and  C_14
REMARK    5  A    between atoms: C_25  and  O_26
REMARK    6  A    between atoms: O_26  and  C_27
REMARK                            x       y       z     vdW  Elec       q    Type
REMARK                         _______ _______ _______ _____ _____    ______ ____
ROOT
ATOM      1  C   UNL     1      -0.848  11.319  21.006  0.00  0.00    +0.000 A 
ATOM      2  C   UNL     1      -0.755  10.578  19.811  0.00  0.00    +0.000 A 
ATOM      3  C   UNL     1      -1.665  10.707  18.771  0.00  0.00    +0.000 A 
ATOM      4  N   UNL     1      -1.454  10.039  17.630  0.00  0.00    +0.000 NA
ATOM      5  C   UNL     1      -2.333  10.217  16.636  0.00  0.00    +0.000 A 
ATOM      6  N   UNL     1      -3.417  10.994  16.675  0.00  0.00    +0.000 NA
ATOM      7  C   UNL     1      -3.588  11.663  17.820  0.00  0.00    +0.000 A 
ATOM      8  N   UNL     1      -4.727  12.510  17.787  0.00  0.00    +0.000 N 
ATOM      9  C   UNL     1      -2.751  11.562  18.940  0.00  0.00    +0.000 A 
ATOM     10  C   UNL     1      -2.907  12.245  20.170  0.00  0.00    +0.000 A 
ATOM     11  C   UNL     1      -1.965  12.139  21.201  0.00  0.00    +0.000 A 
ATOM     12  H   UNL     1      -4.613  13.382  18.297  0.00  0.00    +0.000 HD
ENDROOT
BRANCH   8  13
ATOM     13  S   UNL     1      -6.159  11.777  18.280  0.00  0.00    +0.000 S 
ATOM     14  O   UNL     1      -7.215  12.152  17.363  0.00  0.00    +0.000 OA
ATOM     15  O   UNL     1      -5.843  10.380  18.495  0.00  0.00    +0.000 OA
BRANCH  13  16
ATOM     16  C   UNL     1      -6.673  12.403  19.858  0.00  0.00    +0.000 A 
ATOM     17  C   UNL     1      -6.728  11.810  21.102  0.00  0.00    +0.000 A 
ATOM     18  C   UNL     1      -7.126  12.711  22.142  0.00  0.00    +0.000 A 
ATOM     19  C   UNL     1      -7.276  12.500  23.534  0.00  0.00    +0.000 A 
ATOM     20  C   UNL     1      -7.661  13.550  24.372  0.00  0.00    +0.000 A 
ATOM     21  C   UNL     1      -7.894  14.814  23.847  0.00  0.00    +0.000 A 
ATOM     22  C   UNL     1      -7.756  15.051  22.477  0.00  0.00    +0.000 A 
ATOM     23  C   UNL     1      -7.375  13.988  21.634  0.00  0.00    +0.000 A 
ATOM     24  S   UNL     1      -7.152  14.037  19.924  0.00  0.00    +0.000 S 
ENDBRANCH  13  16
ENDBRANCH   8  13
BRANCH   1  26
ATOM     25  C   UNL     1       0.295   9.974  22.597  0.00  0.00    +0.000 C 
ATOM     26  O   UNL     1       0.119  11.249  21.976  0.00  0.00    +0.000 OA
ENDBRANCH   1  26
BRANCH  11  27
ATOM     27  O   UNL     1      -2.309  12.916  22.271  0.00  0.00    +0.000 OA
ATOM     28  C   UNL     1      -3.259  12.453  23.215  0.00  0.00    +0.000 C 
ENDBRANCH  11  27
TORSDOF 4
ENDMDL
MODEL 5
REMARK VINA RESULT:      -7.1      2.478      3.838
REMARK  Name = 
REMARK  6 active torsions:
REMARK  status: ('A' for Active; 'I' for Inactive)
REMARK    1  A    between atoms: C_1  and  O_2
REMARK    2  A    between atoms: O_2  and  C_3
REMARK    3  A    between atoms: N_10  and  S_11
REMARK    4  A    between atoms: S_11  and  C_14
REMARK    5  A    between atoms: C_25  and  O_26
REMARK    6  A    between atoms: O_26  and  C_27
REMARK                            x       y       z     vdW  Elec       q    Type
REMARK                         _______ _______ _______ _____ _____    ______ ____
ROOT
ATOM      1  C   UNL     1       6.343   4.700  16.078  0.00  0.00    +0.000 A 
ATOM      2  C   UNL     1       5.619   3.534  16.394  0.00  0.00    +0.000 A 
ATOM      3  C   UNL     1       4.366   3.564  16.991  0.00  0.00    +0.000 A 
ATOM      4  N   UNL     1       3.700   2.415  17.172  0.00  0.00    +0.000 NA
ATOM      5  C   UNL     1       2.479   2.486  17.718  0.00  0.00    +0.000 A 
ATOM      6  N   UNL     1       1.859   3.599  18.115  0.00  0.00    +0.000 NA
ATOM      7  C   UNL     1       2.542   4.730  17.901  0.00  0.00    +0.000 A 
ATOM      8  N   UNL     1       1.815   5.884  18.296  0.00  0.00    +0.000 N 
ATOM      9  C   UNL     1       3.828   4.797  17.349  0.00  0.00    +0.000 A 
ATOM     10  C   UNL     1       4.584   5.971  17.119  0.00  0.00    +0.000 A 
ATOM     11  C   UNL     1       5.831   5.938  16.482  0.00  0.00    +0.000 A 
ATOM     12  H   UNL     1       1.967   6.695  17.704  0.00  0.00    +0.000 HD
ENDROOT
BRANCH   8  13
ATOM     13  S   UNL     1       2.035   6.335  19.902  0.00  0.00    +0.000 S 
ATOM     14  O   UNL     1       1.169   5.529  20.736  0.00  0.00    +0.000 OA
ATOM     15  O   UNL     1       3.467   6.338  20.126  0.00  0.00    +0.000 OA
BRANCH  13  16
ATOM     16  C   UNL     1       1.503   8.006  20.162  0.00  0.00    +0.000 A 
ATOM     17  C   UNL     1       1.422   9.084  19.305  0.00  0.00    +0.000 A 
ATOM     18  C   UNL     1       0.844  10.247  19.909  0.00  0.00    +0.000 A 
ATOM     19  C   UNL     1       0.570  11.525  19.367  0.00  0.00    +0.000 A 
ATOM     20  C   UNL     1      -0.027  12.515  20.152  0.00  0.00    +0.000 A 
ATOM     21  C   UNL     1      -0.363  12.251  21.473  0.00  0.00    +0.000 A 
ATOM     22  C   UNL     1      -0.102  11.000  22.036  0.00  0.00    +0.000 A 
ATOM     23  C   UNL     1       0.507  10.006  21.244  0.00  0.00    +0.000 A 
ATOM     24  S   UNL     1       0.932   8.403  21.718  0.00  0.00    +0.000 S 
ENDBRANCH  13  16
ENDBRANCH   8  13
BRANCH   1  26
ATOM     25  C   UNL     1       7.461   4.887  13.990  0.00  0.00    +0.000 C 
ATOM     26  O   UNL     1       7.532   4.649  15.397  0.00  0.00    +0.000 OA
ENDBRANCH   1  26
BRANCH  11  27
ATOM     27  O   UNL     1       6.350   7.194  16.339  0.00  0.00    +0.000 OA
ATOM     28  C   UNL     1       7.278   7.697  17.284  0.00  0.00    +0.000 C 
ENDBRANCH  11  27
TORSDOF 4
ENDMDL
MODEL 6
REMARK VINA RESULT:      -7.0      8.948     11.875
REMARK  Name = 
REMARK  6 active torsions:
REMARK  status: ('A' for Active; 'I' for Inactive)
REMARK    1  A    between atoms: C_1  and  O_2
REMARK    2  A    between atoms: O_2  and  C_3
REMARK    3  A    between atoms: N_10  and  S_11
REMARK    4  A    between atoms: S_11  and  C_14
REMARK    5  A    between atoms: C_25  and  O_26
REMARK    6  A    between atoms: O_26  and  C_27
REMARK                            x       y       z     vdW  Elec       q    Type
REMARK                         _______ _______ _______ _____ _____    ______ ____
ROOT
ATOM      1  C   UNL     1      -0.533  10.963  19.537  0.00  0.00    +0.000 A 
ATOM      2  C   UNL     1      -0.774  10.289  18.324  0.00  0.00    +0.000 A 
ATOM      3  C   UNL     1      -1.908  10.506  17.553  0.00  0.00    +0.000 A 
ATOM      4  N   UNL     1      -2.018   9.897  16.365  0.00  0.00    +0.000 NA
ATOM      5  C   UNL     1      -3.109  10.158  15.633  0.00  0.00    +0.000 A 
ATOM      6  N   UNL     1      -4.113  10.965  15.980  0.00  0.00    +0.000 NA
ATOM      7  C   UNL     1      -3.963  11.574  17.162  0.00  0.00    +0.000 A 
ATOM      8  N   UNL     1      -5.035  12.457  17.457  0.00  0.00    +0.000 N 
ATOM      9  C   UNL     1      -2.878  11.383  18.029  0.00  0.00    +0.000 A 
ATOM     10  C   UNL     1      -2.692  12.000  19.289  0.00  0.00    +0.000 A 
ATOM     11  C   UNL     1      -1.528  11.806  20.045  0.00  0.00    +0.000 A 
ATOM     12  H   UNL     1      -4.759  13.294  17.961  0.00  0.00    +0.000 HD
ENDROOT
BRANCH   8  13
ATOM     13  S   UNL     1      -6.330  11.742  18.258  0.00  0.00    +0.000 S 
ATOM     14  O   UNL     1      -7.558  12.113  17.586  0.00  0.00    +0.000 OA
ATOM     15  O   UNL     1      -5.982  10.345  18.421  0.00  0.00    +0.000 OA
BRANCH  13  16
ATOM     16  C   UNL     1      -6.488  12.394  19.900  0.00  0.00    +0.000 A 
ATOM     17  C   UNL     1      -5.985  13.539  20.481  0.00  0.00    +0.000 A 
ATOM     18  C   UNL     1      -6.433  13.736  21.827  0.00  0.00    +0.000 A 
ATOM     19  C   UNL     1      -6.167  14.784  22.741  0.00  0.00    +0.000 A 
ATOM     20  C   UNL     1      -6.742  14.776  24.015  0.00  0.00    +0.000 A 
ATOM     21  C   UNL     1      -7.584  13.740  24.395  0.00  0.00    +0.000 A 
ATOM     22  C   UNL     1      -7.864  12.692  23.515  0.00  0.00    +0.000 A 
ATOM     23  C   UNL     1      -7.277  12.699  22.234  0.00  0.00    +0.000 A 
ATOM     24  S   UNL     1      -7.464  11.519  20.990  0.00  0.00    +0.000 S 
ENDBRANCH  13  16
ENDBRANCH   8  13
BRANCH   1  26
ATOM     25  C   UNL     1       1.527  11.929  20.222  0.00  0.00    +0.000 C 
ATOM     26  O   UNL     1       0.641  10.808  20.228  0.00  0.00    +0.000 OA
ENDBRANCH   1  26
BRANCH  11  27
ATOM     27  O   UNL     1      -1.559  12.532  21.202  0.00  0.00    +0.000 OA
ATOM     28  C   UNL     1      -1.753  11.884  22.447  0.00  0.00    +0.000 C 
ENDBRANCH  11  27
TORSDOF 4
ENDMDL
MODEL 7
REMARK VINA RESULT:      -7.0      0.763      1.276
REMARK  Name = 
REMARK  6 active torsions:
REMARK  status: ('A' for Active; 'I' for Inactive)
REMARK    1  A    between atoms: C_1  and  O_2
REMARK    2  A    between atoms: O_2  and  C_3
REMARK    3  A    between atoms: N_10  and  S_11
REMARK    4  A    between atoms: S_11  and  C_14
REMARK    5  A    between atoms: C_25  and  O_26
REMARK    6  A    between atoms: O_26  and  C_27
REMARK                            x       y       z     vdW  Elec       q    Type
REMARK                         _______ _______ _______ _____ _____    ______ ____
ROOT
ATOM      1  C   UNL     1       6.946   5.123  14.437  0.00  0.00    +0.000 A 
ATOM      2  C   UNL     1       7.074   5.854  15.634  0.00  0.00    +0.000 A 
ATOM      3  C   UNL     1       6.550   5.419  16.843  0.00  0.00    +0.000 A 
ATOM      4  N   UNL     1       6.797   6.124  17.956  0.00  0.00    +0.000 NA
ATOM      5  C   UNL     1       6.305   5.653  19.109  0.00  0.00    +0.000 A 
ATOM      6  N   UNL     1       5.576   4.546  19.259  0.00  0.00    +0.000 NA
ATOM      7  C   UNL     1       5.366   3.854  18.133  0.00  0.00    +0.000 A 
ATOM      8  N   UNL     1       4.628   2.663  18.361  0.00  0.00    +0.000 N 
ATOM      9  C   UNL     1       5.814   4.238  16.862  0.00  0.00    +0.000 A 
ATOM     10  C   UNL     1       5.600   3.538  15.650  0.00  0.00    +0.000 A 
ATOM     11  C   UNL     1       6.164   3.964  14.440  0.00  0.00    +0.000 A 
ATOM     12  H   UNL     1       4.902   1.883  17.768  0.00  0.00    +0.000 HD
ENDROOT
BRANCH   8  13
ATOM     13  S   UNL     1       2.958   2.846  18.278  0.00  0.00    +0.000 S 
ATOM     14  O   UNL     1       2.550   2.792  16.890  0.00  0.00    +0.000 OA
ATOM     15  O   UNL     1       2.403   1.913  19.238  0.00  0.00    +0.000 OA
BRANCH  13  16
ATOM     16  C   UNL     1       2.476   4.458  18.839  0.00  0.00    +0.000 A 
ATOM     17  C   UNL     1       2.057   4.908  20.073  0.00  0.00    +0.000 A 
ATOM     18  C   UNL     1       1.848   6.325  20.119  0.00  0.00    +0.000 A 
ATOM     19  C   UNL     1       1.449   7.161  21.189  0.00  0.00    +0.000 A 
ATOM     20  C   UNL     1       1.330   8.542  21.003  0.00  0.00    +0.000 A 
ATOM     21  C   UNL     1       1.609   9.107  19.766  0.00  0.00    +0.000 A 
ATOM     22  C   UNL     1       2.004   8.305  18.691  0.00  0.00    +0.000 A 
ATOM     23  C   UNL     1       2.115   6.914  18.880  0.00  0.00    +0.000 A 
ATOM     24  S   UNL     1       2.572   5.731  17.710  0.00  0.00    +0.000 S 
ENDBRANCH  13  16
ENDBRANCH   8  13
BRANCH   1  26
ATOM     25  C   UNL     1       8.972   5.728  13.352  0.00  0.00    +0.000 C 
ATOM     26  O   UNL     1       7.560   5.523  13.278  0.00  0.00    +0.000 OA
ENDBRANCH   1  26
BRANCH  11  27
ATOM     27  O   UNL     1       5.851   3.111  13.420  0.00  0.00    +0.000 OA
ATOM     28  C   UNL     1       5.039   3.549  12.344  0.00  0.00    +0.000 C 
ENDBRANCH  11  27
TORSDOF 4
ENDMDL
MODEL 8
REMARK VINA RESULT:      -7.0      3.343      5.759
REMARK  Name = 
REMARK  6 active torsions:
REMARK  status: ('A' for Active; 'I' for Inactive)
REMARK    1  A    between atoms: C_1  and  O_2
REMARK    2  A    between atoms: O_2  and  C_3
REMARK    3  A    between atoms: N_10  and  S_11
REMARK    4  A    between atoms: S_11  and  C_14
REMARK    5  A    between atoms: C_25  and  O_26
REMARK    6  A    between atoms: O_26  and  C_27
REMARK                            x       y       z     vdW  Elec       q    Type
REMARK                         _______ _______ _______ _____ _____    ______ ____
ROOT
ATOM      1  C   UNL     1       2.941   2.952  18.492  0.00  0.00    +0.000 A 
ATOM      2  C   UNL     1       3.725   3.393  17.407  0.00  0.00    +0.000 A 
ATOM      3  C   UNL     1       4.010   4.731  17.178  0.00  0.00    +0.000 A 
ATOM      4  N   UNL     1       4.841   5.063  16.181  0.00  0.00    +0.000 NA
ATOM      5  C   UNL     1       5.121   6.361  16.014  0.00  0.00    +0.000 A 
ATOM      6  N   UNL     1       4.639   7.370  16.742  0.00  0.00    +0.000 NA
ATOM      7  C   UNL     1       3.829   7.004  17.743  0.00  0.00    +0.000 A 
ATOM      8  N   UNL     1       3.387   8.112  18.513  0.00  0.00    +0.000 N 
ATOM      9  C   UNL     1       3.448   5.685  18.022  0.00  0.00    +0.000 A 
ATOM     10  C   UNL     1       2.585   5.263  19.062  0.00  0.00    +0.000 A 
ATOM     11  C   UNL     1       2.331   3.908  19.311  0.00  0.00    +0.000 A 
ATOM     12  H   UNL     1       3.283   7.915  19.505  0.00  0.00    +0.000 HD
ENDROOT
BRANCH   8  13
ATOM     13  S   UNL     1       1.976   8.836  17.953  0.00  0.00    +0.000 S 
ATOM     14  O   UNL     1       2.327  10.019  17.195  0.00  0.00    +0.000 OA
ATOM     15  O   UNL     1       1.199   7.780  17.337  0.00  0.00    +0.000 OA
BRANCH  13  16
ATOM     16  C   UNL     1       0.996   9.429  19.306  0.00  0.00    +0.000 A 
ATOM     17  C   UNL     1       0.838   8.962  20.594  0.00  0.00    +0.000 A 
ATOM     18  C   UNL     1       0.008   9.803  21.405  0.00  0.00    +0.000 A 
ATOM     19  C   UNL     1      -0.371   9.686  22.764  0.00  0.00    +0.000 A 
ATOM     20  C   UNL     1      -1.185  10.654  23.359  0.00  0.00    +0.000 A 
ATOM     21  C   UNL     1      -1.626  11.744  22.622  0.00  0.00    +0.000 A 
ATOM     22  C   UNL     1      -1.270  11.885  21.278  0.00  0.00    +0.000 A 
ATOM     23  C   UNL     1      -0.455  10.904  20.680  0.00  0.00    +0.000 A 
ATOM     24  S   UNL     1       0.103  10.858  19.048  0.00  0.00    +0.000 S 
ENDBRANCH  13  16
ENDBRANCH   8  13
BRANCH   1  26
ATOM     25  C   UNL     1       3.942   0.821  18.812  0.00  0.00    +0.000 C 
ATOM     26  O   UNL     1       2.758   1.619  18.755  0.00  0.00    +0.000 OA
ENDBRANCH   1  26
BRANCH  11  27
ATOM     27  O   UNL     1       1.503   3.746  20.386  0.00  0.00    +0.000 OA
ATOM     28  C   UNL     1       2.038   3.424  21.658  0.00  0.00    +0.000 C 
ENDBRANCH  11  27
TORSDOF 4
ENDMDL
MODEL 9
REMARK VINA RESULT:      -7.0      5.887      9.556
REMARK  Name = 
REMARK  6 active torsions:
REMARK  status: ('A' for Active; 'I' for Inactive)
REMARK    1  A    between atoms: C_1  and  O_2
REMARK    2  A    between atoms: O_2  and  C_3
REMARK    3  A    between atoms: N_10  and  S_11
REMARK    4  A    between atoms: S_11  and  C_14
REMARK    5  A    between atoms: C_25  and  O_26
REMARK    6  A    between atoms: O_26  and  C_27
REMARK                            x       y       z     vdW  Elec       q    Type
REMARK                         _______ _______ _______ _____ _____    ______ ____
ROOT
ATOM      1  C   UNL     1      -3.878  11.886  18.794  0.00  0.00    +0.000 A 
ATOM      2  C   UNL     1      -3.528  12.618  19.946  0.00  0.00    +0.000 A 
ATOM      3  C   UNL     1      -2.301  12.486  20.580  0.00  0.00    +0.000 A 
ATOM      4  N   UNL     1      -2.008  13.286  21.614  0.00  0.00    +0.000 NA
ATOM      5  C   UNL     1      -0.800  13.154  22.177  0.00  0.00    +0.000 A 
ATOM      6  N   UNL     1       0.146  12.286  21.814  0.00  0.00    +0.000 NA
ATOM      7  C   UNL     1      -0.170  11.517  20.766  0.00  0.00    +0.000 A 
ATOM      8  N   UNL     1       0.891  10.649  20.393  0.00  0.00    +0.000 N 
ATOM      9  C   UNL     1      -1.398  11.546  20.092  0.00  0.00    +0.000 A 
ATOM     10  C   UNL     1      -1.770  10.739  18.989  0.00  0.00    +0.000 A 
ATOM     11  C   UNL     1      -2.996  10.904  18.331  0.00  0.00    +0.000 A 
ATOM     12  H   UNL     1       0.966  10.489  19.392  0.00  0.00    +0.000 HD
ENDROOT
BRANCH   8  13
ATOM     13  S   UNL     1       0.890   9.163  21.182  0.00  0.00    +0.000 S 
ATOM     14  O   UNL     1       1.709   9.266  22.372  0.00  0.00    +0.000 OA
ATOM     15  O   UNL     1      -0.499   8.763  21.285  0.00  0.00    +0.000 OA
BRANCH  13  16
ATOM     16  C   UNL     1       1.676   7.924  20.186  0.00  0.00    +0.000 A 
ATOM     17  C   UNL     1       2.340   8.007  18.980  0.00  0.00    +0.000 A 
ATOM     18  C   UNL     1       2.911   6.762  18.560  0.00  0.00    +0.000 A 
ATOM     19  C   UNL     1       3.676   6.441  17.413  0.00  0.00    +0.000 A 
ATOM     20  C   UNL     1       4.153   5.142  17.220  0.00  0.00    +0.000 A 
ATOM     21  C   UNL     1       3.884   4.152  18.156  0.00  0.00    +0.000 A 
ATOM     22  C   UNL     1       3.130   4.439  19.297  0.00  0.00    +0.000 A 
ATOM     23  C   UNL     1       2.644   5.749  19.485  0.00  0.00    +0.000 A 
ATOM     24  S   UNL     1       1.691   6.334  20.798  0.00  0.00    +0.000 S 
ENDBRANCH  13  16
ENDBRANCH   8  13
BRANCH   1  26
ATOM     25  C   UNL     1      -6.160  11.288  18.511  0.00  0.00    +0.000 C 
ATOM     26  O   UNL     1      -5.055  12.109  18.127  0.00  0.00    +0.000 OA
ENDBRANCH   1  26
BRANCH  11  27
ATOM     27  O   UNL     1      -3.114  10.042  17.278  0.00  0.00    +0.000 OA
ATOM     28  C   UNL     1      -2.010   9.806  16.420  0.00  0.00    +0.000 C 
ENDBRANCH  11  27
TORSDOF 4
ENDMDL
