MODEL 1
REMARK VINA RESULT:      -7.8      0.000      0.000
REMARK  Name = 
REMARK  10 active torsions:
REMARK  status: ('A' for Active; 'I' for Inactive)
REMARK    1  A    between atoms: C_1  and  C_2
REMARK    2  A    between atoms: C_5  and  O_6
REMARK    3  A    between atoms: C_7  and  C_8
REMARK    4  A    between atoms: C_7  and  C_9
REMARK    5  A    between atoms: C_9  and  O_10
REMARK    6  A    between atoms: C_17  and  C_18
REMARK    7  A    between atoms: C_18  and  C_19
REMARK    8  A    between atoms: C_25  and  O_26
REMARK    9  A    between atoms: O_26  and  C_27
REMARK   10  A    between atoms: C_27  and  C_29
REMARK                            x       y       z     vdW  Elec       q    Type
REMARK                         _______ _______ _______ _____ _____    ______ ____
ROOT
ATOM      1  C   UNL     1       4.731   5.623  19.364  0.00  0.00    +0.000 C 
ATOM      2  C   UNL     1       3.874   5.671  18.059  0.00  0.00    +0.000 C 
ATOM      3  C   UNL     1       4.176   6.936  17.187  0.00  0.00    +0.000 C 
ATOM      4  C   UNL     1       5.324   6.909  16.183  0.00  0.00    +0.000 C 
ATOM      5  C   UNL     1       5.502   5.585  15.448  0.00  0.00    +0.000 C 
ATOM      6  C   UNL     1       5.526   4.383  16.439  0.00  0.00    +0.000 C 
ATOM      7  C   UNL     1       5.739   3.077  15.642  0.00  0.00    +0.000 C 
ATOM      8  C   UNL     1       4.093   4.401  17.166  0.00  0.00    +0.000 C 
ATOM      9  C   UNL     1       3.665   3.111  17.900  0.00  0.00    +0.000 C 
ATOM     10  C   UNL     1       2.269   3.200  18.549  0.00  0.00    +0.000 C 
ATOM     11  C   UNL     1       2.045   4.478  19.320  0.00  0.00    +0.000 C 
ATOM     12  C   UNL     1       2.006   4.441  20.844  0.00  0.00    +0.000 C 
ATOM     13  O   UNL     1       0.814   4.470  20.056  0.00  0.00    +0.000 OA
ATOM     14  C   UNL     1       2.345   5.757  18.544  0.00  0.00    +0.000 C 
ENDROOT
BRANCH   5  15
ATOM     15  O   UNL     1       6.682   5.687  14.652  0.00  0.00    +0.000 OA
ATOM     16  H   UNL     1       7.137   6.516  14.913  0.00  0.00    +0.000 HD
ENDBRANCH   5  15
BRANCH   6  17
ATOM     17  C   UNL     1       6.762   4.540  17.374  0.00  0.00    +0.000 C 
BRANCH  17  18
ATOM     18  O   UNL     1       8.004   4.440  16.676  0.00  0.00    +0.000 OA
ATOM     19  H   UNL     1       8.058   3.523  16.344  0.00  0.00    +0.000 HD
ENDBRANCH  17  18
ENDBRANCH   6  17
BRANCH  14  20
ATOM     20  C   UNL     1       2.113   7.113  19.274  0.00  0.00    +0.000 C 
BRANCH  20  21
ATOM     21  C   UNL     1       1.294   8.210  18.655  0.00  0.00    +0.000 C 
ATOM     22  C   UNL     1       0.984   9.377  19.257  0.00  0.00    +0.000 C 
ATOM     23  C   UNL     1       0.038  10.325  18.617  0.00  0.00    +0.000 C 
ATOM     24  O   UNL     1      -0.456  10.218  17.511  0.00  0.00    +0.000 OA
ATOM     25  O   UNL     1      -0.220  11.340  19.488  0.00  0.00    +0.000 OA
ATOM     26  C   UNL     1       0.353  11.051  20.764  0.00  0.00    +0.000 C 
ATOM     27  C   UNL     1       1.413   9.973  20.546  0.00  0.00    +0.000 C 
BRANCH  27  28
ATOM     28  O   UNL     1       1.399   9.030  21.617  0.00  0.00    +0.000 OA
BRANCH  28  29
ATOM     29  C   UNL     1       0.189   8.812  22.201  0.00  0.00    +0.000 C 
ATOM     30  O   UNL     1      -0.679   8.099  21.710  0.00  0.00    +0.000 OA
BRANCH  29  31
ATOM     31  C   UNL     1      -0.015   9.620  23.460  0.00  0.00    +0.000 C 
ATOM     32 CL   UNL     1      -1.431  10.684  23.341  0.00  0.00    +0.000 Cl
ENDBRANCH  29  31
ENDBRANCH  28  29
ENDBRANCH  27  28
ENDBRANCH  20  21
ENDBRANCH  14  20
TORSDOF 8
ENDMDL
MODEL 2
REMARK VINA RESULT:      -7.5      1.594      2.579
REMARK  Name = 
REMARK  10 active torsions:
REMARK  status: ('A' for Active; 'I' for Inactive)
REMARK    1  A    between atoms: C_1  and  C_2
REMARK    2  A    between atoms: C_5  and  O_6
REMARK    3  A    between atoms: C_7  and  C_8
REMARK    4  A    between atoms: C_7  and  C_9
REMARK    5  A    between atoms: C_9  and  O_10
REMARK    6  A    between atoms: C_17  and  C_18
REMARK    7  A    between atoms: C_18  and  C_19
REMARK    8  A    between atoms: C_25  and  O_26
REMARK    9  A    between atoms: O_26  and  C_27
REMARK   10  A    between atoms: C_27  and  C_29
REMARK                            x       y       z     vdW  Elec       q    Type
REMARK                         _______ _______ _______ _____ _____    ______ ____
ROOT
ATOM      1  C   UNL     1       4.876   5.554  19.509  0.00  0.00    +0.000 C 
ATOM      2  C   UNL     1       3.917   5.793  18.299  0.00  0.00    +0.000 C 
ATOM      3  C   UNL     1       4.263   7.097  17.506  0.00  0.00    +0.000 C 
ATOM      4  C   UNL     1       5.312   7.056  16.398  0.00  0.00    +0.000 C 
ATOM      5  C   UNL     1       5.296   5.790  15.547  0.00  0.00    +0.000 C 
ATOM      6  C   UNL     1       5.289   4.509  16.433  0.00  0.00    +0.000 C 
ATOM      7  C   UNL     1       5.305   3.264  15.518  0.00  0.00    +0.000 C 
ATOM      8  C   UNL     1       3.934   4.591  17.292  0.00  0.00    +0.000 C 
ATOM      9  C   UNL     1       3.448   3.285  17.959  0.00  0.00    +0.000 C 
ATOM     10  C   UNL     1       2.130   3.441  18.743  0.00  0.00    +0.000 C 
ATOM     11  C   UNL     1       2.098   4.661  19.630  0.00  0.00    +0.000 C 
ATOM     12  C   UNL     1       2.189   4.494  21.143  0.00  0.00    +0.000 C 
ATOM     13  O   UNL     1       0.941   4.698  20.476  0.00  0.00    +0.000 OA
ATOM     14  C   UNL     1       2.452   5.971  18.933  0.00  0.00    +0.000 C 
ENDROOT
BRANCH   5  15
ATOM     15  O   UNL     1       6.406   5.856  14.653  0.00  0.00    +0.000 OA
ATOM     16  H   UNL     1       7.154   5.389  15.084  0.00  0.00    +0.000 HD
ENDBRANCH   5  15
BRANCH   6  17
ATOM     17  C   UNL     1       6.611   4.473  17.257  0.00  0.00    +0.000 C 
BRANCH  17  18
ATOM     18  O   UNL     1       7.774   4.341  16.436  0.00  0.00    +0.000 OA
ATOM     19  H   UNL     1       7.757   3.431  16.081  0.00  0.00    +0.000 HD
ENDBRANCH  17  18
ENDBRANCH   6  17
BRANCH  14  20
ATOM     20  C   UNL     1       2.417   7.273  19.787  0.00  0.00    +0.000 C 
BRANCH  20  21
ATOM     21  C   UNL     1       1.281   7.569  20.725  0.00  0.00    +0.000 C 
ATOM     22  C   UNL     1       0.556   8.707  20.726  0.00  0.00    +0.000 C 
ATOM     23  C   UNL     1      -0.441   8.962  21.796  0.00  0.00    +0.000 C 
ATOM     24  O   UNL     1      -0.768   8.192  22.678  0.00  0.00    +0.000 OA
ATOM     25  O   UNL     1      -0.919  10.230  21.654  0.00  0.00    +0.000 OA
ATOM     26  C   UNL     1      -0.174  10.928  20.655  0.00  0.00    +0.000 C 
ATOM     27  C   UNL     1       0.541   9.875  19.811  0.00  0.00    +0.000 C 
BRANCH  27  28
ATOM     28  O   UNL     1       1.853  10.315  19.463  0.00  0.00    +0.000 OA
BRANCH  28  29
ATOM     29  C   UNL     1       2.073  10.537  18.139  0.00  0.00    +0.000 C 
ATOM     30  O   UNL     1       1.937   9.675  17.278  0.00  0.00    +0.000 OA
BRANCH  29  31
ATOM     31  C   UNL     1       2.599  11.922  17.850  0.00  0.00    +0.000 C 
ATOM     32 CL   UNL     1       1.896  13.137  18.937  0.00  0.00    +0.000 Cl
ENDBRANCH  29  31
ENDBRANCH  28  29
ENDBRANCH  27  28
ENDBRANCH  20  21
ENDBRANCH  14  20
TORSDOF 8
ENDMDL
MODEL 3
REMARK VINA RESULT:      -7.2      1.929      4.004
REMARK  Name = 
REMARK  10 active torsions:
REMARK  status: ('A' for Active; 'I' for Inactive)
REMARK    1  A    between atoms: C_1  and  C_2
REMARK    2  A    between atoms: C_5  and  O_6
REMARK    3  A    between atoms: C_7  and  C_8
REMARK    4  A    between atoms: C_7  and  C_9
REMARK    5  A    between atoms: C_9  and  O_10
REMARK    6  A    between atoms: C_17  and  C_18
REMARK    7  A    between atoms: C_18  and  C_19
REMARK    8  A    between atoms: C_25  and  O_26
REMARK    9  A    between atoms: O_26  and  C_27
REMARK   10  A    between atoms: C_27  and  C_29
REMARK                            x       y       z     vdW  Elec       q    Type
REMARK                         _______ _______ _______ _____ _____    ______ ____
ROOT
ATOM      1  C   UNL     1       2.269   4.593  17.637  0.00  0.00    +0.000 C 
ATOM      2  C   UNL     1       2.740   5.147  19.019  0.00  0.00    +0.000 C 
ATOM      3  C   UNL     1       1.563   5.296  20.040  0.00  0.00    +0.000 C 
ATOM      4  C   UNL     1       1.145   4.104  20.896  0.00  0.00    +0.000 C 
ATOM      5  C   UNL     1       2.297   3.235  21.390  0.00  0.00    +0.000 C 
ATOM      6  C   UNL     1       3.257   2.847  20.226  0.00  0.00    +0.000 C 
ATOM      7  C   UNL     1       4.381   1.944  20.780  0.00  0.00    +0.000 C 
ATOM      8  C   UNL     1       3.839   4.238  19.672  0.00  0.00    +0.000 C 
ATOM      9  C   UNL     1       5.109   4.166  18.796  0.00  0.00    +0.000 C 
ATOM     10  C   UNL     1       5.618   5.543  18.325  0.00  0.00    +0.000 C 
ATOM     11  C   UNL     1       4.526   6.438  17.794  0.00  0.00    +0.000 C 
ATOM     12  C   UNL     1       4.440   6.714  16.297  0.00  0.00    +0.000 C 
ATOM     13  O   UNL     1       5.037   7.642  17.205  0.00  0.00    +0.000 OA
ATOM     14  C   UNL     1       3.329   6.612  18.723  0.00  0.00    +0.000 C 
ENDROOT
BRANCH   5  15
ATOM     15  O   UNL     1       1.732   2.107  22.058  0.00  0.00    +0.000 OA
ATOM     16  H   UNL     1       2.474   1.512  22.302  0.00  0.00    +0.000 HD
ENDBRANCH   5  15
BRANCH   6  17
ATOM     17  C   UNL     1       2.462   1.988  19.197  0.00  0.00    +0.000 C 
BRANCH  17  18
ATOM     18  O   UNL     1       3.307   1.164  18.391  0.00  0.00    +0.000 OA
ATOM     19  H   UNL     1       3.021   1.300  17.468  0.00  0.00    +0.000 HD
ENDBRANCH  17  18
ENDBRANCH   6  17
BRANCH  14  20
ATOM     20  C   UNL     1       2.175   7.542  18.245  0.00  0.00    +0.000 C 
BRANCH  20  21
ATOM     21  C   UNL     1       2.410   8.994  17.940  0.00  0.00    +0.000 C 
ATOM     22  C   UNL     1       1.940  10.025  18.674  0.00  0.00    +0.000 C 
ATOM     23  C   UNL     1       2.098  11.421  18.197  0.00  0.00    +0.000 C 
ATOM     24  O   UNL     1       2.710  11.784  17.211  0.00  0.00    +0.000 OA
ATOM     25  O   UNL     1       1.411  12.249  19.033  0.00  0.00    +0.000 OA
ATOM     26  C   UNL     1       0.637  11.483  19.957  0.00  0.00    +0.000 C 
ATOM     27  C   UNL     1       1.223  10.073  19.972  0.00  0.00    +0.000 C 
BRANCH  27  28
ATOM     28  O   UNL     1       0.184   9.097  20.059  0.00  0.00    +0.000 OA
BRANCH  28  29
ATOM     29  C   UNL     1      -0.075   8.617  21.306  0.00  0.00    +0.000 C 
ATOM     30  O   UNL     1      -0.775   7.634  21.518  0.00  0.00    +0.000 OA
BRANCH  29  31
ATOM     31  C   UNL     1       0.501   9.478  22.404  0.00  0.00    +0.000 C 
ATOM     32 CL   UNL     1      -0.747  10.453  23.205  0.00  0.00    +0.000 Cl
ENDBRANCH  29  31
ENDBRANCH  28  29
ENDBRANCH  27  28
ENDBRANCH  20  21
ENDBRANCH  14  20
TORSDOF 8
ENDMDL
MODEL 4
REMARK VINA RESULT:      -7.2      2.352      4.138
REMARK  Name = 
REMARK  10 active torsions:
REMARK  status: ('A' for Active; 'I' for Inactive)
REMARK    1  A    between atoms: C_1  and  C_2
REMARK    2  A    between atoms: C_5  and  O_6
REMARK    3  A    between atoms: C_7  and  C_8
REMARK    4  A    between atoms: C_7  and  C_9
REMARK    5  A    between atoms: C_9  and  O_10
REMARK    6  A    between atoms: C_17  and  C_18
REMARK    7  A    between atoms: C_18  and  C_19
REMARK    8  A    between atoms: C_25  and  O_26
REMARK    9  A    between atoms: O_26  and  C_27
REMARK   10  A    between atoms: C_27  and  C_29
REMARK                            x       y       z     vdW  Elec       q    Type
REMARK                         _______ _______ _______ _____ _____    ______ ____
ROOT
ATOM      1  C   UNL     1       1.561   5.436  18.036  0.00  0.00    +0.000 C 
ATOM      2  C   UNL     1       2.644   5.798  19.102  0.00  0.00    +0.000 C 
ATOM      3  C   UNL     1       2.500   4.957  20.415  0.00  0.00    +0.000 C 
ATOM      4  C   UNL     1       3.161   3.586  20.514  0.00  0.00    +0.000 C 
ATOM      5  C   UNL     1       4.532   3.486  19.854  0.00  0.00    +0.000 C 
ATOM      6  C   UNL     1       4.507   4.050  18.402  0.00  0.00    +0.000 C 
ATOM      7  C   UNL     1       5.910   3.894  17.776  0.00  0.00    +0.000 C 
ATOM      8  C   UNL     1       4.099   5.598  18.553  0.00  0.00    +0.000 C 
ATOM      9  C   UNL     1       4.380   6.516  17.344  0.00  0.00    +0.000 C 
ATOM     10  C   UNL     1       3.984   7.988  17.576  0.00  0.00    +0.000 C 
ATOM     11  C   UNL     1       2.620   8.153  18.199  0.00  0.00    +0.000 C 
ATOM     12  C   UNL     1       1.466   8.682  17.356  0.00  0.00    +0.000 C 
ATOM     13  O   UNL     1       2.199   9.522  18.251  0.00  0.00    +0.000 OA
ATOM     14  C   UNL     1       2.393   7.341  19.471  0.00  0.00    +0.000 C 
ENDROOT
BRANCH   5  15
ATOM     15  O   UNL     1       4.948   2.123  19.925  0.00  0.00    +0.000 OA
ATOM     16  H   UNL     1       5.131   1.924  20.868  0.00  0.00    +0.000 HD
ENDBRANCH   5  15
BRANCH   6  17
ATOM     17  C   UNL     1       3.539   3.176  17.550  0.00  0.00    +0.000 C 
BRANCH  17  18
ATOM     18  O   UNL     1       3.982   1.823  17.419  0.00  0.00    +0.000 OA
ATOM     19  H   UNL     1       3.918   1.606  16.469  0.00  0.00    +0.000 HD
ENDBRANCH  17  18
ENDBRANCH   6  17
BRANCH  14  20
ATOM     20  C   UNL     1       1.013   7.482  20.179  0.00  0.00    +0.000 C 
BRANCH  20  21
ATOM     21  C   UNL     1       0.888   8.099  21.543  0.00  0.00    +0.000 C 
ATOM     22  C   UNL     1       0.145   9.188  21.833  0.00  0.00    +0.000 C 
ATOM     23  C   UNL     1       0.216   9.809  23.180  0.00  0.00    +0.000 C 
ATOM     24  O   UNL     1       0.829   9.385  24.141  0.00  0.00    +0.000 OA
ATOM     25  O   UNL     1      -0.501  10.967  23.166  0.00  0.00    +0.000 OA
ATOM     26  C   UNL     1      -0.913  11.275  21.833  0.00  0.00    +0.000 C 
ATOM     27  C   UNL     1      -0.808   9.985  21.022  0.00  0.00    +0.000 C 
BRANCH  27  28
ATOM     28  O   UNL     1      -0.319  10.253  19.709  0.00  0.00    +0.000 OA
BRANCH  28  29
ATOM     29  C   UNL     1      -1.245  10.672  18.805  0.00  0.00    +0.000 C 
ATOM     30  O   UNL     1      -2.140   9.954  18.374  0.00  0.00    +0.000 OA
BRANCH  29  31
ATOM     31  C   UNL     1      -0.997  12.076  18.309  0.00  0.00    +0.000 C 
ATOM     32 CL   UNL     1       0.590  12.687  18.820  0.00  0.00    +0.000 Cl
ENDBRANCH  29  31
ENDBRANCH  28  29
ENDBRANCH  27  28
ENDBRANCH  20  21
ENDBRANCH  14  20
TORSDOF 8
ENDMDL
MODEL 5
REMARK VINA RESULT:      -7.1      4.672      8.730
REMARK  Name = 
REMARK  10 active torsions:
REMARK  status: ('A' for Active; 'I' for Inactive)
REMARK    1  A    between atoms: C_1  and  C_2
REMARK    2  A    between atoms: C_5  and  O_6
REMARK    3  A    between atoms: C_7  and  C_8
REMARK    4  A    between atoms: C_7  and  C_9
REMARK    5  A    between atoms: C_9  and  O_10
REMARK    6  A    between atoms: C_17  and  C_18
REMARK    7  A    between atoms: C_18  and  C_19
REMARK    8  A    between atoms: C_25  and  O_26
REMARK    9  A    between atoms: O_26  and  C_27
REMARK   10  A    between atoms: C_27  and  C_29
REMARK                            x       y       z     vdW  Elec       q    Type
REMARK                         _______ _______ _______ _____ _____    ______ ____
ROOT
ATOM      1  C   UNL     1       5.374   3.971  18.824  0.00  0.00    +0.000 C 
ATOM      2  C   UNL     1       4.193   3.965  17.801  0.00  0.00    +0.000 C 
ATOM      3  C   UNL     1       3.846   2.526  17.293  0.00  0.00    +0.000 C 
ATOM      4  C   UNL     1       2.884   1.651  18.091  0.00  0.00    +0.000 C 
ATOM      5  C   UNL     1       1.709   2.396  18.716  0.00  0.00    +0.000 C 
ATOM      6  C   UNL     1       2.185   3.655  19.499  0.00  0.00    +0.000 C 
ATOM      7  C   UNL     1       0.958   4.347  20.134  0.00  0.00    +0.000 C 
ATOM      8  C   UNL     1       2.891   4.597  18.405  0.00  0.00    +0.000 C 
ATOM      9  C   UNL     1       3.104   6.077  18.789  0.00  0.00    +0.000 C 
ATOM     10  C   UNL     1       3.763   6.919  17.678  0.00  0.00    +0.000 C 
ATOM     11  C   UNL     1       4.955   6.246  17.042  0.00  0.00    +0.000 C 
ATOM     12  C   UNL     1       6.357   6.768  17.333  0.00  0.00    +0.000 C 
ATOM     13  O   UNL     1       5.656   7.108  16.135  0.00  0.00    +0.000 OA
ATOM     14  C   UNL     1       4.701   4.827  16.544  0.00  0.00    +0.000 C 
ENDROOT
BRANCH   5  15
ATOM     15  O   UNL     1       0.987   1.466  19.523  0.00  0.00    +0.000 OA
ATOM     16  H   UNL     1       1.585   1.187  20.250  0.00  0.00    +0.000 HD
ENDBRANCH   5  15
BRANCH   6  17
ATOM     17  C   UNL     1       3.092   3.189  20.677  0.00  0.00    +0.000 C 
BRANCH  17  18
ATOM     18  O   UNL     1       2.352   2.879  21.860  0.00  0.00    +0.000 OA
ATOM     19  H   UNL     1       2.973   2.984  22.607  0.00  0.00    +0.000 HD
ENDBRANCH  17  18
ENDBRANCH   6  17
BRANCH  14  20
ATOM     20  C   UNL     1       5.884   4.083  15.857  0.00  0.00    +0.000 C 
BRANCH  20  21
ATOM     21  C   UNL     1       6.935   4.825  15.080  0.00  0.00    +0.000 C 
ATOM     22  C   UNL     1       7.001   4.887  13.734  0.00  0.00    +0.000 C 
ATOM     23  C   UNL     1       8.168   5.515  13.066  0.00  0.00    +0.000 C 
ATOM     24  O   UNL     1       9.089   6.093  13.612  0.00  0.00    +0.000 OA
ATOM     25  O   UNL     1       8.064   5.315  11.723  0.00  0.00    +0.000 OA
ATOM     26  C   UNL     1       6.983   4.425  11.441  0.00  0.00    +0.000 C 
ATOM     27  C   UNL     1       6.080   4.412  12.672  0.00  0.00    +0.000 C 
BRANCH  27  28
ATOM     28  O   UNL     1       5.589   3.095  12.923  0.00  0.00    +0.000 OA
BRANCH  28  29
ATOM     29  C   UNL     1       5.097   2.430  11.842  0.00  0.00    +0.000 C 
ATOM     30  O   UNL     1       5.751   1.624  11.191  0.00  0.00    +0.000 OA
BRANCH  29  31
ATOM     31  C   UNL     1       3.700   2.863  11.465  0.00  0.00    +0.000 C 
ATOM     32 CL   UNL     1       3.702   3.965  10.074  0.00  0.00    +0.000 Cl
ENDBRANCH  29  31
ENDBRANCH  28  29
ENDBRANCH  27  28
ENDBRANCH  20  21
ENDBRANCH  14  20
TORSDOF 8
ENDMDL
MODEL 6
REMARK VINA RESULT:      -7.1      2.426      4.191
REMARK  Name = 
REMARK  10 active torsions:
REMARK  status: ('A' for Active; 'I' for Inactive)
REMARK    1  A    between atoms: C_1  and  C_2
REMARK    2  A    between atoms: C_5  and  O_6
REMARK    3  A    between atoms: C_7  and  C_8
REMARK    4  A    between atoms: C_7  and  C_9
REMARK    5  A    between atoms: C_9  and  O_10
REMARK    6  A    between atoms: C_17  and  C_18
REMARK    7  A    between atoms: C_18  and  C_19
REMARK    8  A    between atoms: C_25  and  O_26
REMARK    9  A    between atoms: O_26  and  C_27
REMARK   10  A    between atoms: C_27  and  C_29
REMARK                            x       y       z     vdW  Elec       q    Type
REMARK                         _______ _______ _______ _____ _____    ______ ____
ROOT
ATOM      1  C   UNL     1       1.582   5.419  18.015  0.00  0.00    +0.000 C 
ATOM      2  C   UNL     1       2.659   5.786  19.086  0.00  0.00    +0.000 C 
ATOM      3  C   UNL     1       2.517   4.939  20.395  0.00  0.00    +0.000 C 
ATOM      4  C   UNL     1       3.188   3.573  20.491  0.00  0.00    +0.000 C 
ATOM      5  C   UNL     1       4.562   3.486  19.835  0.00  0.00    +0.000 C 
ATOM      6  C   UNL     1       4.537   4.055  18.385  0.00  0.00    +0.000 C 
ATOM      7  C   UNL     1       5.943   3.912  17.763  0.00  0.00    +0.000 C 
ATOM      8  C   UNL     1       4.117   5.599  18.540  0.00  0.00    +0.000 C 
ATOM      9  C   UNL     1       4.394   6.524  17.335  0.00  0.00    +0.000 C 
ATOM     10  C   UNL     1       3.987   7.992  17.572  0.00  0.00    +0.000 C 
ATOM     11  C   UNL     1       2.620   8.143  18.191  0.00  0.00    +0.000 C 
ATOM     12  C   UNL     1       1.464   8.667  17.346  0.00  0.00    +0.000 C 
ATOM     13  O   UNL     1       2.187   9.510  18.246  0.00  0.00    +0.000 OA
ATOM     14  C   UNL     1       2.395   7.326  19.459  0.00  0.00    +0.000 C 
ENDROOT
BRANCH   5  15
ATOM     15  O   UNL     1       4.988   2.126  19.902  0.00  0.00    +0.000 OA
ATOM     16  H   UNL     1       4.844   1.822  20.824  0.00  0.00    +0.000 HD
ENDBRANCH   5  15
BRANCH   6  17
ATOM     17  C   UNL     1       3.578   3.176  17.527  0.00  0.00    +0.000 C 
BRANCH  17  18
ATOM     18  O   UNL     1       3.990   1.809  17.458  0.00  0.00    +0.000 OA
ATOM     19  H   UNL     1       3.481   1.336  18.145  0.00  0.00    +0.000 HD
ENDBRANCH  17  18
ENDBRANCH   6  17
BRANCH  14  20
ATOM     20  C   UNL     1       1.011   7.454  20.163  0.00  0.00    +0.000 C 
BRANCH  20  21
ATOM     21  C   UNL     1       0.873   8.089  21.518  0.00  0.00    +0.000 C 
ATOM     22  C   UNL     1       0.160   9.204  21.780  0.00  0.00    +0.000 C 
ATOM     23  C   UNL     1       0.218   9.836  23.122  0.00  0.00    +0.000 C 
ATOM     24  O   UNL     1       0.794   9.402  24.100  0.00  0.00    +0.000 OA
ATOM     25  O   UNL     1      -0.461  11.016  23.079  0.00  0.00    +0.000 OA
ATOM     26  C   UNL     1      -0.830  11.323  21.733  0.00  0.00    +0.000 C 
ATOM     27  C   UNL     1      -0.748  10.022  20.938  0.00  0.00    +0.000 C 
BRANCH  27  28
ATOM     28  O   UNL     1      -0.219  10.261  19.634  0.00  0.00    +0.000 OA
BRANCH  28  29
ATOM     29  C   UNL     1      -0.764  11.307  18.956  0.00  0.00    +0.000 C 
ATOM     30  O   UNL     1      -0.195  12.381  18.800  0.00  0.00    +0.000 OA
BRANCH  29  31
ATOM     31  C   UNL     1      -2.180  11.046  18.503  0.00  0.00    +0.000 C 
ATOM     32 CL   UNL     1      -2.266   9.719  17.327  0.00  0.00    +0.000 Cl
ENDBRANCH  29  31
ENDBRANCH  28  29
ENDBRANCH  27  28
ENDBRANCH  20  21
ENDBRANCH  14  20
TORSDOF 8
ENDMDL
MODEL 7
REMARK VINA RESULT:      -7.1      4.916      8.852
REMARK  Name = 
REMARK  10 active torsions:
REMARK  status: ('A' for Active; 'I' for Inactive)
REMARK    1  A    between atoms: C_1  and  C_2
REMARK    2  A    between atoms: C_5  and  O_6
REMARK    3  A    between atoms: C_7  and  C_8
REMARK    4  A    between atoms: C_7  and  C_9
REMARK    5  A    between atoms: C_9  and  O_10
REMARK    6  A    between atoms: C_17  and  C_18
REMARK    7  A    between atoms: C_18  and  C_19
REMARK    8  A    between atoms: C_25  and  O_26
REMARK    9  A    between atoms: O_26  and  C_27
REMARK   10  A    between atoms: C_27  and  C_29
REMARK                            x       y       z     vdW  Elec       q    Type
REMARK                         _______ _______ _______ _____ _____    ______ ____
ROOT
ATOM      1  C   UNL     1       5.415   4.059  18.840  0.00  0.00    +0.000 C 
ATOM      2  C   UNL     1       4.259   3.998  17.791  0.00  0.00    +0.000 C 
ATOM      3  C   UNL     1       3.966   2.539  17.305  0.00  0.00    +0.000 C 
ATOM      4  C   UNL     1       3.011   1.653  18.099  0.00  0.00    +0.000 C 
ATOM      5  C   UNL     1       1.800   2.375  18.680  0.00  0.00    +0.000 C 
ATOM      6  C   UNL     1       2.221   3.663  19.448  0.00  0.00    +0.000 C 
ATOM      7  C   UNL     1       0.960   4.332  20.039  0.00  0.00    +0.000 C 
ATOM      8  C   UNL     1       2.925   4.603  18.351  0.00  0.00    +0.000 C 
ATOM      9  C   UNL     1       3.086   6.096  18.708  0.00  0.00    +0.000 C 
ATOM     10  C   UNL     1       3.747   6.934  17.595  0.00  0.00    +0.000 C 
ATOM     11  C   UNL     1       4.972   6.284  17.001  0.00  0.00    +0.000 C 
ATOM     12  C   UNL     1       6.352   6.853  17.314  0.00  0.00    +0.000 C 
ATOM     13  O   UNL     1       5.670   7.148  16.093  0.00  0.00    +0.000 OA
ATOM     14  C   UNL     1       4.772   4.848  16.528  0.00  0.00    +0.000 C 
ENDROOT
BRANCH   5  15
ATOM     15  O   UNL     1       1.087   1.441  19.489  0.00  0.00    +0.000 OA
ATOM     16  H   UNL     1       1.545   1.398  20.356  0.00  0.00    +0.000 HD
ENDBRANCH   5  15
BRANCH   6  17
ATOM     17  C   UNL     1       3.113   3.248  20.656  0.00  0.00    +0.000 C 
BRANCH  17  18
ATOM     18  O   UNL     1       2.351   2.855  21.800  0.00  0.00    +0.000 OA
ATOM     19  H   UNL     1       1.721   3.581  21.971  0.00  0.00    +0.000 HD
ENDBRANCH  17  18
ENDBRANCH   6  17
BRANCH  14  20
ATOM     20  C   UNL     1       5.992   4.125  15.884  0.00  0.00    +0.000 C 
BRANCH  20  21
ATOM     21  C   UNL     1       7.039   4.882  15.116  0.00  0.00    +0.000 C 
ATOM     22  C   UNL     1       7.086   4.986  13.771  0.00  0.00    +0.000 C 
ATOM     23  C   UNL     1       8.251   5.624  13.107  0.00  0.00    +0.000 C 
ATOM     24  O   UNL     1       9.184   6.175  13.657  0.00  0.00    +0.000 OA
ATOM     25  O   UNL     1       8.126   5.467  11.760  0.00  0.00    +0.000 OA
ATOM     26  C   UNL     1       7.032   4.596  11.465  0.00  0.00    +0.000 C 
ATOM     27  C   UNL     1       6.146   4.553  12.708  0.00  0.00    +0.000 C 
BRANCH  27  28
ATOM     28  O   UNL     1       5.646   3.234  12.924  0.00  0.00    +0.000 OA
BRANCH  28  29
ATOM     29  C   UNL     1       5.093   2.624  11.841  0.00  0.00    +0.000 C 
ATOM     30  O   UNL     1       4.099   3.049  11.262  0.00  0.00    +0.000 OA
BRANCH  29  31
ATOM     31  C   UNL     1       5.764   1.319  11.488  0.00  0.00    +0.000 C 
ATOM     32 CL   UNL     1       7.418   1.566  10.890  0.00  0.00    +0.000 Cl
ENDBRANCH  29  31
ENDBRANCH  28  29
ENDBRANCH  27  28
ENDBRANCH  20  21
ENDBRANCH  14  20
TORSDOF 8
ENDMDL
MODEL 8
REMARK VINA RESULT:      -6.9      3.070      8.541
REMARK  Name = 
REMARK  10 active torsions:
REMARK  status: ('A' for Active; 'I' for Inactive)
REMARK    1  A    between atoms: C_1  and  C_2
REMARK    2  A    between atoms: C_5  and  O_6
REMARK    3  A    between atoms: C_7  and  C_8
REMARK    4  A    between atoms: C_7  and  C_9
REMARK    5  A    between atoms: C_9  and  O_10
REMARK    6  A    between atoms: C_17  and  C_18
REMARK    7  A    between atoms: C_18  and  C_19
REMARK    8  A    between atoms: C_25  and  O_26
REMARK    9  A    between atoms: O_26  and  C_27
REMARK   10  A    between atoms: C_27  and  C_29
REMARK                            x       y       z     vdW  Elec       q    Type
REMARK                         _______ _______ _______ _____ _____    ______ ____
ROOT
ATOM      1  C   UNL     1       1.741  10.861  20.817  0.00  0.00    +0.000 C 
ATOM      2  C   UNL     1       0.422  10.023  20.831  0.00  0.00    +0.000 C 
ATOM      3  C   UNL     1       0.089   9.451  22.249  0.00  0.00    +0.000 C 
ATOM      4  C   UNL     1      -0.687  10.302  23.249  0.00  0.00    +0.000 C 
ATOM      5  C   UNL     1      -1.797  11.153  22.640  0.00  0.00    +0.000 C 
ATOM      6  C   UNL     1      -1.285  11.963  21.413  0.00  0.00    +0.000 C 
ATOM      7  C   UNL     1      -2.442  12.826  20.860  0.00  0.00    +0.000 C 
ATOM      8  C   UNL     1      -0.810  10.862  20.342  0.00  0.00    +0.000 C 
ATOM      9  C   UNL     1      -0.632  11.335  18.884  0.00  0.00    +0.000 C 
ATOM     10  C   UNL     1      -0.199  10.216  17.915  0.00  0.00    +0.000 C 
ATOM     11  C   UNL     1       0.921   9.358  18.450  0.00  0.00    +0.000 C 
ATOM     12  C   UNL     1       2.318   9.486  17.852  0.00  0.00    +0.000 C 
ATOM     13  O   UNL     1       1.424   8.436  17.474  0.00  0.00    +0.000 OA
ATOM     14  C   UNL     1       0.682   8.784  19.843  0.00  0.00    +0.000 C 
ENDROOT
BRANCH   5  15
ATOM     15  O   UNL     1      -2.332  11.973  23.678  0.00  0.00    +0.000 OA
ATOM     16  H   UNL     1      -2.302  12.901  23.359  0.00  0.00    +0.000 HD
ENDBRANCH   5  15
BRANCH   6  17
ATOM     17  C   UNL     1      -0.185  12.952  21.899  0.00  0.00    +0.000 C 
BRANCH  17  18
ATOM     18  O   UNL     1      -0.719  14.072  22.609  0.00  0.00    +0.000 OA
ATOM     19  H   UNL     1      -0.013  14.748  22.623  0.00  0.00    +0.000 HD
ENDBRANCH  17  18
ENDBRANCH   6  17
BRANCH  14  20
ATOM     20  C   UNL     1       1.790   7.871  20.446  0.00  0.00    +0.000 C 
BRANCH  20  21
ATOM     21  C   UNL     1       1.558   6.406  20.685  0.00  0.00    +0.000 C 
ATOM     22  C   UNL     1       2.372   5.415  20.263  0.00  0.00    +0.000 C 
ATOM     23  C   UNL     1       1.969   3.995  20.417  0.00  0.00    +0.000 C 
ATOM     24  O   UNL     1       0.978   3.582  20.987  0.00  0.00    +0.000 OA
ATOM     25  O   UNL     1       2.884   3.210  19.781  0.00  0.00    +0.000 OA
ATOM     26  C   UNL     1       3.798   4.021  19.041  0.00  0.00    +0.000 C 
ATOM     27  C   UNL     1       3.703   5.435  19.608  0.00  0.00    +0.000 C 
BRANCH  27  28
ATOM     28  O   UNL     1       3.783   6.403  18.562  0.00  0.00    +0.000 OA
BRANCH  28  29
ATOM     29  C   UNL     1       4.923   6.380  17.819  0.00  0.00    +0.000 C 
ATOM     30  O   UNL     1       6.036   6.190  18.295  0.00  0.00    +0.000 OA
BRANCH  29  31
ATOM     31  C   UNL     1       4.689   6.714  16.365  0.00  0.00    +0.000 C 
ATOM     32 CL   UNL     1       5.505   5.568  15.283  0.00  0.00    +0.000 Cl
ENDBRANCH  29  31
ENDBRANCH  28  29
ENDBRANCH  27  28
ENDBRANCH  20  21
ENDBRANCH  14  20
TORSDOF 8
ENDMDL
MODEL 9
REMARK VINA RESULT:      -6.8      2.538      7.629
REMARK  Name = 
REMARK  10 active torsions:
REMARK  status: ('A' for Active; 'I' for Inactive)
REMARK    1  A    between atoms: C_1  and  C_2
REMARK    2  A    between atoms: C_5  and  O_6
REMARK    3  A    between atoms: C_7  and  C_8
REMARK    4  A    between atoms: C_7  and  C_9
REMARK    5  A    between atoms: C_9  and  O_10
REMARK    6  A    between atoms: C_17  and  C_18
REMARK    7  A    between atoms: C_18  and  C_19
REMARK    8  A    between atoms: C_25  and  O_26
REMARK    9  A    between atoms: O_26  and  C_27
REMARK   10  A    between atoms: C_27  and  C_29
REMARK                            x       y       z     vdW  Elec       q    Type
REMARK                         _______ _______ _______ _____ _____    ______ ____
ROOT
ATOM      1  C   UNL     1      -0.325  10.094  18.885  0.00  0.00    +0.000 C 
ATOM      2  C   UNL     1       1.129  10.453  19.329  0.00  0.00    +0.000 C 
ATOM      3  C   UNL     1       1.967  11.102  18.177  0.00  0.00    +0.000 C 
ATOM      4  C   UNL     1       1.892  12.607  17.939  0.00  0.00    +0.000 C 
ATOM      5  C   UNL     1       1.807  13.453  19.204  0.00  0.00    +0.000 C 
ATOM      6  C   UNL     1       0.700  12.929  20.166  0.00  0.00    +0.000 C 
ATOM      7  C   UNL     1       0.640  13.841  21.411  0.00  0.00    +0.000 C 
ATOM      8  C   UNL     1       1.143  11.434  20.553  0.00  0.00    +0.000 C 
ATOM      9  C   UNL     1       0.471  10.803  21.792  0.00  0.00    +0.000 C 
ATOM     10  C   UNL     1       0.968   9.379  22.112  0.00  0.00    +0.000 C 
ATOM     11  C   UNL     1       1.042   8.483  20.901  0.00  0.00    +0.000 C 
ATOM     12  C   UNL     1       0.024   7.360  20.732  0.00  0.00    +0.000 C 
ATOM     13  O   UNL     1       1.340   7.121  21.239  0.00  0.00    +0.000 OA
ATOM     14  C   UNL     1       1.821   9.058  19.722  0.00  0.00    +0.000 C 
ENDROOT
BRANCH   5  15
ATOM     15  O   UNL     1       1.616  14.810  18.806  0.00  0.00    +0.000 OA
ATOM     16  H   UNL     1       0.893  14.819  18.142  0.00  0.00    +0.000 HD
ENDBRANCH   5  15
BRANCH   6  17
ATOM     17  C   UNL     1      -0.678  13.062  19.450  0.00  0.00    +0.000 C 
BRANCH  17  18
ATOM     18  O   UNL     1      -1.132  14.415  19.366  0.00  0.00    +0.000 OA
ATOM     19  H   UNL     1      -0.687  14.898  20.089  0.00  0.00    +0.000 HD
ENDBRANCH  17  18
ENDBRANCH   6  17
BRANCH  14  20
ATOM     20  C   UNL     1       1.956   8.175  18.447  0.00  0.00    +0.000 C 
BRANCH  20  21
ATOM     21  C   UNL     1       3.296   7.860  17.845  0.00  0.00    +0.000 C 
ATOM     22  C   UNL     1       3.769   6.616  17.618  0.00  0.00    +0.000 C 
ATOM     23  C   UNL     1       5.168   6.414  17.166  0.00  0.00    +0.000 C 
ATOM     24  O   UNL     1       5.966   7.284  16.874  0.00  0.00    +0.000 OA
ATOM     25  O   UNL     1       5.437   5.079  17.158  0.00  0.00    +0.000 OA
ATOM     26  C   UNL     1       4.358   4.356  17.755  0.00  0.00    +0.000 C 
ATOM     27  C   UNL     1       3.140   5.278  17.742  0.00  0.00    +0.000 C 
BRANCH  27  28
ATOM     28  O   UNL     1       2.389   5.136  18.947  0.00  0.00    +0.000 OA
BRANCH  28  29
ATOM     29  C   UNL     1       1.506   4.100  18.976  0.00  0.00    +0.000 C 
ATOM     30  O   UNL     1       1.082   3.546  17.969  0.00  0.00    +0.000 OA
BRANCH  29  31
ATOM     31  C   UNL     1       1.023   3.773  20.369  0.00  0.00    +0.000 C 
ATOM     32 CL   UNL     1       2.314   3.080  21.371  0.00  0.00    +0.000 Cl
ENDBRANCH  29  31
ENDBRANCH  28  29
ENDBRANCH  27  28
ENDBRANCH  20  21
ENDBRANCH  14  20
TORSDOF 8
ENDMDL
