MODEL 1
REMARK VINA RESULT:      -7.6      0.000      0.000
REMARK  Name = 
REMARK  5 active torsions:
REMARK  status: ('A' for Active; 'I' for Inactive)
REMARK    1  A    between atoms: C_1  and  O_2
REMARK    2  A    between atoms: O_2  and  C_3
REMARK    3  A    between atoms: C_6  and  N_7
REMARK    4  A    between atoms: C_8  and  C_10
REMARK    5  A    between atoms: C_10  and  C_11
REMARK                            x       y       z     vdW  Elec       q    Type
REMARK                         _______ _______ _______ _____ _____    ______ ____
ROOT
ATOM      1  N   UNL     1       5.084   4.667  17.674  0.00  0.00    +0.000 N 
ATOM      2  C   UNL     1       4.256   5.709  18.054  0.00  0.00    +0.000 C 
ATOM      3  O   UNL     1       3.993   6.685  17.355  0.00  0.00    +0.000 OA
ATOM      4  H   UNL     1       5.434   4.032  18.383  0.00  0.00    +0.000 HD
ENDROOT
BRANCH   1   8
ATOM      5  C   UNL     1       7.112   4.937  14.089  0.00  0.00    +0.000 A 
ATOM      6  C   UNL     1       5.950   4.178  14.112  0.00  0.00    +0.000 A 
ATOM      7  C   UNL     1       5.253   4.067  15.315  0.00  0.00    +0.000 A 
ATOM      8  C   UNL     1       5.763   4.684  16.448  0.00  0.00    +0.000 A 
ATOM      9  C   UNL     1       6.942   5.410  16.332  0.00  0.00    +0.000 A 
ATOM     10  N   UNL     1       7.617   5.568  15.172  0.00  0.00    +0.000 NA
BRANCH   5  12
ATOM     11  C   UNL     1       7.205   4.171  11.882  0.00  0.00    +0.000 C 
ATOM     12  O   UNL     1       7.764   5.036  12.878  0.00  0.00    +0.000 OA
ENDBRANCH   5  12
ENDBRANCH   1   8
BRANCH   2  13
ATOM     13  C   UNL     1       3.674   5.536  19.447  0.00  0.00    +0.000 C 
BRANCH  13  14
ATOM     14  C   UNL     1       2.313   4.844  19.411  0.00  0.00    +0.000 C 
ATOM     15  C   UNL     1       1.525   4.935  20.736  0.00  0.00    +0.000 C 
ATOM     16  C   UNL     1       1.164   3.467  21.028  0.00  0.00    +0.000 C 
ATOM     17  C   UNL     1       2.437   2.730  21.478  0.00  0.00    +0.000 C 
ATOM     18  C   UNL     1       3.224   2.572  20.168  0.00  0.00    +0.000 C 
ATOM     19  C   UNL     1       2.349   3.315  19.146  0.00  0.00    +0.000 C 
ATOM     20  C   UNL     1       0.947   2.906  19.623  0.00  0.00    +0.000 C 
ENDBRANCH  13  14
ENDBRANCH   2  13
TORSDOF 4
ENDMDL
MODEL 2
REMARK VINA RESULT:      -7.2      2.905      3.723
REMARK  Name = 
REMARK  5 active torsions:
REMARK  status: ('A' for Active; 'I' for Inactive)
REMARK    1  A    between atoms: C_1  and  O_2
REMARK    2  A    between atoms: O_2  and  C_3
REMARK    3  A    between atoms: C_6  and  N_7
REMARK    4  A    between atoms: C_8  and  C_10
REMARK    5  A    between atoms: C_10  and  C_11
REMARK                            x       y       z     vdW  Elec       q    Type
REMARK                         _______ _______ _______ _____ _____    ______ ____
ROOT
ATOM      1  N   UNL     1       5.977   4.169  18.583  0.00  0.00    +0.000 N 
ATOM      2  C   UNL     1       4.878   4.118  19.423  0.00  0.00    +0.000 C 
ATOM      3  O   UNL     1       4.321   5.101  19.907  0.00  0.00    +0.000 OA
ATOM      4  H   UNL     1       6.513   3.324  18.422  0.00  0.00    +0.000 HD
ENDROOT
BRANCH   1   8
ATOM      5  C   UNL     1       7.821   7.794  17.876  0.00  0.00    +0.000 A 
ATOM      6  C   UNL     1       6.736   7.461  17.078  0.00  0.00    +0.000 A 
ATOM      7  C   UNL     1       6.101   6.238  17.295  0.00  0.00    +0.000 A 
ATOM      8  C   UNL     1       6.600   5.385  18.268  0.00  0.00    +0.000 A 
ATOM      9  C   UNL     1       7.702   5.796  19.008  0.00  0.00    +0.000 A 
ATOM     10  N   UNL     1       8.311   6.993  18.847  0.00  0.00    +0.000 NA
BRANCH   5  12
ATOM     11  C   UNL     1       8.869   9.643  18.849  0.00  0.00    +0.000 C 
ATOM     12  O   UNL     1       8.411   9.018  17.643  0.00  0.00    +0.000 OA
ENDBRANCH   5  12
ENDBRANCH   1   8
BRANCH   2  13
ATOM     13  C   UNL     1       4.396   2.704  19.697  0.00  0.00    +0.000 C 
BRANCH  13  14
ATOM     14  C   UNL     1       3.131   2.373  18.910  0.00  0.00    +0.000 C 
ATOM     15  C   UNL     1       2.598   3.542  18.053  0.00  0.00    +0.000 C 
ATOM     16  C   UNL     1       1.123   3.644  18.481  0.00  0.00    +0.000 C 
ATOM     17  C   UNL     1       1.064   4.248  19.895  0.00  0.00    +0.000 C 
ATOM     18  C   UNL     1       1.537   3.089  20.784  0.00  0.00    +0.000 C 
ATOM     19  C   UNL     1       1.892   1.993  19.766  0.00  0.00    +0.000 C 
ATOM     20  C   UNL     1       0.764   2.182  18.742  0.00  0.00    +0.000 C 
ENDBRANCH  13  14
ENDBRANCH   2  13
TORSDOF 4
ENDMDL
MODEL 3
REMARK VINA RESULT:      -7.1      1.273      1.809
REMARK  Name = 
REMARK  5 active torsions:
REMARK  status: ('A' for Active; 'I' for Inactive)
REMARK    1  A    between atoms: C_1  and  O_2
REMARK    2  A    between atoms: O_2  and  C_3
REMARK    3  A    between atoms: C_6  and  N_7
REMARK    4  A    between atoms: C_8  and  C_10
REMARK    5  A    between atoms: C_10  and  C_11
REMARK                            x       y       z     vdW  Elec       q    Type
REMARK                         _______ _______ _______ _____ _____    ______ ____
ROOT
ATOM      1  N   UNL     1       3.623   5.450  17.746  0.00  0.00    +0.000 N 
ATOM      2  C   UNL     1       3.992   5.596  19.072  0.00  0.00    +0.000 C 
ATOM      3  O   UNL     1       5.150   5.574  19.484  0.00  0.00    +0.000 OA
ATOM      4  H   UNL     1       2.656   5.244  17.522  0.00  0.00    +0.000 HD
ENDROOT
BRANCH   1   8
ATOM      5  C   UNL     1       6.309   4.821  14.674  0.00  0.00    +0.000 A 
ATOM      6  C   UNL     1       5.872   3.710  15.381  0.00  0.00    +0.000 A 
ATOM      7  C   UNL     1       4.970   3.899  16.427  0.00  0.00    +0.000 A 
ATOM      8  C   UNL     1       4.574   5.189  16.749  0.00  0.00    +0.000 A 
ATOM      9  C   UNL     1       5.076   6.243  15.996  0.00  0.00    +0.000 A 
ATOM     10  N   UNL     1       5.920   6.086  14.951  0.00  0.00    +0.000 NA
BRANCH   5  12
ATOM     11  C   UNL     1       6.612   3.785  12.601  0.00  0.00    +0.000 C 
ATOM     12  O   UNL     1       7.187   4.592  13.636  0.00  0.00    +0.000 OA
ENDBRANCH   5  12
ENDBRANCH   1   8
BRANCH   2  13
ATOM     13  C   UNL     1       2.810   5.800  20.004  0.00  0.00    +0.000 C 
BRANCH  13  14
ATOM     14  C   UNL     1       2.506   4.544  20.818  0.00  0.00    +0.000 C 
ATOM     15  C   UNL     1       3.421   3.344  20.489  0.00  0.00    +0.000 C 
ATOM     16  C   UNL     1       2.419   2.210  20.204  0.00  0.00    +0.000 C 
ATOM     17  C   UNL     1       1.755   2.473  18.842  0.00  0.00    +0.000 C 
ATOM     18  C   UNL     1       0.793   3.631  19.145  0.00  0.00    +0.000 C 
ATOM     19  C   UNL     1       1.087   3.948  20.620  0.00  0.00    +0.000 C 
ATOM     20  C   UNL     1       1.287   2.531  21.180  0.00  0.00    +0.000 C 
ENDBRANCH  13  14
ENDBRANCH   2  13
TORSDOF 4
ENDMDL
MODEL 4
REMARK VINA RESULT:      -7.0      2.743      3.479
REMARK  Name = 
REMARK  5 active torsions:
REMARK  status: ('A' for Active; 'I' for Inactive)
REMARK    1  A    between atoms: C_1  and  O_2
REMARK    2  A    between atoms: O_2  and  C_3
REMARK    3  A    between atoms: C_6  and  N_7
REMARK    4  A    between atoms: C_8  and  C_10
REMARK    5  A    between atoms: C_10  and  C_11
REMARK                            x       y       z     vdW  Elec       q    Type
REMARK                         _______ _______ _______ _____ _____    ______ ____
ROOT
ATOM      1  N   UNL     1       5.213   3.979  18.803  0.00  0.00    +0.000 N 
ATOM      2  C   UNL     1       4.464   3.291  17.865  0.00  0.00    +0.000 C 
ATOM      3  O   UNL     1       4.425   3.559  16.666  0.00  0.00    +0.000 OA
ATOM      4  H   UNL     1       5.010   3.849  19.788  0.00  0.00    +0.000 HD
ENDROOT
BRANCH   1   8
ATOM      5  C   UNL     1       7.360   7.277  17.557  0.00  0.00    +0.000 A 
ATOM      6  C   UNL     1       7.916   6.491  18.556  0.00  0.00    +0.000 A 
ATOM      7  C   UNL     1       7.205   5.375  18.998  0.00  0.00    +0.000 A 
ATOM      8  C   UNL     1       5.957   5.115  18.453  0.00  0.00    +0.000 A 
ATOM      9  C   UNL     1       5.473   5.967  17.467  0.00  0.00    +0.000 A 
ATOM     10  N   UNL     1       6.158   7.031  16.992  0.00  0.00    +0.000 NA
BRANCH   5  12
ATOM     11  C   UNL     1       8.374   9.284  18.197  0.00  0.00    +0.000 C 
ATOM     12  O   UNL     1       8.101   8.361  17.135  0.00  0.00    +0.000 OA
ENDBRANCH   5  12
ENDBRANCH   1   8
BRANCH   2  13
ATOM     13  C   UNL     1       3.674   2.136  18.457  0.00  0.00    +0.000 C 
BRANCH  13  14
ATOM     14  C   UNL     1       2.231   2.532  18.761  0.00  0.00    +0.000 C 
ATOM     15  C   UNL     1       1.946   4.041  18.605  0.00  0.00    +0.000 C 
ATOM     16  C   UNL     1       1.295   4.414  19.950  0.00  0.00    +0.000 C 
ATOM     17  C   UNL     1       2.384   4.418  21.036  0.00  0.00    +0.000 C 
ATOM     18  C   UNL     1       2.654   2.922  21.258  0.00  0.00    +0.000 C 
ATOM     19  C   UNL     1       1.753   2.249  20.211  0.00  0.00    +0.000 C 
ATOM     20  C   UNL     1       0.510   3.147  20.286  0.00  0.00    +0.000 C 
ENDBRANCH  13  14
ENDBRANCH   2  13
TORSDOF 4
ENDMDL
MODEL 5
REMARK VINA RESULT:      -7.0      1.401      2.003
REMARK  Name = 
REMARK  5 active torsions:
REMARK  status: ('A' for Active; 'I' for Inactive)
REMARK    1  A    between atoms: C_1  and  O_2
REMARK    2  A    between atoms: O_2  and  C_3
REMARK    3  A    between atoms: C_6  and  N_7
REMARK    4  A    between atoms: C_8  and  C_10
REMARK    5  A    between atoms: C_10  and  C_11
REMARK                            x       y       z     vdW  Elec       q    Type
REMARK                         _______ _______ _______ _____ _____    ______ ____
ROOT
ATOM      1  N   UNL     1       4.519   5.447  17.994  0.00  0.00    +0.000 N 
ATOM      2  C   UNL     1       4.685   4.734  19.168  0.00  0.00    +0.000 C 
ATOM      3  O   UNL     1       5.643   4.004  19.414  0.00  0.00    +0.000 OA
ATOM      4  H   UNL     1       3.606   5.829  17.774  0.00  0.00    +0.000 HD
ENDROOT
BRANCH   1   8
ATOM      5  C   UNL     1       7.216   5.327  14.871  0.00  0.00    +0.000 A 
ATOM      6  C   UNL     1       6.092   4.519  14.778  0.00  0.00    +0.000 A 
ATOM      7  C   UNL     1       5.170   4.538  15.825  0.00  0.00    +0.000 A 
ATOM      8  C   UNL     1       5.428   5.330  16.933  0.00  0.00    +0.000 A 
ATOM      9  C   UNL     1       6.589   6.094  16.946  0.00  0.00    +0.000 A 
ATOM     10  N   UNL     1       7.479   6.126  15.928  0.00  0.00    +0.000 NA
BRANCH   5  12
ATOM     11  C   UNL     1       7.493   4.776  12.616  0.00  0.00    +0.000 C 
ATOM     12  O   UNL     1       8.095   5.293  13.809  0.00  0.00    +0.000 OA
ENDBRANCH   5  12
ENDBRANCH   1   8
BRANCH   2  13
ATOM     13  C   UNL     1       3.556   4.942  20.163  0.00  0.00    +0.000 C 
BRANCH  13  14
ATOM     14  C   UNL     1       2.592   3.759  20.182  0.00  0.00    +0.000 C 
ATOM     15  C   UNL     1       3.166   2.468  19.559  0.00  0.00    +0.000 C 
ATOM     16  C   UNL     1       2.089   2.065  18.535  0.00  0.00    +0.000 C 
ATOM     17  C   UNL     1       2.158   3.037  17.344  0.00  0.00    +0.000 C 
ATOM     18  C   UNL     1       1.540   4.322  17.914  0.00  0.00    +0.000 C 
ATOM     19  C   UNL     1       1.275   3.958  19.383  0.00  0.00    +0.000 C 
ATOM     20  C   UNL     1       0.804   2.504  19.234  0.00  0.00    +0.000 C 
ENDBRANCH  13  14
ENDBRANCH   2  13
TORSDOF 4
ENDMDL
MODEL 6
REMARK VINA RESULT:      -7.0      2.864      3.451
REMARK  Name = 
REMARK  5 active torsions:
REMARK  status: ('A' for Active; 'I' for Inactive)
REMARK    1  A    between atoms: C_1  and  O_2
REMARK    2  A    between atoms: O_2  and  C_3
REMARK    3  A    between atoms: C_6  and  N_7
REMARK    4  A    between atoms: C_8  and  C_10
REMARK    5  A    between atoms: C_10  and  C_11
REMARK                            x       y       z     vdW  Elec       q    Type
REMARK                         _______ _______ _______ _____ _____    ______ ____
ROOT
ATOM      1  N   UNL     1       5.233   4.044  19.021  0.00  0.00    +0.000 N 
ATOM      2  C   UNL     1       4.569   3.137  18.213  0.00  0.00    +0.000 C 
ATOM      3  O   UNL     1       4.573   3.161  16.984  0.00  0.00    +0.000 OA
ATOM      4  H   UNL     1       4.990   4.099  20.004  0.00  0.00    +0.000 HD
ENDROOT
BRANCH   1   8
ATOM      5  C   UNL     1       7.349   7.303  17.630  0.00  0.00    +0.000 A 
ATOM      6  C   UNL     1       6.066   7.114  17.136  0.00  0.00    +0.000 A 
ATOM      7  C   UNL     1       5.336   6.015  17.587  0.00  0.00    +0.000 A 
ATOM      8  C   UNL     1       5.928   5.134  18.478  0.00  0.00    +0.000 A 
ATOM      9  C   UNL     1       7.224   5.395  18.906  0.00  0.00    +0.000 A 
ATOM     10  N   UNL     1       7.941   6.474  18.518  0.00  0.00    +0.000 NA
BRANCH   5  12
ATOM     11  C   UNL     1       8.407   9.299  18.234  0.00  0.00    +0.000 C 
ATOM     12  O   UNL     1       8.034   8.410  17.174  0.00  0.00    +0.000 OA
ENDBRANCH   5  12
ENDBRANCH   1   8
BRANCH   2  13
ATOM     13  C   UNL     1       3.818   2.073  18.995  0.00  0.00    +0.000 C 
BRANCH  13  14
ATOM     14  C   UNL     1       2.327   2.389  19.095  0.00  0.00    +0.000 C 
ATOM     15  C   UNL     1       1.944   3.792  18.576  0.00  0.00    +0.000 C 
ATOM     16  C   UNL     1       1.146   4.393  19.748  0.00  0.00    +0.000 C 
ATOM     17  C   UNL     1       2.127   4.741  20.881  0.00  0.00    +0.000 C 
ATOM     18  C   UNL     1       2.488   3.365  21.459  0.00  0.00    +0.000 C 
ATOM     19  C   UNL     1       1.740   2.393  20.533  0.00  0.00    +0.000 C 
ATOM     20  C   UNL     1       0.431   3.164  20.309  0.00  0.00    +0.000 C 
ENDBRANCH  13  14
ENDBRANCH   2  13
TORSDOF 4
ENDMDL
MODEL 7
REMARK VINA RESULT:      -6.9      2.390      3.070
REMARK  Name = 
REMARK  5 active torsions:
REMARK  status: ('A' for Active; 'I' for Inactive)
REMARK    1  A    between atoms: C_1  and  O_2
REMARK    2  A    between atoms: O_2  and  C_3
REMARK    3  A    between atoms: C_6  and  N_7
REMARK    4  A    between atoms: C_8  and  C_10
REMARK    5  A    between atoms: C_10  and  C_11
REMARK                            x       y       z     vdW  Elec       q    Type
REMARK                         _______ _______ _______ _____ _____    ______ ____
ROOT
ATOM      1  N   UNL     1       3.614   4.606  17.627  0.00  0.00    +0.000 N 
ATOM      2  C   UNL     1       2.367   5.118  17.942  0.00  0.00    +0.000 C 
ATOM      3  O   UNL     1       2.121   6.312  18.102  0.00  0.00    +0.000 OA
ATOM      4  H   UNL     1       3.783   3.613  17.745  0.00  0.00    +0.000 HD
ENDROOT
BRANCH   1   8
ATOM      5  C   UNL     1       6.968   6.961  17.136  0.00  0.00    +0.000 A 
ATOM      6  C   UNL     1       6.816   6.307  18.350  0.00  0.00    +0.000 A 
ATOM      7  C   UNL     1       5.687   5.511  18.541  0.00  0.00    +0.000 A 
ATOM      8  C   UNL     1       4.741   5.434  17.530  0.00  0.00    +0.000 A 
ATOM      9  C   UNL     1       4.969   6.137  16.354  0.00  0.00    +0.000 A 
ATOM     10  N   UNL     1       6.074   6.883  16.126  0.00  0.00    +0.000 NA
BRANCH   5  12
ATOM     11  C   UNL     1       8.207   8.763  17.963  0.00  0.00    +0.000 C 
ATOM     12  O   UNL     1       8.105   7.725  16.979  0.00  0.00    +0.000 OA
ENDBRANCH   5  12
ENDBRANCH   1   8
BRANCH   2  13
ATOM     13  C   UNL     1       1.294   4.051  18.070  0.00  0.00    +0.000 C 
BRANCH  13  14
ATOM     14  C   UNL     1       0.975   3.740  19.531  0.00  0.00    +0.000 C 
ATOM     15  C   UNL     1       1.757   4.604  20.544  0.00  0.00    +0.000 C 
ATOM     16  C   UNL     1       2.386   3.557  21.482  0.00  0.00    +0.000 C 
ATOM     17  C   UNL     1       3.530   2.852  20.733  0.00  0.00    +0.000 C 
ATOM     18  C   UNL     1       2.785   1.938  19.749  0.00  0.00    +0.000 C 
ATOM     19  C   UNL     1       1.310   2.296  19.993  0.00  0.00    +0.000 C 
ATOM     20  C   UNL     1       1.310   2.473  21.519  0.00  0.00    +0.000 C 
ENDBRANCH  13  14
ENDBRANCH   2  13
TORSDOF 4
ENDMDL
MODEL 8
REMARK VINA RESULT:      -6.9      1.318      1.815
REMARK  Name = 
REMARK  5 active torsions:
REMARK  status: ('A' for Active; 'I' for Inactive)
REMARK    1  A    between atoms: C_1  and  O_2
REMARK    2  A    between atoms: O_2  and  C_3
REMARK    3  A    between atoms: C_6  and  N_7
REMARK    4  A    between atoms: C_8  and  C_10
REMARK    5  A    between atoms: C_10  and  C_11
REMARK                            x       y       z     vdW  Elec       q    Type
REMARK                         _______ _______ _______ _____ _____    ______ ____
ROOT
ATOM      1  N   UNL     1       4.981   3.357  17.307  0.00  0.00    +0.000 N 
ATOM      2  C   UNL     1       5.247   3.560  18.650  0.00  0.00    +0.000 C 
ATOM      3  O   UNL     1       6.161   4.258  19.084  0.00  0.00    +0.000 OA
ATOM      4  H   UNL     1       4.372   2.593  17.036  0.00  0.00    +0.000 HD
ENDROOT
BRANCH   1   8
ATOM      5  C   UNL     1       7.361   5.148  14.450  0.00  0.00    +0.000 A 
ATOM      6  C   UNL     1       6.505   4.140  14.030  0.00  0.00    +0.000 A 
ATOM      7  C   UNL     1       5.697   3.516  14.980  0.00  0.00    +0.000 A 
ATOM      8  C   UNL     1       5.804   3.896  16.309  0.00  0.00    +0.000 A 
ATOM      9  C   UNL     1       6.701   4.905  16.639  0.00  0.00    +0.000 A 
ATOM     10  N   UNL     1       7.468   5.555  15.734  0.00  0.00    +0.000 NA
BRANCH   5  12
ATOM     11  C   UNL     1       7.745   5.369  12.155  0.00  0.00    +0.000 C 
ATOM     12  O   UNL     1       8.132   5.753  13.480  0.00  0.00    +0.000 OA
ENDBRANCH   5  12
ENDBRANCH   1   8
BRANCH   2  13
ATOM     13  C   UNL     1       4.282   2.834  19.571  0.00  0.00    +0.000 C 
BRANCH  13  14
ATOM     14  C   UNL     1       3.326   3.801  20.266  0.00  0.00    +0.000 C 
ATOM     15  C   UNL     1       2.368   3.125  21.271  0.00  0.00    +0.000 C 
ATOM     16  C   UNL     1       0.982   3.624  20.822  0.00  0.00    +0.000 C 
ATOM     17  C   UNL     1       0.605   2.911  19.512  0.00  0.00    +0.000 C 
ATOM     18  C   UNL     1       1.504   3.600  18.475  0.00  0.00    +0.000 C 
ATOM     19  C   UNL     1       2.347   4.560  19.329  0.00  0.00    +0.000 C 
ATOM     20  C   UNL     1       1.294   5.040  20.339  0.00  0.00    +0.000 C 
ENDBRANCH  13  14
ENDBRANCH   2  13
TORSDOF 4
ENDMDL
MODEL 9
REMARK VINA RESULT:      -6.9      0.845      1.589
REMARK  Name = 
REMARK  5 active torsions:
REMARK  status: ('A' for Active; 'I' for Inactive)
REMARK    1  A    between atoms: C_1  and  O_2
REMARK    2  A    between atoms: O_2  and  C_3
REMARK    3  A    between atoms: C_6  and  N_7
REMARK    4  A    between atoms: C_8  and  C_10
REMARK    5  A    between atoms: C_10  and  C_11
REMARK                            x       y       z     vdW  Elec       q    Type
REMARK                         _______ _______ _______ _____ _____    ______ ____
ROOT
ATOM      1  N   UNL     1       5.755   4.407  17.957  0.00  0.00    +0.000 N 
ATOM      2  C   UNL     1       4.526   4.920  18.334  0.00  0.00    +0.000 C 
ATOM      3  O   UNL     1       3.696   5.392  17.560  0.00  0.00    +0.000 OA
ATOM      4  H   UNL     1       6.465   4.260  18.665  0.00  0.00    +0.000 HD
ENDROOT
BRANCH   1   8
ATOM      5  C   UNL     1       7.011   4.768  14.042  0.00  0.00    +0.000 A 
ATOM      6  C   UNL     1       6.076   3.783  14.326  0.00  0.00    +0.000 A 
ATOM      7  C   UNL     1       5.642   3.638  15.644  0.00  0.00    +0.000 A 
ATOM      8  C   UNL     1       6.187   4.454  16.624  0.00  0.00    +0.000 A 
ATOM      9  C   UNL     1       7.131   5.402  16.248  0.00  0.00    +0.000 A 
ATOM     10  N   UNL     1       7.539   5.592  14.974  0.00  0.00    +0.000 NA
BRANCH   5  12
ATOM     11  C   UNL     1       7.009   3.766  11.930  0.00  0.00    +0.000 C 
ATOM     12  O   UNL     1       7.403   4.891  12.726  0.00  0.00    +0.000 OA
ENDBRANCH   5  12
ENDBRANCH   1   8
BRANCH   2  13
ATOM     13  C   UNL     1       4.275   4.840  19.831  0.00  0.00    +0.000 C 
BRANCH  13  14
ATOM     14  C   UNL     1       3.614   3.522  20.226  0.00  0.00    +0.000 C 
ATOM     15  C   UNL     1       3.204   2.639  19.027  0.00  0.00    +0.000 C 
ATOM     16  C   UNL     1       1.722   2.332  19.311  0.00  0.00    +0.000 C 
ATOM     17  C   UNL     1       0.899   3.605  19.050  0.00  0.00    +0.000 C 
ATOM     18  C   UNL     1       1.242   4.490  20.259  0.00  0.00    +0.000 C 
ATOM     19  C   UNL     1       2.284   3.652  21.016  0.00  0.00    +0.000 C 
ATOM     20  C   UNL     1       1.701   2.243  20.837  0.00  0.00    +0.000 C 
ENDBRANCH  13  14
ENDBRANCH   2  13
TORSDOF 4
ENDMDL
