MODEL 1
REMARK VINA RESULT:     -10.6      0.000      0.000
REMARK  Name = 
REMARK  7 active torsions:
REMARK  status: ('A' for Active; 'I' for Inactive)
REMARK    1  A    between atoms: C_1  and  N_2
REMARK    2  A    between atoms: C_9  and  C_10
REMARK    3  A    between atoms: C_10  and  N_11
REMARK    4  A    between atoms: N_11  and  C_12
REMARK    5  A    between atoms: C_16  and  C_17
REMARK    6  A    between atoms: C_18  and  C_19
REMARK    7  A    between atoms: C_19  and  C_20
REMARK                            x       y       z     vdW  Elec       q    Type
REMARK                         _______ _______ _______ _____ _____    ______ ____
ROOT
ATOM      1  C   UNL     1       1.220   9.559  18.848  0.00  0.00    +0.000 A 
ATOM      2  C   UNL     1       0.988   9.283  20.183  0.00  0.00    +0.000 A 
ATOM      3  C   UNL     1       1.512   8.103  20.770  0.00  0.00    +0.000 A 
ATOM      4  C   UNL     1       2.260   7.139  20.039  0.00  0.00    +0.000 A 
ATOM      5  C   UNL     1       2.484   7.309  18.675  0.00  0.00    +0.000 A 
ATOM      6  C   UNL     1       1.930   8.542  18.150  0.00  0.00    +0.000 A 
ENDROOT
BRANCH   5   7
ATOM      7  C   UNL     1       3.283   6.330  17.750  0.00  0.00    +0.000 A 
ATOM      8  C   UNL     1       3.220   5.065  18.201  0.00  0.00    +0.000 A 
ATOM      9  N   UNL     1       4.106   4.724  19.164  0.00  0.00    +0.000 NA
ATOM     10  N   UNL     1       5.206   5.491  19.335  0.00  0.00    +0.000 NA
ATOM     11  C   UNL     1       5.618   6.157  18.261  0.00  0.00    +0.000 A 
ATOM     12  C   UNL     1       6.969   6.074  17.905  0.00  0.00    +0.000 A 
ATOM     13 CL   UNL     1       8.208   5.915  19.105  0.00  0.00    +0.000 Cl
ATOM     14  C   UNL     1       7.329   5.856  16.577  0.00  0.00    +0.000 A 
ATOM     15  C   UNL     1       6.330   5.817  15.616  0.00  0.00    +0.000 A 
ATOM     16  C   UNL     1       5.009   6.164  15.970  0.00  0.00    +0.000 A 
ATOM     17  C   UNL     1       4.621   6.446  17.318  0.00  0.00    +0.000 A 
BRANCH   8  18
ATOM     18  C   UNL     1       2.317   4.017  17.558  0.00  0.00    +0.000 C 
BRANCH  18  19
ATOM     19  C   UNL     1       1.656   3.210  18.658  0.00  0.00    +0.000 A 
ATOM     20  C   UNL     1       0.851   3.891  19.574  0.00  0.00    +0.000 A 
ATOM     21  C   UNL     1       0.905   3.523  20.912  0.00  0.00    +0.000 A 
ATOM     22  C   UNL     1       1.654   2.413  21.300  0.00  0.00    +0.000 A 
ATOM     23  C   UNL     1       2.270   1.610  20.341  0.00  0.00    +0.000 A 
ATOM     24  C   UNL     1       2.249   1.987  19.006  0.00  0.00    +0.000 A 
ENDBRANCH  18  19
ENDBRANCH   8  18
ENDBRANCH   5   7
BRANCH   1  25
ATOM     25  N   UNL     1       0.946  10.801  18.229  0.00  0.00    +0.000 N 
ATOM     26  H   UNL     1       0.770  10.672  17.239  0.00  0.00    +0.000 HD
BRANCH  25  27
ATOM     27  C   UNL     1      -0.025  11.790  18.748  0.00  0.00    +0.000 C 
BRANCH  27  36
ATOM     28  C   UNL     1      -1.840  13.635  20.703  0.00  0.00    +0.000 C 
ATOM     29  N   UNL     1      -2.873  12.900  20.016  0.00  0.00    +0.000 N 
ATOM     30  C   UNL     1      -4.205  13.070  20.293  0.00  0.00    +0.000 A 
ATOM     31  C   UNL     1      -4.917  12.240  19.472  0.00  0.00    +0.000 A 
ATOM     32  C   UNL     1      -3.978  11.549  18.657  0.00  0.00    +0.000 A 
ATOM     33  C   UNL     1      -4.158  10.580  17.654  0.00  0.00    +0.000 A 
ATOM     34  C   UNL     1      -3.035  10.050  17.030  0.00  0.00    +0.000 A 
ATOM     35  C   UNL     1      -1.749  10.476  17.383  0.00  0.00    +0.000 A 
ATOM     36  C   UNL     1      -1.490  11.459  18.376  0.00  0.00    +0.000 A 
ATOM     37  C   UNL     1      -2.674  11.975  19.002  0.00  0.00    +0.000 A 
ENDBRANCH  27  36
ENDBRANCH  25  27
ENDBRANCH   1  25
TORSDOF 6
ENDMDL
MODEL 2
REMARK VINA RESULT:     -10.1      2.311      3.516
REMARK  Name = 
REMARK  7 active torsions:
REMARK  status: ('A' for Active; 'I' for Inactive)
REMARK    1  A    between atoms: C_1  and  N_2
REMARK    2  A    between atoms: C_9  and  C_10
REMARK    3  A    between atoms: C_10  and  N_11
REMARK    4  A    between atoms: N_11  and  C_12
REMARK    5  A    between atoms: C_16  and  C_17
REMARK    6  A    between atoms: C_18  and  C_19
REMARK    7  A    between atoms: C_19  and  C_20
REMARK                            x       y       z     vdW  Elec       q    Type
REMARK                         _______ _______ _______ _____ _____    ______ ____
ROOT
ATOM      1  C   UNL     1       1.564   9.799  18.521  0.00  0.00    +0.000 A 
ATOM      2  C   UNL     1       1.159   9.571  19.823  0.00  0.00    +0.000 A 
ATOM      3  C   UNL     1       1.456   8.337  20.457  0.00  0.00    +0.000 A 
ATOM      4  C   UNL     1       2.140   7.275  19.805  0.00  0.00    +0.000 A 
ATOM      5  C   UNL     1       2.527   7.399  18.472  0.00  0.00    +0.000 A 
ATOM      6  C   UNL     1       2.201   8.690  17.897  0.00  0.00    +0.000 A 
ENDROOT
BRANCH   5   7
ATOM      7  C   UNL     1       3.279   6.313  17.632  0.00  0.00    +0.000 A 
ATOM      8  C   UNL     1       3.152   5.091  18.180  0.00  0.00    +0.000 A 
ATOM      9  N   UNL     1       4.015   4.783  19.173  0.00  0.00    +0.000 NA
ATOM     10  N   UNL     1       5.151   5.506  19.294  0.00  0.00    +0.000 NA
ATOM     11  C   UNL     1       5.601   6.064  18.175  0.00  0.00    +0.000 A 
ATOM     12  C   UNL     1       6.947   5.888  17.838  0.00  0.00    +0.000 A 
ATOM     13 CL   UNL     1       8.171   5.761  19.056  0.00  0.00    +0.000 Cl
ATOM     14  C   UNL     1       7.301   5.549  16.533  0.00  0.00    +0.000 A 
ATOM     15  C   UNL     1       6.306   5.485  15.569  0.00  0.00    +0.000 A 
ATOM     16  C   UNL     1       5.003   5.924  15.885  0.00  0.00    +0.000 A 
ATOM     17  C   UNL     1       4.624   6.328  17.204  0.00  0.00    +0.000 A 
BRANCH   8  18
ATOM     18  C   UNL     1       2.200   4.043  17.613  0.00  0.00    +0.000 C 
BRANCH  18  19
ATOM     19  C   UNL     1       1.592   3.269  18.766  0.00  0.00    +0.000 A 
ATOM     20  C   UNL     1       0.867   3.985  19.722  0.00  0.00    +0.000 A 
ATOM     21  C   UNL     1       1.000   3.633  21.060  0.00  0.00    +0.000 A 
ATOM     22  C   UNL     1       1.744   2.509  21.414  0.00  0.00    +0.000 A 
ATOM     23  C   UNL     1       2.274   1.676  20.430  0.00  0.00    +0.000 A 
ATOM     24  C   UNL     1       2.175   2.036  19.093  0.00  0.00    +0.000 A 
ENDBRANCH  18  19
ENDBRANCH   8  18
ENDBRANCH   5   7
BRANCH   1  25
ATOM     25  N   UNL     1       1.525  11.061  17.882  0.00  0.00    +0.000 N 
ATOM     26  H   UNL     1       0.571  11.401  17.826  0.00  0.00    +0.000 HD
BRANCH  25  27
ATOM     27  C   UNL     1       2.403  12.198  18.236  0.00  0.00    +0.000 C 
BRANCH  27  36
ATOM     28  C   UNL     1       4.643  14.542  18.119  0.00  0.00    +0.000 C 
ATOM     29  N   UNL     1       3.475  15.322  18.443  0.00  0.00    +0.000 N 
ATOM     30  C   UNL     1       3.527  16.679  18.637  0.00  0.00    +0.000 A 
ATOM     31  C   UNL     1       2.262  17.115  18.918  0.00  0.00    +0.000 A 
ATOM     32  C   UNL     1       1.407  15.978  18.881  0.00  0.00    +0.000 A 
ATOM     33  C   UNL     1       0.024  15.850  19.101  0.00  0.00    +0.000 A 
ATOM     34  C   UNL     1      -0.549  14.588  19.021  0.00  0.00    +0.000 A 
ATOM     35  C   UNL     1       0.229  13.463  18.720  0.00  0.00    +0.000 A 
ATOM     36  C   UNL     1       1.627  13.516  18.473  0.00  0.00    +0.000 A 
ATOM     37  C   UNL     1       2.182  14.835  18.572  0.00  0.00    +0.000 A 
ENDBRANCH  27  36
ENDBRANCH  25  27
ENDBRANCH   1  25
TORSDOF 6
ENDMDL
MODEL 3
REMARK VINA RESULT:     -10.0      3.256      9.479
REMARK  Name = 
REMARK  7 active torsions:
REMARK  status: ('A' for Active; 'I' for Inactive)
REMARK    1  A    between atoms: C_1  and  N_2
REMARK    2  A    between atoms: C_9  and  C_10
REMARK    3  A    between atoms: C_10  and  N_11
REMARK    4  A    between atoms: N_11  and  C_12
REMARK    5  A    between atoms: C_16  and  C_17
REMARK    6  A    between atoms: C_18  and  C_19
REMARK    7  A    between atoms: C_19  and  C_20
REMARK                            x       y       z     vdW  Elec       q    Type
REMARK                         _______ _______ _______ _____ _____    ______ ____
ROOT
ATOM      1  C   UNL     1       1.058   8.860  21.314  0.00  0.00    +0.000 A 
ATOM      2  C   UNL     1       0.628   9.295  22.554  0.00  0.00    +0.000 A 
ATOM      3  C   UNL     1      -0.333  10.333  22.653  0.00  0.00    +0.000 A 
ATOM      4  C   UNL     1      -0.878  10.997  21.519  0.00  0.00    +0.000 A 
ATOM      5  C   UNL     1      -0.451  10.663  20.236  0.00  0.00    +0.000 A 
ATOM      6  C   UNL     1       0.522   9.588  20.214  0.00  0.00    +0.000 A 
ENDROOT
BRANCH   5   7
ATOM      7  C   UNL     1      -0.959  11.313  18.905  0.00  0.00    +0.000 A 
ATOM      8  C   UNL     1      -1.197  12.627  19.058  0.00  0.00    +0.000 A 
ATOM      9  N   UNL     1      -2.401  12.967  19.570  0.00  0.00    +0.000 NA
ATOM     10  N   UNL     1      -3.402  12.058  19.533  0.00  0.00    +0.000 NA
ATOM     11  C   UNL     1      -3.326  11.156  18.559  0.00  0.00    +0.000 A 
ATOM     12  C   UNL     1      -4.458  10.936  17.766  0.00  0.00    +0.000 A 
ATOM     13 CL   UNL     1      -6.055  11.077  18.419  0.00  0.00    +0.000 Cl
ATOM     14  C   UNL     1      -4.334  10.857  16.381  0.00  0.00    +0.000 A 
ATOM     15  C   UNL     1      -3.065  10.906  15.823  0.00  0.00    +0.000 A 
ATOM     16  C   UNL     1      -1.933  10.863  16.664  0.00  0.00    +0.000 A 
ATOM     17  C   UNL     1      -2.031  10.890  18.090  0.00  0.00    +0.000 A 
BRANCH   8  18
ATOM     18  C   UNL     1      -0.238  13.692  18.535  0.00  0.00    +0.000 C 
BRANCH  18  19
ATOM     19  C   UNL     1       1.140  13.422  19.107  0.00  0.00    +0.000 A 
ATOM     20  C   UNL     1       1.379  13.788  20.434  0.00  0.00    +0.000 A 
ATOM     21  C   UNL     1       2.610  14.342  20.762  0.00  0.00    +0.000 A 
ATOM     22  C   UNL     1       3.621  14.409  19.804  0.00  0.00    +0.000 A 
ATOM     23  C   UNL     1       3.440  13.832  18.548  0.00  0.00    +0.000 A 
ATOM     24  C   UNL     1       2.204  13.306  18.200  0.00  0.00    +0.000 A 
ENDBRANCH  18  19
ENDBRANCH   8  18
ENDBRANCH   5   7
BRANCH   1  25
ATOM     25  N   UNL     1       1.827   7.693  21.099  0.00  0.00    +0.000 N 
ATOM     26  H   UNL     1       1.463   6.922  21.649  0.00  0.00    +0.000 HD
BRANCH  25  27
ATOM     27  C   UNL     1       2.194   7.175  19.762  0.00  0.00    +0.000 C 
BRANCH  27  36
ATOM     28  C   UNL     1       4.224   6.413  17.349  0.00  0.00    +0.000 C 
ATOM     29  N   UNL     1       3.737   5.101  17.696  0.00  0.00    +0.000 N 
ATOM     30  C   UNL     1       4.135   3.969  17.032  0.00  0.00    +0.000 A 
ATOM     31  C   UNL     1       3.503   2.900  17.602  0.00  0.00    +0.000 A 
ATOM     32  C   UNL     1       2.699   3.403  18.663  0.00  0.00    +0.000 A 
ATOM     33  C   UNL     1       1.843   2.750  19.567  0.00  0.00    +0.000 A 
ATOM     34  C   UNL     1       1.152   3.513  20.500  0.00  0.00    +0.000 A 
ATOM     35  C   UNL     1       1.309   4.903  20.548  0.00  0.00    +0.000 A 
ATOM     36  C   UNL     1       2.165   5.630  19.677  0.00  0.00    +0.000 A 
ATOM     37  C   UNL     1       2.854   4.808  18.724  0.00  0.00    +0.000 A 
ENDBRANCH  27  36
ENDBRANCH  25  27
ENDBRANCH   1  25
TORSDOF 6
ENDMDL
MODEL 4
REMARK VINA RESULT:     -10.0      1.886      4.334
REMARK  Name = 
REMARK  7 active torsions:
REMARK  status: ('A' for Active; 'I' for Inactive)
REMARK    1  A    between atoms: C_1  and  N_2
REMARK    2  A    between atoms: C_9  and  C_10
REMARK    3  A    between atoms: C_10  and  N_11
REMARK    4  A    between atoms: N_11  and  C_12
REMARK    5  A    between atoms: C_16  and  C_17
REMARK    6  A    between atoms: C_18  and  C_19
REMARK    7  A    between atoms: C_19  and  C_20
REMARK                            x       y       z     vdW  Elec       q    Type
REMARK                         _______ _______ _______ _____ _____    ______ ____
ROOT
ATOM      1  C   UNL     1       0.884   9.472  19.429  0.00  0.00    +0.000 A 
ATOM      2  C   UNL     1       1.322   9.928  18.200  0.00  0.00    +0.000 A 
ATOM      3  C   UNL     1       2.257   9.171  17.448  0.00  0.00    +0.000 A 
ATOM      4  C   UNL     1       2.812   7.945  17.909  0.00  0.00    +0.000 A 
ATOM      5  C   UNL     1       2.472   7.448  19.165  0.00  0.00    +0.000 A 
ATOM      6  C   UNL     1       1.505   8.269  19.868  0.00  0.00    +0.000 A 
ENDROOT
BRANCH   5   7
ATOM      7  C   UNL     1       3.009   6.120  19.799  0.00  0.00    +0.000 A 
ATOM      8  C   UNL     1       3.910   5.522  19.000  0.00  0.00    +0.000 A 
ATOM      9  N   UNL     1       3.417   4.739  18.014  0.00  0.00    +0.000 NA
ATOM     10  N   UNL     1       2.144   4.296  18.114  0.00  0.00    +0.000 NA
ATOM     11  C   UNL     1       1.666   4.187  19.349  0.00  0.00    +0.000 A 
ATOM     12  C   UNL     1       1.042   2.989  19.718  0.00  0.00    +0.000 A 
ATOM     13 CL   UNL     1       0.143   2.053  18.572  0.00  0.00    +0.000 Cl
ATOM     14  C   UNL     1       1.345   2.392  20.940  0.00  0.00    +0.000 A 
ATOM     15  C   UNL     1       2.199   3.054  21.810  0.00  0.00    +0.000 A 
ATOM     16  C   UNL     1       2.599   4.376  21.520  0.00  0.00    +0.000 A 
ATOM     17  C   UNL     1       2.258   5.034  20.297  0.00  0.00    +0.000 A 
BRANCH   8  18
ATOM     18  C   UNL     1       5.409   5.583  19.278  0.00  0.00    +0.000 C 
BRANCH  18  19
ATOM     19  C   UNL     1       6.137   5.755  17.960  0.00  0.00    +0.000 A 
ATOM     20  C   UNL     1       5.595   6.640  17.025  0.00  0.00    +0.000 A 
ATOM     21  C   UNL     1       5.625   6.291  15.680  0.00  0.00    +0.000 A 
ATOM     22  C   UNL     1       6.297   5.139  15.275  0.00  0.00    +0.000 A 
ATOM     23  C   UNL     1       7.025   4.387  16.195  0.00  0.00    +0.000 A 
ATOM     24  C   UNL     1       6.975   4.709  17.545  0.00  0.00    +0.000 A 
ENDBRANCH  18  19
ENDBRANCH   8  18
ENDBRANCH   5   7
BRANCH   1  25
ATOM     25  N   UNL     1      -0.204  10.024  20.145  0.00  0.00    +0.000 N 
ATOM     26  H   UNL     1      -0.034   9.971  21.144  0.00  0.00    +0.000 HD
BRANCH  25  27
ATOM     27  C   UNL     1      -0.812  11.339  19.847  0.00  0.00    +0.000 C 
BRANCH  27  36
ATOM     28  C   UNL     1      -3.019  13.259  21.250  0.00  0.00    +0.000 C 
ATOM     29  N   UNL     1      -3.800  12.726  20.163  0.00  0.00    +0.000 N 
ATOM     30  C   UNL     1      -5.119  13.054  19.974  0.00  0.00    +0.000 A 
ATOM     31  C   UNL     1      -5.564  12.394  18.864  0.00  0.00    +0.000 A 
ATOM     32  C   UNL     1      -4.468  11.645  18.351  0.00  0.00    +0.000 A 
ATOM     33  C   UNL     1      -4.368  10.789  17.240  0.00  0.00    +0.000 A 
ATOM     34  C   UNL     1      -3.155  10.161  16.989  0.00  0.00    +0.000 A 
ATOM     35  C   UNL     1      -2.049  10.379  17.818  0.00  0.00    +0.000 A 
ATOM     36  C   UNL     1      -2.069  11.240  18.949  0.00  0.00    +0.000 A 
ATOM     37  C   UNL     1      -3.341  11.862  19.179  0.00  0.00    +0.000 A 
ENDBRANCH  27  36
ENDBRANCH  25  27
ENDBRANCH   1  25
TORSDOF 6
ENDMDL
MODEL 5
REMARK VINA RESULT:      -9.9      0.816      1.709
REMARK  Name = 
REMARK  7 active torsions:
REMARK  status: ('A' for Active; 'I' for Inactive)
REMARK    1  A    between atoms: C_1  and  N_2
REMARK    2  A    between atoms: C_9  and  C_10
REMARK    3  A    between atoms: C_10  and  N_11
REMARK    4  A    between atoms: N_11  and  C_12
REMARK    5  A    between atoms: C_16  and  C_17
REMARK    6  A    between atoms: C_18  and  C_19
REMARK    7  A    between atoms: C_19  and  C_20
REMARK                            x       y       z     vdW  Elec       q    Type
REMARK                         _______ _______ _______ _____ _____    ______ ____
ROOT
ATOM      1  C   UNL     1       1.031   9.579  18.983  0.00  0.00    +0.000 A 
ATOM      2  C   UNL     1       0.869   9.299  20.327  0.00  0.00    +0.000 A 
ATOM      3  C   UNL     1       1.470   8.145  20.894  0.00  0.00    +0.000 A 
ATOM      4  C   UNL     1       2.228   7.212  20.134  0.00  0.00    +0.000 A 
ATOM      5  C   UNL     1       2.385   7.386  18.761  0.00  0.00    +0.000 A 
ATOM      6  C   UNL     1       1.755   8.591  18.257  0.00  0.00    +0.000 A 
ENDROOT
BRANCH   5   7
ATOM      7  C   UNL     1       3.186   6.439  17.805  0.00  0.00    +0.000 A 
ATOM      8  C   UNL     1       3.145   5.164  18.227  0.00  0.00    +0.000 A 
ATOM      9  N   UNL     1       4.046   4.812  19.172  0.00  0.00    +0.000 NA
ATOM     10  N   UNL     1       5.138   5.590  19.349  0.00  0.00    +0.000 NA
ATOM     11  C   UNL     1       5.529   6.286  18.286  0.00  0.00    +0.000 A 
ATOM     12  C   UNL     1       6.877   6.230  17.913  0.00  0.00    +0.000 A 
ATOM     13 CL   UNL     1       8.131   6.060  19.095  0.00  0.00    +0.000 Cl
ATOM     14  C   UNL     1       7.224   6.047  16.576  0.00  0.00    +0.000 A 
ATOM     15  C   UNL     1       6.214   6.016  15.625  0.00  0.00    +0.000 A 
ATOM     16  C   UNL     1       4.893   6.338  16.003  0.00  0.00    +0.000 A 
ATOM     17  C   UNL     1       4.518   6.583  17.361  0.00  0.00    +0.000 A 
BRANCH   8  18
ATOM     18  C   UNL     1       2.248   4.119  17.571  0.00  0.00    +0.000 C 
BRANCH  18  19
ATOM     19  C   UNL     1       1.622   3.269  18.659  0.00  0.00    +0.000 A 
ATOM     20  C   UNL     1       0.860   3.915  19.635  0.00  0.00    +0.000 A 
ATOM     21  C   UNL     1       0.962   3.486  20.953  0.00  0.00    +0.000 A 
ATOM     22  C   UNL     1       1.714   2.354  21.260  0.00  0.00    +0.000 A 
ATOM     23  C   UNL     1       2.284   1.589  20.244  0.00  0.00    +0.000 A 
ATOM     24  C   UNL     1       2.215   2.026  18.928  0.00  0.00    +0.000 A 
ENDBRANCH  18  19
ENDBRANCH   8  18
ENDBRANCH   5   7
BRANCH   1  25
ATOM     25  N   UNL     1       0.676  10.805  18.374  0.00  0.00    +0.000 N 
ATOM     26  H   UNL     1       1.430  11.138  17.783  0.00  0.00    +0.000 HD
BRANCH  25  27
ATOM     27  C   UNL     1      -0.604  11.042  17.671  0.00  0.00    +0.000 C 
BRANCH  27  36
ATOM     28  C   UNL     1      -3.359  10.596  16.017  0.00  0.00    +0.000 C 
ATOM     29  N   UNL     1      -3.874  11.238  17.201  0.00  0.00    +0.000 N 
ATOM     30  C   UNL     1      -5.206  11.519  17.365  0.00  0.00    +0.000 A 
ATOM     31  C   UNL     1      -5.366  12.114  18.585  0.00  0.00    +0.000 A 
ATOM     32  C   UNL     1      -4.080  12.187  19.189  0.00  0.00    +0.000 A 
ATOM     33  C   UNL     1      -3.665  12.707  20.428  0.00  0.00    +0.000 A 
ATOM     34  C   UNL     1      -2.315  12.664  20.751  0.00  0.00    +0.000 A 
ATOM     35  C   UNL     1      -1.383  12.108  19.867  0.00  0.00    +0.000 A 
ATOM     36  C   UNL     1      -1.728  11.551  18.605  0.00  0.00    +0.000 A 
ATOM     37  C   UNL     1      -3.129  11.622  18.306  0.00  0.00    +0.000 A 
ENDBRANCH  27  36
ENDBRANCH  25  27
ENDBRANCH   1  25
TORSDOF 6
ENDMDL
MODEL 6
REMARK VINA RESULT:      -9.8      1.963      3.130
REMARK  Name = 
REMARK  7 active torsions:
REMARK  status: ('A' for Active; 'I' for Inactive)
REMARK    1  A    between atoms: C_1  and  N_2
REMARK    2  A    between atoms: C_9  and  C_10
REMARK    3  A    between atoms: C_10  and  N_11
REMARK    4  A    between atoms: N_11  and  C_12
REMARK    5  A    between atoms: C_16  and  C_17
REMARK    6  A    between atoms: C_18  and  C_19
REMARK    7  A    between atoms: C_19  and  C_20
REMARK                            x       y       z     vdW  Elec       q    Type
REMARK                         _______ _______ _______ _____ _____    ______ ____
ROOT
ATOM      1  C   UNL     1       1.366   9.779  18.762  0.00  0.00    +0.000 A 
ATOM      2  C   UNL     1       1.028   9.495  20.072  0.00  0.00    +0.000 A 
ATOM      3  C   UNL     1       1.417   8.265  20.660  0.00  0.00    +0.000 A 
ATOM      4  C   UNL     1       2.132   7.259  19.953  0.00  0.00    +0.000 A 
ATOM      5  C   UNL     1       2.456   7.438  18.610  0.00  0.00    +0.000 A 
ATOM      6  C   UNL     1       2.037   8.723  18.083  0.00  0.00    +0.000 A 
ENDROOT
BRANCH   5   7
ATOM      7  C   UNL     1       3.233   6.417  17.712  0.00  0.00    +0.000 A 
ATOM      8  C   UNL     1       3.128   5.164  18.188  0.00  0.00    +0.000 A 
ATOM      9  N   UNL     1       3.995   4.816  19.165  0.00  0.00    +0.000 NA
ATOM     10  N   UNL     1       5.116   5.553  19.331  0.00  0.00    +0.000 NA
ATOM     11  C   UNL     1       5.557   6.184  18.247  0.00  0.00    +0.000 A 
ATOM     12  C   UNL     1       6.908   6.054  17.905  0.00  0.00    +0.000 A 
ATOM     13 CL   UNL     1       8.131   5.883  19.119  0.00  0.00    +0.000 Cl
ATOM     14  C   UNL     1       7.272   5.798  16.585  0.00  0.00    +0.000 A 
ATOM     15  C   UNL     1       6.280   5.770  15.616  0.00  0.00    +0.000 A 
ATOM     16  C   UNL     1       4.968   6.164  15.951  0.00  0.00    +0.000 A 
ATOM     17  C   UNL     1       4.578   6.484  17.290  0.00  0.00    +0.000 A 
BRANCH   8  18
ATOM     18  C   UNL     1       2.199   4.131  17.558  0.00  0.00    +0.000 C 
BRANCH  18  19
ATOM     19  C   UNL     1       1.590   3.293  18.664  0.00  0.00    +0.000 A 
ATOM     20  C   UNL     1       0.889   3.956  19.675  0.00  0.00    +0.000 A 
ATOM     21  C   UNL     1       1.029   3.513  20.984  0.00  0.00    +0.000 A 
ATOM     22  C   UNL     1       1.755   2.354  21.254  0.00  0.00    +0.000 A 
ATOM     23  C   UNL     1       2.258   1.580  20.210  0.00  0.00    +0.000 A 
ATOM     24  C   UNL     1       2.151   2.030  18.901  0.00  0.00    +0.000 A 
ENDBRANCH  18  19
ENDBRANCH   8  18
ENDBRANCH   5   7
BRANCH   1  25
ATOM     25  N   UNL     1       1.232  11.051  18.159  0.00  0.00    +0.000 N 
ATOM     26  H   UNL     1       0.915  10.958  17.200  0.00  0.00    +0.000 HD
BRANCH  25  27
ATOM     27  C   UNL     1       0.516  12.191  18.776  0.00  0.00    +0.000 C 
BRANCH  27  36
ATOM     28  C   UNL     1      -1.407  14.407  20.158  0.00  0.00    +0.000 C 
ATOM     29  N   UNL     1      -0.311  15.246  19.741  0.00  0.00    +0.000 N 
ATOM     30  C   UNL     1      -0.302  16.602  19.947  0.00  0.00    +0.000 A 
ATOM     31  C   UNL     1       0.869  17.098  19.448  0.00  0.00    +0.000 A 
ATOM     32  C   UNL     1       1.605  15.997  18.929  0.00  0.00    +0.000 A 
ATOM     33  C   UNL     1       2.861  15.935  18.299  0.00  0.00    +0.000 A 
ATOM     34  C   UNL     1       3.329  14.701  17.865  0.00  0.00    +0.000 A 
ATOM     35  C   UNL     1       2.573  13.538  18.056  0.00  0.00    +0.000 A 
ATOM     36  C   UNL     1       1.304  13.520  18.696  0.00  0.00    +0.000 A 
ATOM     37  C   UNL     1       0.853  14.814  19.121  0.00  0.00    +0.000 A 
ENDBRANCH  27  36
ENDBRANCH  25  27
ENDBRANCH   1  25
TORSDOF 6
ENDMDL
MODEL 7
REMARK VINA RESULT:      -9.8      2.116      4.760
REMARK  Name = 
REMARK  7 active torsions:
REMARK  status: ('A' for Active; 'I' for Inactive)
REMARK    1  A    between atoms: C_1  and  N_2
REMARK    2  A    between atoms: C_9  and  C_10
REMARK    3  A    between atoms: C_10  and  N_11
REMARK    4  A    between atoms: N_11  and  C_12
REMARK    5  A    between atoms: C_16  and  C_17
REMARK    6  A    between atoms: C_18  and  C_19
REMARK    7  A    between atoms: C_19  and  C_20
REMARK                            x       y       z     vdW  Elec       q    Type
REMARK                         _______ _______ _______ _____ _____    ______ ____
ROOT
ATOM      1  C   UNL     1       0.797   9.545  19.751  0.00  0.00    +0.000 A 
ATOM      2  C   UNL     1       1.047   9.994  18.468  0.00  0.00    +0.000 A 
ATOM      3  C   UNL     1       1.846   9.223  17.585  0.00  0.00    +0.000 A 
ATOM      4  C   UNL     1       2.449   7.991  17.960  0.00  0.00    +0.000 A 
ATOM      5  C   UNL     1       2.299   7.499  19.255  0.00  0.00    +0.000 A 
ATOM      6  C   UNL     1       1.461   8.334  20.094  0.00  0.00    +0.000 A 
ENDROOT
BRANCH   5   7
ATOM      7  C   UNL     1       2.908   6.165  19.804  0.00  0.00    +0.000 A 
ATOM      8  C   UNL     1       3.781   5.628  18.934  0.00  0.00    +0.000 A 
ATOM      9  N   UNL     1       3.258   4.870  17.944  0.00  0.00    +0.000 NA
ATOM     10  N   UNL     1       2.006   4.383  18.094  0.00  0.00    +0.000 NA
ATOM     11  C   UNL     1       1.600   4.210  19.348  0.00  0.00    +0.000 A 
ATOM     12  C   UNL     1       1.033   2.979  19.700  0.00  0.00    +0.000 A 
ATOM     13 CL   UNL     1       0.100   2.061  18.566  0.00  0.00    +0.000 Cl
ATOM     14  C   UNL     1       1.420   2.344  20.877  0.00  0.00    +0.000 A 
ATOM     15  C   UNL     1       2.300   2.998  21.727  0.00  0.00    +0.000 A 
ATOM     16  C   UNL     1       2.645   4.342  21.471  0.00  0.00    +0.000 A 
ATOM     17  C   UNL     1       2.218   5.037  20.296  0.00  0.00    +0.000 A 
BRANCH   8  18
ATOM     18  C   UNL     1       5.291   5.726  19.133  0.00  0.00    +0.000 C 
BRANCH  18  19
ATOM     19  C   UNL     1       5.955   5.771  17.772  0.00  0.00    +0.000 A 
ATOM     20  C   UNL     1       5.536   6.755  16.873  0.00  0.00    +0.000 A 
ATOM     21  C   UNL     1       5.415   6.422  15.529  0.00  0.00    +0.000 A 
ATOM     22  C   UNL     1       5.827   5.168  15.082  0.00  0.00    +0.000 A 
ATOM     23  C   UNL     1       6.454   4.280  15.955  0.00  0.00    +0.000 A 
ATOM     24  C   UNL     1       6.550   4.589  17.305  0.00  0.00    +0.000 A 
ENDBRANCH  18  19
ENDBRANCH   8  18
ENDBRANCH   5   7
BRANCH   1  25
ATOM     25  N   UNL     1      -0.162  10.113  20.623  0.00  0.00    +0.000 N 
ATOM     26  H   UNL     1      -0.198   9.595  21.495  0.00  0.00    +0.000 HD
BRANCH  25  27
ATOM     27  C   UNL     1      -0.247  11.556  20.937  0.00  0.00    +0.000 C 
BRANCH  27  36
ATOM     28  C   UNL     1      -2.318  11.703  18.443  0.00  0.00    +0.000 C 
ATOM     29  N   UNL     1      -3.179  12.137  19.515  0.00  0.00    +0.000 N 
ATOM     30  C   UNL     1      -4.486  12.498  19.309  0.00  0.00    +0.000 A 
ATOM     31  C   UNL     1      -5.024  12.848  20.515  0.00  0.00    +0.000 A 
ATOM     32  C   UNL     1      -4.005  12.681  21.495  0.00  0.00    +0.000 A 
ATOM     33  C   UNL     1      -4.008  12.901  22.883  0.00  0.00    +0.000 A 
ATOM     34  C   UNL     1      -2.839  12.672  23.597  0.00  0.00    +0.000 A 
ATOM     35  C   UNL     1      -1.680  12.223  22.953  0.00  0.00    +0.000 A 
ATOM     36  C   UNL     1      -1.604  11.966  21.557  0.00  0.00    +0.000 A 
ATOM     37  C   UNL     1      -2.829  12.222  20.855  0.00  0.00    +0.000 A 
ENDBRANCH  27  36
ENDBRANCH  25  27
ENDBRANCH   1  25
TORSDOF 6
ENDMDL
MODEL 8
REMARK VINA RESULT:      -9.8      2.036      4.468
REMARK  Name = 
REMARK  7 active torsions:
REMARK  status: ('A' for Active; 'I' for Inactive)
REMARK    1  A    between atoms: C_1  and  N_2
REMARK    2  A    between atoms: C_9  and  C_10
REMARK    3  A    between atoms: C_10  and  N_11
REMARK    4  A    between atoms: N_11  and  C_12
REMARK    5  A    between atoms: C_16  and  C_17
REMARK    6  A    between atoms: C_18  and  C_19
REMARK    7  A    between atoms: C_19  and  C_20
REMARK                            x       y       z     vdW  Elec       q    Type
REMARK                         _______ _______ _______ _____ _____    ______ ____
ROOT
ATOM      1  C   UNL     1       0.938   9.532  19.691  0.00  0.00    +0.000 A 
ATOM      2  C   UNL     1       1.200   9.952  18.400  0.00  0.00    +0.000 A 
ATOM      3  C   UNL     1       1.983   9.148  17.532  0.00  0.00    +0.000 A 
ATOM      4  C   UNL     1       2.559   7.910  17.929  0.00  0.00    +0.000 A 
ATOM      5  C   UNL     1       2.397   7.445  19.233  0.00  0.00    +0.000 A 
ATOM      6  C   UNL     1       1.577   8.313  20.056  0.00  0.00    +0.000 A 
ENDROOT
BRANCH   5   7
ATOM      7  C   UNL     1       2.977   6.108  19.806  0.00  0.00    +0.000 A 
ATOM      8  C   UNL     1       3.855   5.548  18.955  0.00  0.00    +0.000 A 
ATOM      9  N   UNL     1       3.335   4.786  17.967  0.00  0.00    +0.000 NA
ATOM     10  N   UNL     1       2.073   4.320  18.103  0.00  0.00    +0.000 NA
ATOM     11  C   UNL     1       1.645   4.168  19.352  0.00  0.00    +0.000 A 
ATOM     12  C   UNL     1       1.054   2.951  19.709  0.00  0.00    +0.000 A 
ATOM     13 CL   UNL     1       0.124   2.034  18.571  0.00  0.00    +0.000 Cl
ATOM     14  C   UNL     1       1.413   2.323  20.899  0.00  0.00    +0.000 A 
ATOM     15  C   UNL     1       2.290   2.974  21.755  0.00  0.00    +0.000 A 
ATOM     16  C   UNL     1       2.660   4.309  21.489  0.00  0.00    +0.000 A 
ATOM     17  C   UNL     1       2.262   4.997  20.300  0.00  0.00    +0.000 A 
BRANCH   8  18
ATOM     18  C   UNL     1       5.362   5.625  19.177  0.00  0.00    +0.000 C 
BRANCH  18  19
ATOM     19  C   UNL     1       6.042   5.749  17.828  0.00  0.00    +0.000 A 
ATOM     20  C   UNL     1       5.575   6.729  16.949  0.00  0.00    +0.000 A 
ATOM     21  C   UNL     1       5.495   6.427  15.595  0.00  0.00    +0.000 A 
ATOM     22  C   UNL     1       5.992   5.214  15.122  0.00  0.00    +0.000 A 
ATOM     23  C   UNL     1       6.660   4.343  15.981  0.00  0.00    +0.000 A 
ATOM     24  C   UNL     1       6.718   4.621  17.340  0.00  0.00    +0.000 A 
ENDBRANCH  18  19
ENDBRANCH   8  18
ENDBRANCH   5   7
BRANCH   1  25
ATOM     25  N   UNL     1      -0.009  10.135  20.551  0.00  0.00    +0.000 N 
ATOM     26  H   UNL     1       0.123   9.813  21.504  0.00  0.00    +0.000 HD
BRANCH  25  27
ATOM     27  C   UNL     1      -0.292  11.586  20.587  0.00  0.00    +0.000 C 
BRANCH  27  36
ATOM     28  C   UNL     1      -1.498  13.182  23.141  0.00  0.00    +0.000 C 
ATOM     29  N   UNL     1      -2.667  13.128  22.299  0.00  0.00    +0.000 N 
ATOM     30  C   UNL     1      -3.875  13.650  22.685  0.00  0.00    +0.000 A 
ATOM     31  C   UNL     1      -4.767  13.447  21.669  0.00  0.00    +0.000 A 
ATOM     32  C   UNL     1      -4.067  12.787  20.621  0.00  0.00    +0.000 A 
ATOM     33  C   UNL     1      -4.496  12.336  19.360  0.00  0.00    +0.000 A 
ATOM     34  C   UNL     1      -3.583  11.689  18.537  0.00  0.00    +0.000 A 
ATOM     35  C   UNL     1      -2.259  11.495  18.948  0.00  0.00    +0.000 A 
ATOM     36  C   UNL     1      -1.750  11.933  20.200  0.00  0.00    +0.000 A 
ATOM     37  C   UNL     1      -2.725  12.588  21.023  0.00  0.00    +0.000 A 
ENDBRANCH  27  36
ENDBRANCH  25  27
ENDBRANCH   1  25
TORSDOF 6
ENDMDL
MODEL 9
REMARK VINA RESULT:      -9.7      3.187      9.628
REMARK  Name = 
REMARK  7 active torsions:
REMARK  status: ('A' for Active; 'I' for Inactive)
REMARK    1  A    between atoms: C_1  and  N_2
REMARK    2  A    between atoms: C_9  and  C_10
REMARK    3  A    between atoms: C_10  and  N_11
REMARK    4  A    between atoms: N_11  and  C_12
REMARK    5  A    between atoms: C_16  and  C_17
REMARK    6  A    between atoms: C_18  and  C_19
REMARK    7  A    between atoms: C_19  and  C_20
REMARK                            x       y       z     vdW  Elec       q    Type
REMARK                         _______ _______ _______ _____ _____    ______ ____
ROOT
ATOM      1  C   UNL     1       1.149   8.735  21.253  0.00  0.00    +0.000 A 
ATOM      2  C   UNL     1       0.804   9.265  22.482  0.00  0.00    +0.000 A 
ATOM      3  C   UNL     1      -0.100  10.356  22.560  0.00  0.00    +0.000 A 
ATOM      4  C   UNL     1      -0.669  10.977  21.414  0.00  0.00    +0.000 A 
ATOM      5  C   UNL     1      -0.323  10.545  20.136  0.00  0.00    +0.000 A 
ATOM      6  C   UNL     1       0.594   9.421  20.136  0.00  0.00    +0.000 A 
ENDROOT
BRANCH   5   7
ATOM      7  C   UNL     1      -0.866  11.137  18.792  0.00  0.00    +0.000 A 
ATOM      8  C   UNL     1      -0.851  12.482  18.805  0.00  0.00    +0.000 A 
ATOM      9  N   UNL     1      -1.907  13.091  19.388  0.00  0.00    +0.000 NA
ATOM     10  N   UNL     1      -3.048  12.387  19.562  0.00  0.00    +0.000 NA
ATOM     11  C   UNL     1      -3.248  11.391  18.704  0.00  0.00    +0.000 A 
ATOM     12  C   UNL     1      -4.487  11.307  18.059  0.00  0.00    +0.000 A 
ATOM     13 CL   UNL     1      -5.946  11.810  18.845  0.00  0.00    +0.000 Cl
ATOM     14  C   UNL     1      -4.546  11.064  16.689  0.00  0.00    +0.000 A 
ATOM     15  C   UNL     1      -3.363  10.817  16.006  0.00  0.00    +0.000 A 
ATOM     16  C   UNL     1      -2.164  10.650  16.730  0.00  0.00    +0.000 A 
ATOM     17  C   UNL     1      -2.085  10.841  18.145  0.00  0.00    +0.000 A 
BRANCH   8  18
ATOM     18  C   UNL     1       0.210  13.289  18.063  0.00  0.00    +0.000 C 
BRANCH  18  19
ATOM     19  C   UNL     1       1.071  14.007  19.084  0.00  0.00    +0.000 A 
ATOM     20  C   UNL     1       2.039  13.261  19.762  0.00  0.00    +0.000 A 
ATOM     21  C   UNL     1       2.245  13.507  21.114  0.00  0.00    +0.000 A 
ATOM     22  C   UNL     1       1.584  14.564  21.738  0.00  0.00    +0.000 A 
ATOM     23  C   UNL     1       0.794  15.438  20.993  0.00  0.00    +0.000 A 
ATOM     24  C   UNL     1       0.556  15.183  19.650  0.00  0.00    +0.000 A 
ENDBRANCH  18  19
ENDBRANCH   8  18
ENDBRANCH   5   7
BRANCH   1  25
ATOM     25  N   UNL     1       1.848   7.518  21.075  0.00  0.00    +0.000 N 
ATOM     26  H   UNL     1       1.414   6.778  21.616  0.00  0.00    +0.000 HD
BRANCH  25  27
ATOM     27  C   UNL     1       2.233   6.966  19.758  0.00  0.00    +0.000 C 
BRANCH  27  36
ATOM     28  C   UNL     1       4.246   6.118  17.359  0.00  0.00    +0.000 C 
ATOM     29  N   UNL     1       3.735   4.823  17.733  0.00  0.00    +0.000 N 
ATOM     30  C   UNL     1       4.112   3.670  17.091  0.00  0.00    +0.000 A 
ATOM     31  C   UNL     1       3.462   2.624  17.684  0.00  0.00    +0.000 A 
ATOM     32  C   UNL     1       2.668   3.163  18.735  0.00  0.00    +0.000 A 
ATOM     33  C   UNL     1       1.801   2.545  19.653  0.00  0.00    +0.000 A 
ATOM     34  C   UNL     1       1.125   3.339  20.570  0.00  0.00    +0.000 A 
ATOM     35  C   UNL     1       1.307   4.727  20.590  0.00  0.00    +0.000 A 
ATOM     36  C   UNL     1       2.175   5.420  19.704  0.00  0.00    +0.000 A 
ATOM     37  C   UNL     1       2.848   4.566  18.768  0.00  0.00    +0.000 A 
ENDBRANCH  27  36
ENDBRANCH  25  27
ENDBRANCH   1  25
TORSDOF 6
ENDMDL
