MODEL 1
REMARK VINA RESULT:      -7.8      0.000      0.000
REMARK  Name = 
REMARK  2 active torsions:
REMARK  status: ('A' for Active; 'I' for Inactive)
REMARK    1  A    between atoms: C_1  and  C_2
REMARK    2  A    between atoms: C_3  and  C_4
REMARK                            x       y       z     vdW  Elec       q    Type
REMARK                         _______ _______ _______ _____ _____    ______ ____
ROOT
ATOM      1  C   UNL     1       3.196   8.219  17.229  0.00  0.00    +0.000 C 
ATOM      2  C   UNL     1       3.178   7.194  18.380  0.00  0.00    +0.000 C 
ATOM      3  C   UNL     1       3.212   5.742  17.776  0.00  0.00    +0.000 C 
ATOM      4  C   UNL     1       2.497   4.691  18.619  0.00  0.00    +0.000 A 
ATOM      5  C   UNL     1       2.358   3.387  18.110  0.00  0.00    +0.000 A 
ATOM      6  C   UNL     1       1.671   2.411  18.834  0.00  0.00    +0.000 A 
ATOM      7  C   UNL     1       1.120   2.720  20.078  0.00  0.00    +0.000 A 
ATOM      8  C   UNL     1       1.238   4.011  20.595  0.00  0.00    +0.000 A 
ATOM      9  C   UNL     1       1.913   5.007  19.866  0.00  0.00    +0.000 A 
ATOM     10  C   UNL     1       2.026   6.420  20.357  0.00  0.00    +0.000 C 
ATOM     11  C   UNL     1       0.900   6.931  21.243  0.00  0.00    +0.000 C 
ATOM     12  C   UNL     1       1.242   8.407  21.246  0.00  0.00    +0.000 C 
ATOM     13  C   UNL     1       1.673   8.661  19.796  0.00  0.00    +0.000 C 
ATOM     14  N   UNL     1       1.972   7.336  19.216  0.00  0.00    +0.000 NA
ENDROOT
BRANCH   3  15
ATOM     15  C   UNL     1       4.647   5.313  17.515  0.00  0.00    +0.000 A 
ATOM     16  C   UNL     1       5.604   5.385  18.545  0.00  0.00    +0.000 A 
ATOM     17  C   UNL     1       6.924   4.986  18.318  0.00  0.00    +0.000 A 
ATOM     18  C   UNL     1       7.301   4.501  17.066  0.00  0.00    +0.000 A 
ATOM     19  C   UNL     1       6.360   4.415  16.036  0.00  0.00    +0.000 A 
ATOM     20  C   UNL     1       5.037   4.822  16.255  0.00  0.00    +0.000 A 
ENDBRANCH   3  15
TORSDOF 1
ENDMDL
MODEL 2
REMARK VINA RESULT:      -7.8      0.113      1.088
REMARK  Name = 
REMARK  2 active torsions:
REMARK  status: ('A' for Active; 'I' for Inactive)
REMARK    1  A    between atoms: C_1  and  C_2
REMARK    2  A    between atoms: C_3  and  C_4
REMARK                            x       y       z     vdW  Elec       q    Type
REMARK                         _______ _______ _______ _____ _____    ______ ____
ROOT
ATOM      1  C   UNL     1       3.288   8.149  17.180  0.00  0.00    +0.000 C 
ATOM      2  C   UNL     1       3.256   7.127  18.334  0.00  0.00    +0.000 C 
ATOM      3  C   UNL     1       3.295   5.674  17.734  0.00  0.00    +0.000 C 
ATOM      4  C   UNL     1       2.571   4.626  18.574  0.00  0.00    +0.000 A 
ATOM      5  C   UNL     1       2.436   3.320  18.067  0.00  0.00    +0.000 A 
ATOM      6  C   UNL     1       1.741   2.347  18.786  0.00  0.00    +0.000 A 
ATOM      7  C   UNL     1       1.176   2.661  20.023  0.00  0.00    +0.000 A 
ATOM      8  C   UNL     1       1.290   3.953  20.538  0.00  0.00    +0.000 A 
ATOM      9  C   UNL     1       1.974   4.946  19.813  0.00  0.00    +0.000 A 
ATOM     10  C   UNL     1       2.082   6.360  20.301  0.00  0.00    +0.000 C 
ATOM     11  C   UNL     1       0.948   6.876  21.173  0.00  0.00    +0.000 C 
ATOM     12  C   UNL     1       1.291   8.351  21.175  0.00  0.00    +0.000 C 
ATOM     13  C   UNL     1       1.738   8.600  19.730  0.00  0.00    +0.000 C 
ATOM     14  N   UNL     1       2.042   7.274  19.156  0.00  0.00    +0.000 NA
ENDROOT
BRANCH   3  15
ATOM     15  C   UNL     1       4.733   5.242  17.490  0.00  0.00    +0.000 A 
ATOM     16  C   UNL     1       5.137   4.828  16.207  0.00  0.00    +0.000 A 
ATOM     17  C   UNL     1       6.458   4.437  15.970  0.00  0.00    +0.000 A 
ATOM     18  C   UNL     1       7.391   4.464  17.007  0.00  0.00    +0.000 A 
ATOM     19  C   UNL     1       7.006   4.881  18.284  0.00  0.00    +0.000 A 
ATOM     20  C   UNL     1       5.681   5.267  18.530  0.00  0.00    +0.000 A 
ENDBRANCH   3  15
TORSDOF 1
ENDMDL
MODEL 3
REMARK VINA RESULT:      -7.1      1.758      5.517
REMARK  Name = 
REMARK  2 active torsions:
REMARK  status: ('A' for Active; 'I' for Inactive)
REMARK    1  A    between atoms: C_1  and  C_2
REMARK    2  A    between atoms: C_3  and  C_4
REMARK                            x       y       z     vdW  Elec       q    Type
REMARK                         _______ _______ _______ _____ _____    ______ ____
ROOT
ATOM      1  C   UNL     1       1.195   4.388  17.684  0.00  0.00    +0.000 C 
ATOM      2  C   UNL     1       2.440   4.784  18.501  0.00  0.00    +0.000 C 
ATOM      3  C   UNL     1       3.106   6.047  17.842  0.00  0.00    +0.000 C 
ATOM      4  C   UNL     1       4.619   6.127  18.020  0.00  0.00    +0.000 A 
ATOM      5  C   UNL     1       5.330   7.149  17.363  0.00  0.00    +0.000 A 
ATOM      6  C   UNL     1       6.720   7.227  17.465  0.00  0.00    +0.000 A 
ATOM      7  C   UNL     1       7.419   6.292  18.230  0.00  0.00    +0.000 A 
ATOM      8  C   UNL     1       6.732   5.265  18.881  0.00  0.00    +0.000 A 
ATOM      9  C   UNL     1       5.333   5.167  18.770  0.00  0.00    +0.000 A 
ATOM     10  C   UNL     1       4.556   4.056  19.410  0.00  0.00    +0.000 C 
ATOM     11  C   UNL     1       5.277   2.728  19.589  0.00  0.00    +0.000 C 
ATOM     12  C   UNL     1       4.094   1.856  19.959  0.00  0.00    +0.000 C 
ATOM     13  C   UNL     1       2.988   2.366  19.028  0.00  0.00    +0.000 C 
ATOM     14  N   UNL     1       3.429   3.692  18.549  0.00  0.00    +0.000 NA
ENDROOT
BRANCH   3  15
ATOM     15  C   UNL     1       2.453   7.319  18.361  0.00  0.00    +0.000 A 
ATOM     16  C   UNL     1       2.153   8.371  17.474  0.00  0.00    +0.000 A 
ATOM     17  C   UNL     1       1.546   9.540  17.939  0.00  0.00    +0.000 A 
ATOM     18  C   UNL     1       1.223   9.670  19.290  0.00  0.00    +0.000 A 
ATOM     19  C   UNL     1       1.507   8.631  20.180  0.00  0.00    +0.000 A 
ATOM     20  C   UNL     1       2.123   7.459  19.722  0.00  0.00    +0.000 A 
ENDBRANCH   3  15
TORSDOF 1
ENDMDL
MODEL 4
REMARK VINA RESULT:      -7.1      1.763      5.422
REMARK  Name = 
REMARK  2 active torsions:
REMARK  status: ('A' for Active; 'I' for Inactive)
REMARK    1  A    between atoms: C_1  and  C_2
REMARK    2  A    between atoms: C_3  and  C_4
REMARK                            x       y       z     vdW  Elec       q    Type
REMARK                         _______ _______ _______ _____ _____    ______ ____
ROOT
ATOM      1  C   UNL     1       1.202   4.403  17.623  0.00  0.00    +0.000 C 
ATOM      2  C   UNL     1       2.436   4.792  18.460  0.00  0.00    +0.000 C 
ATOM      3  C   UNL     1       3.118   6.054  17.815  0.00  0.00    +0.000 C 
ATOM      4  C   UNL     1       4.628   6.127  18.018  0.00  0.00    +0.000 A 
ATOM      5  C   UNL     1       5.354   7.147  17.375  0.00  0.00    +0.000 A 
ATOM      6  C   UNL     1       6.742   7.218  17.500  0.00  0.00    +0.000 A 
ATOM      7  C   UNL     1       7.424   6.279  18.275  0.00  0.00    +0.000 A 
ATOM      8  C   UNL     1       6.723   5.254  18.912  0.00  0.00    +0.000 A 
ATOM      9  C   UNL     1       5.325   5.163  18.777  0.00  0.00    +0.000 A 
ATOM     10  C   UNL     1       4.534   4.053  19.403  0.00  0.00    +0.000 C 
ATOM     11  C   UNL     1       5.245   2.721  19.590  0.00  0.00    +0.000 C 
ATOM     12  C   UNL     1       4.052   1.854  19.940  0.00  0.00    +0.000 C 
ATOM     13  C   UNL     1       2.965   2.371  18.991  0.00  0.00    +0.000 C 
ATOM     14  N   UNL     1       3.419   3.696  18.522  0.00  0.00    +0.000 NA
ENDROOT
BRANCH   3  15
ATOM     15  C   UNL     1       2.462   7.327  18.326  0.00  0.00    +0.000 A 
ATOM     16  C   UNL     1       2.131   7.454  19.689  0.00  0.00    +0.000 A 
ATOM     17  C   UNL     1       1.535   8.623  20.169  0.00  0.00    +0.000 A 
ATOM     18  C   UNL     1       1.271   9.681  19.299  0.00  0.00    +0.000 A 
ATOM     19  C   UNL     1       1.601   9.573  17.946  0.00  0.00    +0.000 A 
ATOM     20  C   UNL     1       2.192   8.400  17.455  0.00  0.00    +0.000 A 
ENDBRANCH   3  15
TORSDOF 1
ENDMDL
MODEL 5
REMARK VINA RESULT:      -6.8      1.253      4.639
REMARK  Name = 
REMARK  2 active torsions:
REMARK  status: ('A' for Active; 'I' for Inactive)
REMARK    1  A    between atoms: C_1  and  C_2
REMARK    2  A    between atoms: C_3  and  C_4
REMARK                            x       y       z     vdW  Elec       q    Type
REMARK                         _______ _______ _______ _____ _____    ______ ____
ROOT
ATOM      1  C   UNL     1       1.028   7.415  21.591  0.00  0.00    +0.000 C 
ATOM      2  C   UNL     1       1.447   7.148  20.133  0.00  0.00    +0.000 C 
ATOM      3  C   UNL     1       2.615   6.095  20.119  0.00  0.00    +0.000 C 
ATOM      4  C   UNL     1       3.591   6.252  18.958  0.00  0.00    +0.000 A 
ATOM      5  C   UNL     1       4.742   5.443  18.920  0.00  0.00    +0.000 A 
ATOM      6  C   UNL     1       5.681   5.590  17.898  0.00  0.00    +0.000 A 
ATOM      7  C   UNL     1       5.481   6.539  16.895  0.00  0.00    +0.000 A 
ATOM      8  C   UNL     1       4.351   7.358  16.921  0.00  0.00    +0.000 A 
ATOM      9  C   UNL     1       3.408   7.230  17.957  0.00  0.00    +0.000 A 
ATOM     10  C   UNL     1       2.203   8.118  18.054  0.00  0.00    +0.000 C 
ATOM     11  C   UNL     1       2.334   9.521  17.480  0.00  0.00    +0.000 C 
ATOM     12  C   UNL     1       1.068  10.134  18.043  0.00  0.00    +0.000 C 
ATOM     13  C   UNL     1       1.006   9.551  19.459  0.00  0.00    +0.000 C 
ATOM     14  N   UNL     1       1.904   8.379  19.464  0.00  0.00    +0.000 NA
ENDROOT
BRANCH   3  15
ATOM     15  C   UNL     1       2.052   4.682  20.138  0.00  0.00    +0.000 A 
ATOM     16  C   UNL     1       1.494   4.128  18.970  0.00  0.00    +0.000 A 
ATOM     17  C   UNL     1       0.981   2.829  18.975  0.00  0.00    +0.000 A 
ATOM     18  C   UNL     1       1.028   2.064  20.142  0.00  0.00    +0.000 A 
ATOM     19  C   UNL     1       1.586   2.597  21.306  0.00  0.00    +0.000 A 
ATOM     20  C   UNL     1       2.095   3.903  21.310  0.00  0.00    +0.000 A 
ENDBRANCH   3  15
TORSDOF 1
ENDMDL
MODEL 6
REMARK VINA RESULT:      -6.7      1.255      4.525
REMARK  Name = 
REMARK  2 active torsions:
REMARK  status: ('A' for Active; 'I' for Inactive)
REMARK    1  A    between atoms: C_1  and  C_2
REMARK    2  A    between atoms: C_3  and  C_4
REMARK                            x       y       z     vdW  Elec       q    Type
REMARK                         _______ _______ _______ _____ _____    ______ ____
ROOT
ATOM      1  C   UNL     1       1.034   7.405  21.590  0.00  0.00    +0.000 C 
ATOM      2  C   UNL     1       1.449   7.150  20.129  0.00  0.00    +0.000 C 
ATOM      3  C   UNL     1       2.618   6.099  20.102  0.00  0.00    +0.000 C 
ATOM      4  C   UNL     1       3.590   6.267  18.939  0.00  0.00    +0.000 A 
ATOM      5  C   UNL     1       4.743   5.461  18.891  0.00  0.00    +0.000 A 
ATOM      6  C   UNL     1       5.678   5.617  17.867  0.00  0.00    +0.000 A 
ATOM      7  C   UNL     1       5.473   6.574  16.872  0.00  0.00    +0.000 A 
ATOM      8  C   UNL     1       4.341   7.390  16.908  0.00  0.00    +0.000 A 
ATOM      9  C   UNL     1       3.402   7.253  17.946  0.00  0.00    +0.000 A 
ATOM     10  C   UNL     1       2.195   8.138  18.055  0.00  0.00    +0.000 C 
ATOM     11  C   UNL     1       2.322   9.545  17.491  0.00  0.00    +0.000 C 
ATOM     12  C   UNL     1       1.057  10.152  18.063  0.00  0.00    +0.000 C 
ATOM     13  C   UNL     1       1.000   9.557  19.475  0.00  0.00    +0.000 C 
ATOM     14  N   UNL     1       1.901   8.387  19.468  0.00  0.00    +0.000 NA
ENDROOT
BRANCH   3  15
ATOM     15  C   UNL     1       2.058   4.685  20.113  0.00  0.00    +0.000 A 
ATOM     16  C   UNL     1       2.089   3.922  21.296  0.00  0.00    +0.000 A 
ATOM     17  C   UNL     1       1.570   2.625  21.318  0.00  0.00    +0.000 A 
ATOM     18  C   UNL     1       1.006   2.079  20.165  0.00  0.00    +0.000 A 
ATOM     19  C   UNL     1       0.960   2.827  18.986  0.00  0.00    +0.000 A 
ATOM     20  C   UNL     1       1.486   4.126  18.955  0.00  0.00    +0.000 A 
ENDBRANCH   3  15
TORSDOF 1
ENDMDL
MODEL 7
REMARK VINA RESULT:      -6.6      1.499      4.869
REMARK  Name = 
REMARK  2 active torsions:
REMARK  status: ('A' for Active; 'I' for Inactive)
REMARK    1  A    between atoms: C_1  and  C_2
REMARK    2  A    between atoms: C_3  and  C_4
REMARK                            x       y       z     vdW  Elec       q    Type
REMARK                         _______ _______ _______ _____ _____    ______ ____
ROOT
ATOM      1  C   UNL     1       5.585   7.182  18.293  0.00  0.00    +0.000 C 
ATOM      2  C   UNL     1       4.366   6.332  17.888  0.00  0.00    +0.000 C 
ATOM      3  C   UNL     1       3.347   6.291  19.086  0.00  0.00    +0.000 C 
ATOM      4  C   UNL     1       2.523   5.011  19.169  0.00  0.00    +0.000 A 
ATOM      5  C   UNL     1       1.673   4.816  20.274  0.00  0.00    +0.000 A 
ATOM      6  C   UNL     1       0.938   3.638  20.407  0.00  0.00    +0.000 A 
ATOM      7  C   UNL     1       1.034   2.640  19.436  0.00  0.00    +0.000 A 
ATOM      8  C   UNL     1       1.879   2.809  18.339  0.00  0.00    +0.000 A 
ATOM      9  C   UNL     1       2.638   3.986  18.204  0.00  0.00    +0.000 A 
ATOM     10  C   UNL     1       3.596   4.194  17.068  0.00  0.00    +0.000 C 
ATOM     11  C   UNL     1       4.237   2.950  16.473  0.00  0.00    +0.000 C 
ATOM     12  C   UNL     1       5.304   3.609  15.622  0.00  0.00    +0.000 C 
ATOM     13  C   UNL     1       5.796   4.753  16.515  0.00  0.00    +0.000 C 
ATOM     14  N   UNL     1       4.755   4.953  17.543  0.00  0.00    +0.000 NA
ENDROOT
BRANCH   3  15
ATOM     15  C   UNL     1       2.427   7.500  19.037  0.00  0.00    +0.000 A 
ATOM     16  C   UNL     1       1.846   7.994  20.221  0.00  0.00    +0.000 A 
ATOM     17  C   UNL     1       1.005   9.109  20.188  0.00  0.00    +0.000 A 
ATOM     18  C   UNL     1       0.742   9.750  18.977  0.00  0.00    +0.000 A 
ATOM     19  C   UNL     1       1.318   9.277  17.796  0.00  0.00    +0.000 A 
ATOM     20  C   UNL     1       2.156   8.154  17.820  0.00  0.00    +0.000 A 
ENDBRANCH   3  15
TORSDOF 1
ENDMDL
MODEL 8
REMARK VINA RESULT:      -6.6      1.635      5.005
REMARK  Name = 
REMARK  2 active torsions:
REMARK  status: ('A' for Active; 'I' for Inactive)
REMARK    1  A    between atoms: C_1  and  C_2
REMARK    2  A    between atoms: C_3  and  C_4
REMARK                            x       y       z     vdW  Elec       q    Type
REMARK                         _______ _______ _______ _____ _____    ______ ____
ROOT
ATOM      1  C   UNL     1       6.149   7.318  17.886  0.00  0.00    +0.000 C 
ATOM      2  C   UNL     1       5.006   6.430  17.358  0.00  0.00    +0.000 C 
ATOM      3  C   UNL     1       4.000   6.135  18.530  0.00  0.00    +0.000 C 
ATOM      4  C   UNL     1       3.290   4.789  18.429  0.00  0.00    +0.000 A 
ATOM      5  C   UNL     1       2.466   4.370  19.489  0.00  0.00    +0.000 A 
ATOM      6  C   UNL     1       1.836   3.125  19.452  0.00  0.00    +0.000 A 
ATOM      7  C   UNL     1       2.014   2.284  18.353  0.00  0.00    +0.000 A 
ATOM      8  C   UNL     1       2.836   2.677  17.295  0.00  0.00    +0.000 A 
ATOM      9  C   UNL     1       3.489   3.922  17.332  0.00  0.00    +0.000 A 
ATOM     10  C   UNL     1       4.420   4.368  16.243  0.00  0.00    +0.000 C 
ATOM     11  C   UNL     1       5.164   3.279  15.485  0.00  0.00    +0.000 C 
ATOM     12  C   UNL     1       6.165   4.140  14.741  0.00  0.00    +0.000 C 
ATOM     13  C   UNL     1       6.561   5.187  15.789  0.00  0.00    +0.000 C 
ATOM     14  N   UNL     1       5.511   5.151  16.827  0.00  0.00    +0.000 NA
ENDROOT
BRANCH   3  15
ATOM     15  C   UNL     1       2.979   7.255  18.644  0.00  0.00    +0.000 A 
ATOM     16  C   UNL     1       2.307   7.478  19.861  0.00  0.00    +0.000 A 
ATOM     17  C   UNL     1       1.372   8.510  19.978  0.00  0.00    +0.000 A 
ATOM     18  C   UNL     1       1.103   9.336  18.886  0.00  0.00    +0.000 A 
ATOM     19  C   UNL     1       1.768   9.132  17.674  0.00  0.00    +0.000 A 
ATOM     20  C   UNL     1       2.701   8.094  17.548  0.00  0.00    +0.000 A 
ENDBRANCH   3  15
TORSDOF 1
ENDMDL
MODEL 9
REMARK VINA RESULT:      -6.6      1.500      4.974
REMARK  Name = 
REMARK  2 active torsions:
REMARK  status: ('A' for Active; 'I' for Inactive)
REMARK    1  A    between atoms: C_1  and  C_2
REMARK    2  A    between atoms: C_3  and  C_4
REMARK                            x       y       z     vdW  Elec       q    Type
REMARK                         _______ _______ _______ _____ _____    ______ ____
ROOT
ATOM      1  C   UNL     1       5.570   7.185  18.205  0.00  0.00    +0.000 C 
ATOM      2  C   UNL     1       4.335   6.341  17.834  0.00  0.00    +0.000 C 
ATOM      3  C   UNL     1       3.349   6.306  19.058  0.00  0.00    +0.000 C 
ATOM      4  C   UNL     1       2.520   5.031  19.165  0.00  0.00    +0.000 A 
ATOM      5  C   UNL     1       1.700   4.842  20.292  0.00  0.00    +0.000 A 
ATOM      6  C   UNL     1       0.962   3.668  20.446  0.00  0.00    +0.000 A 
ATOM      7  C   UNL     1       1.026   2.669  19.473  0.00  0.00    +0.000 A 
ATOM      8  C   UNL     1       1.841   2.833  18.353  0.00  0.00    +0.000 A 
ATOM      9  C   UNL     1       2.603   4.005  18.198  0.00  0.00    +0.000 A 
ATOM     10  C   UNL     1       3.530   4.208  17.036  0.00  0.00    +0.000 C 
ATOM     11  C   UNL     1       4.149   2.960  16.424  0.00  0.00    +0.000 C 
ATOM     12  C   UNL     1       5.195   3.612  15.544  0.00  0.00    +0.000 C 
ATOM     13  C   UNL     1       5.718   4.754  16.423  0.00  0.00    +0.000 C 
ATOM     14  N   UNL     1       4.706   4.960  17.479  0.00  0.00    +0.000 NA
ENDROOT
BRANCH   3  15
ATOM     15  C   UNL     1       2.435   7.521  19.034  0.00  0.00    +0.000 A 
ATOM     16  C   UNL     1       2.150   8.166  17.815  0.00  0.00    +0.000 A 
ATOM     17  C   UNL     1       1.305   9.279  17.781  0.00  0.00    +0.000 A 
ATOM     18  C   UNL     1       0.727   9.754  18.959  0.00  0.00    +0.000 A 
ATOM     19  C   UNL     1       0.994   9.119  20.175  0.00  0.00    +0.000 A 
ATOM     20  C   UNL     1       1.847   8.008  20.217  0.00  0.00    +0.000 A 
ENDBRANCH   3  15
TORSDOF 1
ENDMDL
