MODEL 1
REMARK VINA RESULT:      -8.0      0.000      0.000
REMARK  Name = 
REMARK  11 active torsions:
REMARK  status: ('A' for Active; 'I' for Inactive)
REMARK    1  A    between atoms: C_1  and  C_2
REMARK    2  A    between atoms: C_2  and  C_3
REMARK    3  A    between atoms: C_3  and  C_4
REMARK    4  A    between atoms: C_4  and  C_5
REMARK    5  A    between atoms: CA_7  and  C_8
REMARK    6  A    between atoms: C_8  and  O_9
REMARK    7  A    between atoms: N_12  and  C_13
REMARK    8  A    between atoms: C_13  and  C_14
REMARK    9  A    between atoms: C_17  and  N_18
REMARK   10  A    between atoms: C_22  and  C_23
REMARK   11  A    between atoms: C_23  and  O_25
REMARK                            x       y       z     vdW  Elec       q    Type
REMARK                         _______ _______ _______ _____ _____    ______ ____
ROOT
ATOM      1  C   UNL     1       2.787   7.416  18.357  0.00  0.00    +0.000 A 
ATOM      2  C   UNL     1       2.381   7.208  19.682  0.00  0.00    +0.000 A 
ATOM      3  C   UNL     1       1.488   8.089  20.298  0.00  0.00    +0.000 A 
ATOM      4  C   UNL     1       0.985   9.197  19.599  0.00  0.00    +0.000 A 
ATOM      5  C   UNL     1       1.363   9.387  18.266  0.00  0.00    +0.000 A 
ATOM      6  C   UNL     1       2.256   8.503  17.651  0.00  0.00    +0.000 A 
ENDROOT
BRANCH   4   7
ATOM      7  N   UNL     1       0.183  10.163  20.285  0.00  0.00    +0.000 N 
ATOM      8  C   UNL     1       0.383  10.504  21.615  0.00  0.00    +0.000 A 
ATOM      9  C   UNL     1      -0.386  11.595  21.933  0.00  0.00    +0.000 A 
ATOM     10  C   UNL     1      -1.146  11.902  20.791  0.00  0.00    +0.000 A 
ATOM     11  C   UNL     1      -0.821  10.995  19.784  0.00  0.00    +0.000 A 
BRANCH  11  12
ATOM     12  C   UNL     1      -1.474  10.845  18.504  0.00  0.00    +0.000 C 
ATOM     13  O   UNL     1      -2.217   9.937  18.171  0.00  0.00    +0.000 OA
BRANCH  12  14
ATOM     14  O   UNL     1      -1.168  11.861  17.655  0.00  0.00    +0.000 OA
ATOM     15  H   UNL     1      -1.114  11.579  16.724  0.00  0.00    +0.000 HD
ENDBRANCH  12  14
ENDBRANCH  11  12
ENDBRANCH   4   7
BRANCH   1  16
ATOM     16  C   UNL     1       3.844   6.546  17.742  0.00  0.00    +0.000 C 
BRANCH  16  22
ATOM     17  C   UNL     1       5.240   4.741  19.014  0.00  0.00    +0.000 A 
ATOM     18  N   UNL     1       5.025   3.485  19.385  0.00  0.00    +0.000 NA
ATOM     19  CA  UNL     1       3.789   3.128  18.900  0.00  0.00    +0.000 A 
ATOM     20  C   UNL     1       3.240   4.196  18.250  0.00  0.00    +0.000 A 
ATOM     21 CL   UNL     1       1.740   4.345  17.455  0.00  0.00    +0.000 Cl
ATOM     22  N   UNL     1       4.144   5.237  18.323  0.00  0.00    +0.000 N 
BRANCH  17  23
ATOM     23  C   UNL     1       6.512   5.471  19.333  0.00  0.00    +0.000 C 
BRANCH  23  24
ATOM     24  C   UNL     1       7.360   5.777  18.088  0.00  0.00    +0.000 C 
BRANCH  24  26
ATOM     25  C   UNL     1       6.948   4.780  15.804  0.00  0.00    +0.000 C 
ATOM     26  C   UNL     1       7.547   4.554  17.183  0.00  0.00    +0.000 C 
ENDBRANCH  24  26
ENDBRANCH  23  24
ENDBRANCH  17  23
BRANCH  19  27
ATOM     27  C   UNL     1       3.256   1.756  19.103  0.00  0.00    +0.000 C 
BRANCH  27  28
ATOM     28  O   UNL     1       3.979   0.786  18.346  0.00  0.00    +0.000 OA
ATOM     29  H   UNL     1       3.674   0.921  17.425  0.00  0.00    +0.000 HD
ENDBRANCH  27  28
ENDBRANCH  19  27
ENDBRANCH  16  22
ENDBRANCH   1  16
TORSDOF 10
ENDMDL
MODEL 2
REMARK VINA RESULT:      -8.0      2.488      3.909
REMARK  Name = 
REMARK  11 active torsions:
REMARK  status: ('A' for Active; 'I' for Inactive)
REMARK    1  A    between atoms: C_1  and  C_2
REMARK    2  A    between atoms: C_2  and  C_3
REMARK    3  A    between atoms: C_3  and  C_4
REMARK    4  A    between atoms: C_4  and  C_5
REMARK    5  A    between atoms: CA_7  and  C_8
REMARK    6  A    between atoms: C_8  and  O_9
REMARK    7  A    between atoms: N_12  and  C_13
REMARK    8  A    between atoms: C_13  and  C_14
REMARK    9  A    between atoms: C_17  and  N_18
REMARK   10  A    between atoms: C_22  and  C_23
REMARK   11  A    between atoms: C_23  and  O_25
REMARK                            x       y       z     vdW  Elec       q    Type
REMARK                         _______ _______ _______ _____ _____    ______ ____
ROOT
ATOM      1  C   UNL     1       2.530   7.349  19.184  0.00  0.00    +0.000 A 
ATOM      2  C   UNL     1       1.801   7.882  20.256  0.00  0.00    +0.000 A 
ATOM      3  C   UNL     1       0.981   8.998  20.070  0.00  0.00    +0.000 A 
ATOM      4  C   UNL     1       0.877   9.604  18.809  0.00  0.00    +0.000 A 
ATOM      5  C   UNL     1       1.578   9.053  17.731  0.00  0.00    +0.000 A 
ATOM      6  C   UNL     1       2.397   7.935  17.918  0.00  0.00    +0.000 A 
ENDROOT
BRANCH   4   7
ATOM      7  N   UNL     1       0.145  10.825  18.668  0.00  0.00    +0.000 N 
ATOM      8  C   UNL     1      -1.234  10.867  18.519  0.00  0.00    +0.000 A 
ATOM      9  C   UNL     1      -1.671  12.164  18.621  0.00  0.00    +0.000 A 
ATOM     10  C   UNL     1      -0.527  12.967  18.766  0.00  0.00    +0.000 A 
ATOM     11  C   UNL     1       0.598  12.143  18.758  0.00  0.00    +0.000 A 
BRANCH  11  12
ATOM     12  C   UNL     1       1.980  12.560  18.721  0.00  0.00    +0.000 C 
ATOM     13  O   UNL     1       2.618  13.040  19.644  0.00  0.00    +0.000 OA
BRANCH  12  14
ATOM     14  O   UNL     1       2.539  12.361  17.499  0.00  0.00    +0.000 OA
ATOM     15  H   UNL     1       3.505  12.489  17.494  0.00  0.00    +0.000 HD
ENDBRANCH  12  14
ENDBRANCH  11  12
ENDBRANCH   4   7
BRANCH   1  16
ATOM     16  C   UNL     1       3.508   6.233  19.412  0.00  0.00    +0.000 C 
BRANCH  16  22
ATOM     17  C   UNL     1       3.112   4.440  17.555  0.00  0.00    +0.000 A 
ATOM     18  N   UNL     1       3.874   3.868  16.631  0.00  0.00    +0.000 NA
ATOM     19  CA  UNL     1       5.149   4.352  16.806  0.00  0.00    +0.000 A 
ATOM     20  C   UNL     1       5.148   5.250  17.834  0.00  0.00    +0.000 A 
ATOM     21 CL   UNL     1       6.427   6.161  18.498  0.00  0.00    +0.000 Cl
ATOM     22  N   UNL     1       3.856   5.330  18.316  0.00  0.00    +0.000 N 
BRANCH  17  23
ATOM     23  C   UNL     1       1.650   4.130  17.701  0.00  0.00    +0.000 C 
BRANCH  23  24
ATOM     24  C   UNL     1       1.361   3.089  18.794  0.00  0.00    +0.000 C 
BRANCH  24  26
ATOM     25  C   UNL     1       1.391   2.907  21.313  0.00  0.00    +0.000 C 
ATOM     26  C   UNL     1       0.930   3.727  20.120  0.00  0.00    +0.000 C 
ENDBRANCH  24  26
ENDBRANCH  23  24
ENDBRANCH  17  23
BRANCH  19  27
ATOM     27  C   UNL     1       6.270   3.876  15.955  0.00  0.00    +0.000 C 
BRANCH  27  28
ATOM     28  O   UNL     1       7.233   4.902  15.719  0.00  0.00    +0.000 OA
ATOM     29  H   UNL     1       7.160   5.088  14.761  0.00  0.00    +0.000 HD
ENDBRANCH  27  28
ENDBRANCH  19  27
ENDBRANCH  16  22
ENDBRANCH   1  16
TORSDOF 10
ENDMDL
MODEL 3
REMARK VINA RESULT:      -7.9      2.332      3.815
REMARK  Name = 
REMARK  11 active torsions:
REMARK  status: ('A' for Active; 'I' for Inactive)
REMARK    1  A    between atoms: C_1  and  C_2
REMARK    2  A    between atoms: C_2  and  C_3
REMARK    3  A    between atoms: C_3  and  C_4
REMARK    4  A    between atoms: C_4  and  C_5
REMARK    5  A    between atoms: CA_7  and  C_8
REMARK    6  A    between atoms: C_8  and  O_9
REMARK    7  A    between atoms: N_12  and  C_13
REMARK    8  A    between atoms: C_13  and  C_14
REMARK    9  A    between atoms: C_17  and  N_18
REMARK   10  A    between atoms: C_22  and  C_23
REMARK   11  A    between atoms: C_23  and  O_25
REMARK                            x       y       z     vdW  Elec       q    Type
REMARK                         _______ _______ _______ _____ _____    ______ ____
ROOT
ATOM      1  C   UNL     1       2.193   7.087  18.678  0.00  0.00    +0.000 A 
ATOM      2  C   UNL     1       1.897   8.247  17.950  0.00  0.00    +0.000 A 
ATOM      3  C   UNL     1       1.389   9.379  18.593  0.00  0.00    +0.000 A 
ATOM      4  C   UNL     1       1.165   9.370  19.978  0.00  0.00    +0.000 A 
ATOM      5  C   UNL     1       1.491   8.225  20.712  0.00  0.00    +0.000 A 
ATOM      6  C   UNL     1       2.002   7.093  20.066  0.00  0.00    +0.000 A 
ENDROOT
BRANCH   4   7
ATOM      7  N   UNL     1       0.516  10.484  20.598  0.00  0.00    +0.000 N 
ATOM      8  C   UNL     1       0.334  11.704  19.961  0.00  0.00    +0.000 A 
ATOM      9  C   UNL     1      -0.496  12.498  20.711  0.00  0.00    +0.000 A 
ATOM     10  C   UNL     1      -0.785  11.785  21.888  0.00  0.00    +0.000 A 
ATOM     11  C   UNL     1      -0.130  10.556  21.834  0.00  0.00    +0.000 A 
BRANCH  11  12
ATOM     12  C   UNL     1      -0.022   9.581  22.895  0.00  0.00    +0.000 C 
ATOM     13  O   UNL     1       0.807   9.571  23.789  0.00  0.00    +0.000 OA
BRANCH  12  14
ATOM     14  O   UNL     1      -0.978   8.620  22.802  0.00  0.00    +0.000 OA
ATOM     15  H   UNL     1      -1.208   8.224  23.661  0.00  0.00    +0.000 HD
ENDBRANCH  12  14
ENDBRANCH  11  12
ENDBRANCH   4   7
BRANCH   1  16
ATOM     16  C   UNL     1       2.615   5.833  17.969  0.00  0.00    +0.000 C 
BRANCH  16  22
ATOM     17  C   UNL     1       4.449   4.303  19.026  0.00  0.00    +0.000 A 
ATOM     18  N   UNL     1       5.748   4.126  18.823  0.00  0.00    +0.000 NA
ATOM     19  CA  UNL     1       6.132   5.032  17.863  0.00  0.00    +0.000 A 
ATOM     20  C   UNL     1       5.040   5.746  17.462  0.00  0.00    +0.000 A 
ATOM     21 CL   UNL     1       4.907   6.994  16.308  0.00  0.00    +0.000 Cl
ATOM     22  N   UNL     1       3.956   5.287  18.182  0.00  0.00    +0.000 N 
BRANCH  17  23
ATOM     23  C   UNL     1       3.675   3.511  20.040  0.00  0.00    +0.000 C 
BRANCH  23  24
ATOM     24  C   UNL     1       2.865   2.364  19.417  0.00  0.00    +0.000 C 
BRANCH  24  26
ATOM     25  C   UNL     1       1.033   3.636  20.604  0.00  0.00    +0.000 C 
ATOM     26  C   UNL     1       1.353   2.536  19.606  0.00  0.00    +0.000 C 
ENDBRANCH  24  26
ENDBRANCH  23  24
ENDBRANCH  17  23
BRANCH  19  27
ATOM     27  C   UNL     1       7.551   5.131  17.429  0.00  0.00    +0.000 C 
BRANCH  27  28
ATOM     28  O   UNL     1       8.289   3.953  17.750  0.00  0.00    +0.000 OA
ATOM     29  H   UNL     1       8.786   4.191  18.559  0.00  0.00    +0.000 HD
ENDBRANCH  27  28
ENDBRANCH  19  27
ENDBRANCH  16  22
ENDBRANCH   1  16
TORSDOF 10
ENDMDL
MODEL 4
REMARK VINA RESULT:      -7.9      1.864      3.303
REMARK  Name = 
REMARK  11 active torsions:
REMARK  status: ('A' for Active; 'I' for Inactive)
REMARK    1  A    between atoms: C_1  and  C_2
REMARK    2  A    between atoms: C_2  and  C_3
REMARK    3  A    between atoms: C_3  and  C_4
REMARK    4  A    between atoms: C_4  and  C_5
REMARK    5  A    between atoms: CA_7  and  C_8
REMARK    6  A    between atoms: C_8  and  O_9
REMARK    7  A    between atoms: N_12  and  C_13
REMARK    8  A    between atoms: C_13  and  C_14
REMARK    9  A    between atoms: C_17  and  N_18
REMARK   10  A    between atoms: C_22  and  C_23
REMARK   11  A    between atoms: C_23  and  O_25
REMARK                            x       y       z     vdW  Elec       q    Type
REMARK                         _______ _______ _______ _____ _____    ______ ____
ROOT
ATOM      1  C   UNL     1       2.323   7.130  18.461  0.00  0.00    +0.000 A 
ATOM      2  C   UNL     1       2.123   8.204  17.584  0.00  0.00    +0.000 A 
ATOM      3  C   UNL     1       1.590   9.410  18.048  0.00  0.00    +0.000 A 
ATOM      4  C   UNL     1       1.245   9.563  19.399  0.00  0.00    +0.000 A 
ATOM      5  C   UNL     1       1.475   8.504  20.283  0.00  0.00    +0.000 A 
ATOM      6  C   UNL     1       2.010   7.298  19.817  0.00  0.00    +0.000 A 
ENDROOT
BRANCH   4   7
ATOM      7  N   UNL     1       0.574  10.751  19.828  0.00  0.00    +0.000 N 
ATOM      8  C   UNL     1       0.978  11.492  20.930  0.00  0.00    +0.000 A 
ATOM      9  C   UNL     1       0.286  12.676  20.969  0.00  0.00    +0.000 A 
ATOM     10  C   UNL     1      -0.631  12.646  19.905  0.00  0.00    +0.000 A 
ATOM     11  C   UNL     1      -0.479  11.440  19.221  0.00  0.00    +0.000 A 
BRANCH  11  12
ATOM     12  C   UNL     1      -1.321  10.927  18.166  0.00  0.00    +0.000 C 
ATOM     13  O   UNL     1      -1.882   9.843  18.147  0.00  0.00    +0.000 OA
BRANCH  12  14
ATOM     14  O   UNL     1      -1.437  11.804  17.135  0.00  0.00    +0.000 OA
ATOM     15  H   UNL     1      -1.539  11.369  16.270  0.00  0.00    +0.000 HD
ENDBRANCH  12  14
ENDBRANCH  11  12
ENDBRANCH   4   7
BRANCH   1  16
ATOM     16  C   UNL     1       2.771   5.796  17.938  0.00  0.00    +0.000 C 
BRANCH  16  22
ATOM     17  C   UNL     1       4.348   4.144  19.206  0.00  0.00    +0.000 A 
ATOM     18  N   UNL     1       5.662   3.985  19.288  0.00  0.00    +0.000 NA
ATOM     19  CA  UNL     1       6.236   4.994  18.552  0.00  0.00    +0.000 A 
ATOM     20  C   UNL     1       5.250   5.757  17.996  0.00  0.00    +0.000 A 
ATOM     21 CL   UNL     1       5.356   7.131  16.994  0.00  0.00    +0.000 Cl
ATOM     22  N   UNL     1       4.039   5.222  18.390  0.00  0.00    +0.000 N 
BRANCH  17  23
ATOM     23  C   UNL     1       3.380   3.243  19.917  0.00  0.00    +0.000 C 
BRANCH  23  24
ATOM     24  C   UNL     1       2.515   3.982  20.950  0.00  0.00    +0.000 C 
BRANCH  24  26
ATOM     25  C   UNL     1       0.742   2.977  19.457  0.00  0.00    +0.000 C 
ATOM     26  C   UNL     1       1.015   3.879  20.649  0.00  0.00    +0.000 C 
ENDBRANCH  24  26
ENDBRANCH  23  24
ENDBRANCH  17  23
BRANCH  19  27
ATOM     27  C   UNL     1       7.714   5.136  18.470  0.00  0.00    +0.000 C 
BRANCH  27  28
ATOM     28  O   UNL     1       8.308   4.082  17.715  0.00  0.00    +0.000 OA
ATOM     29  H   UNL     1       8.541   3.405  18.384  0.00  0.00    +0.000 HD
ENDBRANCH  27  28
ENDBRANCH  19  27
ENDBRANCH  16  22
ENDBRANCH   1  16
TORSDOF 10
ENDMDL
MODEL 5
REMARK VINA RESULT:      -7.9      2.342      3.944
REMARK  Name = 
REMARK  11 active torsions:
REMARK  status: ('A' for Active; 'I' for Inactive)
REMARK    1  A    between atoms: C_1  and  C_2
REMARK    2  A    between atoms: C_2  and  C_3
REMARK    3  A    between atoms: C_3  and  C_4
REMARK    4  A    between atoms: C_4  and  C_5
REMARK    5  A    between atoms: CA_7  and  C_8
REMARK    6  A    between atoms: C_8  and  O_9
REMARK    7  A    between atoms: N_12  and  C_13
REMARK    8  A    between atoms: C_13  and  C_14
REMARK    9  A    between atoms: C_17  and  N_18
REMARK   10  A    between atoms: C_22  and  C_23
REMARK   11  A    between atoms: C_23  and  O_25
REMARK                            x       y       z     vdW  Elec       q    Type
REMARK                         _______ _______ _______ _____ _____    ______ ____
ROOT
ATOM      1  C   UNL     1       2.554   7.238  19.395  0.00  0.00    +0.000 A 
ATOM      2  C   UNL     1       2.586   7.855  18.137  0.00  0.00    +0.000 A 
ATOM      3  C   UNL     1       1.842   9.013  17.895  0.00  0.00    +0.000 A 
ATOM      4  C   UNL     1       1.051   9.575  18.908  0.00  0.00    +0.000 A 
ATOM      5  C   UNL     1       1.044   8.980  20.174  0.00  0.00    +0.000 A 
ATOM      6  C   UNL     1       1.790   7.821  20.414  0.00  0.00    +0.000 A 
ENDROOT
BRANCH   4   7
ATOM      7  N   UNL     1       0.190  10.677  18.605  0.00  0.00    +0.000 N 
ATOM      8  C   UNL     1      -1.156  10.526  18.304  0.00  0.00    +0.000 A 
ATOM      9  C   UNL     1      -1.763  11.755  18.269  0.00  0.00    +0.000 A 
ATOM     10  C   UNL     1      -0.755  12.712  18.481  0.00  0.00    +0.000 A 
ATOM     11  C   UNL     1       0.458  12.047  18.652  0.00  0.00    +0.000 A 
BRANCH  11  12
ATOM     12  C   UNL     1       1.771  12.643  18.737  0.00  0.00    +0.000 C 
ATOM     13  O   UNL     1       2.281  13.137  19.729  0.00  0.00    +0.000 OA
BRANCH  12  14
ATOM     14  O   UNL     1       2.424  12.607  17.546  0.00  0.00    +0.000 OA
ATOM     15  H   UNL     1       2.569  13.489  17.161  0.00  0.00    +0.000 HD
ENDBRANCH  12  14
ENDBRANCH  11  12
ENDBRANCH   4   7
BRANCH   1  16
ATOM     16  C   UNL     1       3.248   5.925  19.614  0.00  0.00    +0.000 C 
BRANCH  16  22
ATOM     17  C   UNL     1       3.060   4.232  17.634  0.00  0.00    +0.000 A 
ATOM     18  N   UNL     1       3.889   3.802  16.692  0.00  0.00    +0.000 NA
ATOM     19  CA  UNL     1       5.107   4.396  16.925  0.00  0.00    +0.000 A 
ATOM     20  C   UNL     1       5.001   5.218  18.010  0.00  0.00    +0.000 A 
ATOM     21 CL   UNL     1       6.172   6.204  18.760  0.00  0.00    +0.000 Cl
ATOM     22  N   UNL     1       3.701   5.137  18.468  0.00  0.00    +0.000 N 
BRANCH  17  23
ATOM     23  C   UNL     1       1.635   3.769  17.728  0.00  0.00    +0.000 C 
BRANCH  23  24
ATOM     24  C   UNL     1       1.414   2.718  18.827  0.00  0.00    +0.000 C 
BRANCH  24  26
ATOM     25  C   UNL     1       1.408   2.776  21.353  0.00  0.00    +0.000 C 
ATOM     26  C   UNL     1       0.759   3.304  20.084  0.00  0.00    +0.000 C 
ENDBRANCH  24  26
ENDBRANCH  23  24
ENDBRANCH  17  23
BRANCH  19  27
ATOM     27  C   UNL     1       6.283   4.092  16.068  0.00  0.00    +0.000 C 
BRANCH  27  28
ATOM     28  O   UNL     1       6.095   2.898  15.310  0.00  0.00    +0.000 OA
ATOM     29  H   UNL     1       5.688   2.271  15.943  0.00  0.00    +0.000 HD
ENDBRANCH  27  28
ENDBRANCH  19  27
ENDBRANCH  16  22
ENDBRANCH   1  16
TORSDOF 10
ENDMDL
MODEL 6
REMARK VINA RESULT:      -7.8      2.095      3.541
REMARK  Name = 
REMARK  11 active torsions:
REMARK  status: ('A' for Active; 'I' for Inactive)
REMARK    1  A    between atoms: C_1  and  C_2
REMARK    2  A    between atoms: C_2  and  C_3
REMARK    3  A    between atoms: C_3  and  C_4
REMARK    4  A    between atoms: C_4  and  C_5
REMARK    5  A    between atoms: CA_7  and  C_8
REMARK    6  A    between atoms: C_8  and  O_9
REMARK    7  A    between atoms: N_12  and  C_13
REMARK    8  A    between atoms: C_13  and  C_14
REMARK    9  A    between atoms: C_17  and  N_18
REMARK   10  A    between atoms: C_22  and  C_23
REMARK   11  A    between atoms: C_23  and  O_25
REMARK                            x       y       z     vdW  Elec       q    Type
REMARK                         _______ _______ _______ _____ _____    ______ ____
ROOT
ATOM      1  C   UNL     1       2.616   7.206  19.251  0.00  0.00    +0.000 A 
ATOM      2  C   UNL     1       1.838   7.687  20.313  0.00  0.00    +0.000 A 
ATOM      3  C   UNL     1       1.098   8.865  20.175  0.00  0.00    +0.000 A 
ATOM      4  C   UNL     1       1.125   9.585  18.972  0.00  0.00    +0.000 A 
ATOM      5  C   UNL     1       1.874   9.089  17.900  0.00  0.00    +0.000 A 
ATOM      6  C   UNL     1       2.613   7.909  18.039  0.00  0.00    +0.000 A 
ENDROOT
BRANCH   4   7
ATOM      7  N   UNL     1       0.476  10.858  18.894  0.00  0.00    +0.000 N 
ATOM      8  C   UNL     1       1.030  12.022  19.407  0.00  0.00    +0.000 A 
ATOM      9  C   UNL     1       0.290  13.104  19.001  0.00  0.00    +0.000 A 
ATOM     10  C   UNL     1      -0.802  12.598  18.273  0.00  0.00    +0.000 A 
ATOM     11  C   UNL     1      -0.706  11.208  18.239  0.00  0.00    +0.000 A 
BRANCH  11  12
ATOM     12  C   UNL     1      -1.694  10.282  17.737  0.00  0.00    +0.000 C 
ATOM     13  O   UNL     1      -2.381   9.522  18.401  0.00  0.00    +0.000 OA
BRANCH  12  14
ATOM     14  O   UNL     1      -1.796  10.329  16.383  0.00  0.00    +0.000 OA
ATOM     15  H   UNL     1      -1.003  10.694  15.951  0.00  0.00    +0.000 HD
ENDBRANCH  12  14
ENDBRANCH  11  12
ENDBRANCH   4   7
BRANCH   1  16
ATOM     16  C   UNL     1       3.509   6.015  19.444  0.00  0.00    +0.000 C 
BRANCH  16  22
ATOM     17  C   UNL     1       3.368   4.368  17.421  0.00  0.00    +0.000 A 
ATOM     18  N   UNL     1       4.213   3.976  16.476  0.00  0.00    +0.000 NA
ATOM     19  CA  UNL     1       5.418   4.585  16.735  0.00  0.00    +0.000 A 
ATOM     20  C   UNL     1       5.288   5.378  17.839  0.00  0.00    +0.000 A 
ATOM     21 CL   UNL     1       6.435   6.366  18.623  0.00  0.00    +0.000 Cl
ATOM     22  N   UNL     1       3.986   5.263  18.282  0.00  0.00    +0.000 N 
BRANCH  17  23
ATOM     23  C   UNL     1       1.951   3.878  17.491  0.00  0.00    +0.000 C 
BRANCH  23  24
ATOM     24  C   UNL     1       1.811   2.544  18.240  0.00  0.00    +0.000 C 
BRANCH  24  26
ATOM     25  C   UNL     1       0.875   3.813  20.213  0.00  0.00    +0.000 C 
ATOM     26  C   UNL     1       0.732   2.586  19.328  0.00  0.00    +0.000 C 
ENDBRANCH  24  26
ENDBRANCH  23  24
ENDBRANCH  17  23
BRANCH  19  27
ATOM     27  C   UNL     1       6.606   4.323  15.881  0.00  0.00    +0.000 C 
BRANCH  27  28
ATOM     28  O   UNL     1       7.772   4.059  16.659  0.00  0.00    +0.000 OA
ATOM     29  H   UNL     1       8.053   3.164  16.380  0.00  0.00    +0.000 HD
ENDBRANCH  27  28
ENDBRANCH  19  27
ENDBRANCH  16  22
ENDBRANCH   1  16
TORSDOF 10
ENDMDL
MODEL 7
REMARK VINA RESULT:      -7.7      2.059      3.526
REMARK  Name = 
REMARK  11 active torsions:
REMARK  status: ('A' for Active; 'I' for Inactive)
REMARK    1  A    between atoms: C_1  and  C_2
REMARK    2  A    between atoms: C_2  and  C_3
REMARK    3  A    between atoms: C_3  and  C_4
REMARK    4  A    between atoms: C_4  and  C_5
REMARK    5  A    between atoms: CA_7  and  C_8
REMARK    6  A    between atoms: C_8  and  O_9
REMARK    7  A    between atoms: N_12  and  C_13
REMARK    8  A    between atoms: C_13  and  C_14
REMARK    9  A    between atoms: C_17  and  N_18
REMARK   10  A    between atoms: C_22  and  C_23
REMARK   11  A    between atoms: C_23  and  O_25
REMARK                            x       y       z     vdW  Elec       q    Type
REMARK                         _______ _______ _______ _____ _____    ______ ____
ROOT
ATOM      1  C   UNL     1       2.275   6.943  18.659  0.00  0.00    +0.000 A 
ATOM      2  C   UNL     1       1.955   8.106  17.945  0.00  0.00    +0.000 A 
ATOM      3  C   UNL     1       1.417   9.216  18.603  0.00  0.00    +0.000 A 
ATOM      4  C   UNL     1       1.188   9.182  19.986  0.00  0.00    +0.000 A 
ATOM      5  C   UNL     1       1.538   8.035  20.705  0.00  0.00    +0.000 A 
ATOM      6  C   UNL     1       2.078   6.925  20.046  0.00  0.00    +0.000 A 
ENDROOT
BRANCH   4   7
ATOM      7  N   UNL     1       0.510  10.272  20.618  0.00  0.00    +0.000 N 
ATOM      8  C   UNL     1      -0.300  10.114  21.733  0.00  0.00    +0.000 A 
ATOM      9  C   UNL     1      -0.637  11.345  22.238  0.00  0.00    +0.000 A 
ATOM     10  C   UNL     1      -0.083  12.304  21.372  0.00  0.00    +0.000 A 
ATOM     11  C   UNL     1       0.595  11.640  20.351  0.00  0.00    +0.000 A 
BRANCH  11  12
ATOM     12  C   UNL     1       1.173  12.230  19.166  0.00  0.00    +0.000 C 
ATOM     13  O   UNL     1       2.335  12.573  19.018  0.00  0.00    +0.000 OA
BRANCH  12  14
ATOM     14  O   UNL     1       0.257  12.380  18.173  0.00  0.00    +0.000 OA
ATOM     15  H   UNL     1      -0.503  11.778  18.259  0.00  0.00    +0.000 HD
ENDBRANCH  12  14
ENDBRANCH  11  12
ENDBRANCH   4   7
BRANCH   1  16
ATOM     16  C   UNL     1       2.729   5.709  17.934  0.00  0.00    +0.000 C 
BRANCH  16  22
ATOM     17  C   UNL     1       4.290   3.903  18.994  0.00  0.00    +0.000 A 
ATOM     18  N   UNL     1       5.602   3.712  19.038  0.00  0.00    +0.000 NA
ATOM     19  CA  UNL     1       6.186   4.783  18.403  0.00  0.00    +0.000 A 
ATOM     20  C   UNL     1       5.207   5.618  17.946  0.00  0.00    +0.000 A 
ATOM     21 CL   UNL     1       5.326   7.089  17.093  0.00  0.00    +0.000 Cl
ATOM     22  N   UNL     1       3.991   5.067  18.302  0.00  0.00    +0.000 N 
BRANCH  17  23
ATOM     23  C   UNL     1       3.315   2.949  19.622  0.00  0.00    +0.000 C 
BRANCH  23  24
ATOM     24  C   UNL     1       2.860   3.388  21.023  0.00  0.00    +0.000 C 
BRANCH  24  26
ATOM     25  C   UNL     1       0.641   3.267  19.822  0.00  0.00    +0.000 C 
ATOM     26  C   UNL     1       1.333   3.428  21.165  0.00  0.00    +0.000 C 
ENDBRANCH  24  26
ENDBRANCH  23  24
ENDBRANCH  17  23
BRANCH  19  27
ATOM     27  C   UNL     1       7.664   4.905  18.312  0.00  0.00    +0.000 C 
BRANCH  27  28
ATOM     28  O   UNL     1       8.195   4.146  17.227  0.00  0.00    +0.000 OA
ATOM     29  H   UNL     1       8.420   3.280  17.624  0.00  0.00    +0.000 HD
ENDBRANCH  27  28
ENDBRANCH  19  27
ENDBRANCH  16  22
ENDBRANCH   1  16
TORSDOF 10
ENDMDL
MODEL 8
REMARK VINA RESULT:      -7.7      1.784      2.382
REMARK  Name = 
REMARK  11 active torsions:
REMARK  status: ('A' for Active; 'I' for Inactive)
REMARK    1  A    between atoms: C_1  and  C_2
REMARK    2  A    between atoms: C_2  and  C_3
REMARK    3  A    between atoms: C_3  and  C_4
REMARK    4  A    between atoms: C_4  and  C_5
REMARK    5  A    between atoms: CA_7  and  C_8
REMARK    6  A    between atoms: C_8  and  O_9
REMARK    7  A    between atoms: N_12  and  C_13
REMARK    8  A    between atoms: C_13  and  C_14
REMARK    9  A    between atoms: C_17  and  N_18
REMARK   10  A    between atoms: C_22  and  C_23
REMARK   11  A    between atoms: C_23  and  O_25
REMARK                            x       y       z     vdW  Elec       q    Type
REMARK                         _______ _______ _______ _____ _____    ______ ____
ROOT
ATOM      1  C   UNL     1       2.515   7.398  18.410  0.00  0.00    +0.000 A 
ATOM      2  C   UNL     1       2.169   8.575  17.733  0.00  0.00    +0.000 A 
ATOM      3  C   UNL     1       1.488   9.601  18.394  0.00  0.00    +0.000 A 
ATOM      4  C   UNL     1       1.138   9.467  19.746  0.00  0.00    +0.000 A 
ATOM      5  C   UNL     1       1.512   8.307  20.433  0.00  0.00    +0.000 A 
ATOM      6  C   UNL     1       2.196   7.282  19.769  0.00  0.00    +0.000 A 
ENDROOT
BRANCH   4   7
ATOM      7  N   UNL     1       0.322  10.463  20.369  0.00  0.00    +0.000 N 
ATOM      8  C   UNL     1      -0.097  11.614  19.716  0.00  0.00    +0.000 A 
ATOM      9  C   UNL     1      -1.029  12.267  20.482  0.00  0.00    +0.000 A 
ATOM     10  C   UNL     1      -1.146  11.544  21.682  0.00  0.00    +0.000 A 
ATOM     11  C   UNL     1      -0.284  10.450  21.627  0.00  0.00    +0.000 A 
BRANCH  11  12
ATOM     12  C   UNL     1       0.033   9.538  22.701  0.00  0.00    +0.000 C 
ATOM     13  O   UNL     1       0.977   9.621  23.469  0.00  0.00    +0.000 OA
BRANCH  12  14
ATOM     14  O   UNL     1      -0.862   8.520  22.785  0.00  0.00    +0.000 OA
ATOM     15  H   UNL     1      -1.784   8.824  22.856  0.00  0.00    +0.000 HD
ENDBRANCH  12  14
ENDBRANCH  11  12
ENDBRANCH   4   7
BRANCH   1  16
ATOM     16  C   UNL     1       3.129   6.248  17.667  0.00  0.00    +0.000 C 
BRANCH  16  22
ATOM     17  C   UNL     1       5.274   5.140  18.666  0.00  0.00    +0.000 A 
ATOM     18  N   UNL     1       5.511   4.062  19.402  0.00  0.00    +0.000 NA
ATOM     19  CA  UNL     1       4.307   3.424  19.582  0.00  0.00    +0.000 A 
ATOM     20  C   UNL     1       3.324   4.145  18.966  0.00  0.00    +0.000 A 
ATOM     21 CL   UNL     1       1.650   3.848  18.854  0.00  0.00    +0.000 Cl
ATOM     22  N   UNL     1       3.919   5.249  18.388  0.00  0.00    +0.000 N 
BRANCH  17  23
ATOM     23  C   UNL     1       6.364   6.076  18.230  0.00  0.00    +0.000 C 
BRANCH  23  24
ATOM     24  C   UNL     1       6.656   6.002  16.723  0.00  0.00    +0.000 C 
BRANCH  24  26
ATOM     25  C   UNL     1       6.282   4.268  14.925  0.00  0.00    +0.000 C 
ATOM     26  C   UNL     1       6.961   4.576  16.249  0.00  0.00    +0.000 C 
ENDBRANCH  24  26
ENDBRANCH  23  24
ENDBRANCH  17  23
BRANCH  19  27
ATOM     27  C   UNL     1       4.224   2.145  20.334  0.00  0.00    +0.000 C 
BRANCH  27  28
ATOM     28  O   UNL     1       5.273   1.247  19.973  0.00  0.00    +0.000 OA
ATOM     29  H   UNL     1       5.324   0.619  20.723  0.00  0.00    +0.000 HD
ENDBRANCH  27  28
ENDBRANCH  19  27
ENDBRANCH  16  22
ENDBRANCH   1  16
TORSDOF 10
ENDMDL
MODEL 9
REMARK VINA RESULT:      -7.7      2.429      3.755
REMARK  Name = 
REMARK  11 active torsions:
REMARK  status: ('A' for Active; 'I' for Inactive)
REMARK    1  A    between atoms: C_1  and  C_2
REMARK    2  A    between atoms: C_2  and  C_3
REMARK    3  A    between atoms: C_3  and  C_4
REMARK    4  A    between atoms: C_4  and  C_5
REMARK    5  A    between atoms: CA_7  and  C_8
REMARK    6  A    between atoms: C_8  and  O_9
REMARK    7  A    between atoms: N_12  and  C_13
REMARK    8  A    between atoms: C_13  and  C_14
REMARK    9  A    between atoms: C_17  and  N_18
REMARK   10  A    between atoms: C_22  and  C_23
REMARK   11  A    between atoms: C_23  and  O_25
REMARK                            x       y       z     vdW  Elec       q    Type
REMARK                         _______ _______ _______ _____ _____    ______ ____
ROOT
ATOM      1  C   UNL     1       2.155   6.789  18.583  0.00  0.00    +0.000 A 
ATOM      2  C   UNL     1       2.014   6.869  19.975  0.00  0.00    +0.000 A 
ATOM      3  C   UNL     1       1.574   8.051  20.577  0.00  0.00    +0.000 A 
ATOM      4  C   UNL     1       1.269   9.176  19.797  0.00  0.00    +0.000 A 
ATOM      5  C   UNL     1       1.378   9.088  18.405  0.00  0.00    +0.000 A 
ATOM      6  C   UNL     1       1.817   7.903  17.804  0.00  0.00    +0.000 A 
ENDROOT
BRANCH   4   7
ATOM      7  N   UNL     1       0.955  10.417  20.436  0.00  0.00    +0.000 N 
ATOM      8  C   UNL     1       1.093  11.647  19.809  0.00  0.00    +0.000 A 
ATOM      9  C   UNL     1       0.521  12.626  20.582  0.00  0.00    +0.000 A 
ATOM     10  C   UNL     1       0.078  12.004  21.762  0.00  0.00    +0.000 A 
ATOM     11  C   UNL     1       0.379  10.645  21.688  0.00  0.00    +0.000 A 
BRANCH  11  12
ATOM     12  C   UNL     1       0.245   9.667  22.742  0.00  0.00    +0.000 C 
ATOM     13  O   UNL     1       1.023   9.481  23.663  0.00  0.00    +0.000 OA
BRANCH  12  14
ATOM     14  O   UNL     1      -0.886   8.926  22.608  0.00  0.00    +0.000 OA
ATOM     15  H   UNL     1      -1.438   9.201  21.854  0.00  0.00    +0.000 HD
ENDBRANCH  12  14
ENDBRANCH  11  12
ENDBRANCH   4   7
BRANCH   1  16
ATOM     16  C   UNL     1       2.750   5.565  17.950  0.00  0.00    +0.000 C 
BRANCH  16  22
ATOM     17  C   UNL     1       4.422   4.003  19.211  0.00  0.00    +0.000 A 
ATOM     18  N   UNL     1       5.744   3.924  19.295  0.00  0.00    +0.000 NA
ATOM     19  CA  UNL     1       6.256   4.971  18.566  0.00  0.00    +0.000 A 
ATOM     20  C   UNL     1       5.226   5.675  18.012  0.00  0.00    +0.000 A 
ATOM     21 CL   UNL     1       5.251   7.060  17.018  0.00  0.00    +0.000 Cl
ATOM     22  N   UNL     1       4.050   5.066  18.401  0.00  0.00    +0.000 N 
BRANCH  17  23
ATOM     23  C   UNL     1       3.510   3.041  19.915  0.00  0.00    +0.000 C 
BRANCH  23  24
ATOM     24  C   UNL     1       2.661   3.706  21.009  0.00  0.00    +0.000 C 
BRANCH  24  26
ATOM     25  C   UNL     1       0.761   2.922  19.540  0.00  0.00    +0.000 C 
ATOM     26  C   UNL     1       1.187   3.287  20.952  0.00  0.00    +0.000 C 
ENDBRANCH  24  26
ENDBRANCH  23  24
ENDBRANCH  17  23
BRANCH  19  27
ATOM     27  C   UNL     1       7.723   5.203  18.487  0.00  0.00    +0.000 C 
BRANCH  27  28
ATOM     28  O   UNL     1       8.400   4.118  17.854  0.00  0.00    +0.000 OA
ATOM     29  H   UNL     1       8.045   3.319  18.296  0.00  0.00    +0.000 HD
ENDBRANCH  27  28
ENDBRANCH  19  27
ENDBRANCH  16  22
ENDBRANCH   1  16
TORSDOF 10
ENDMDL
