MODEL 1
REMARK VINA RESULT:      -9.2      0.000      0.000
REMARK  Name = 
REMARK  5 active torsions:
REMARK  status: ('A' for Active; 'I' for Inactive)
REMARK    1  A    between atoms: C_1  and  C_2
REMARK    2  A    between atoms: C_4  and  C_5
REMARK    3  A    between atoms: N_20  and  C_21
REMARK    4  A    between atoms: C_21  and  C_22
REMARK    5  A    between atoms: C_21  and  C_23
REMARK                            x       y       z     vdW  Elec       q    Type
REMARK                         _______ _______ _______ _____ _____    ______ ____
ROOT
ATOM      1  C   UNL     1       2.066   3.637  20.791  0.00  0.00    +0.000 C 
ATOM      2  C   UNL     1       2.342   4.949  20.118  0.00  0.00    +0.000 A 
ATOM      3  C   UNL     1       1.697   6.128  20.574  0.00  0.00    +0.000 A 
ATOM      4  C   UNL     1       1.886   7.389  19.952  0.00  0.00    +0.000 A 
ATOM      5  C   UNL     1       2.748   7.450  18.847  0.00  0.00    +0.000 A 
ATOM      6  C   UNL     1       3.388   6.307  18.408  0.00  0.00    +0.000 A 
ATOM      7  C   UNL     1       3.197   5.074  19.031  0.00  0.00    +0.000 A 
ATOM      8  C   UNL     1       4.049   4.098  18.301  0.00  0.00    +0.000 C 
ATOM      9  O   UNL     1       4.108   2.905  18.532  0.00  0.00    +0.000 OA
ATOM     10  N   UNL     1       4.742   4.820  17.324  0.00  0.00    +0.000 N 
ATOM     11  C   UNL     1       4.309   6.197  17.256  0.00  0.00    +0.000 C 
ENDROOT
BRANCH   4  12
ATOM     12  C   UNL     1       1.175   8.612  20.377  0.00  0.00    +0.000 A 
ATOM     13  C   UNL     1       0.926   9.671  19.474  0.00  0.00    +0.000 A 
ATOM     14  N   UNL     1       0.174  10.775  19.722  0.00  0.00    +0.000 NA
ATOM     15  C   UNL     1      -0.337  10.816  20.947  0.00  0.00    +0.000 A 
ATOM     16  C   UNL     1      -0.139   9.862  21.933  0.00  0.00    +0.000 A 
ATOM     17  C   UNL     1       0.627   8.745  21.662  0.00  0.00    +0.000 A 
ATOM     18  C   UNL     1      -0.883  10.259  23.167  0.00  0.00    +0.000 C 
ATOM     19  C   UNL     1      -1.542  11.572  22.730  0.00  0.00    +0.000 C 
ATOM     20  O   UNL     1      -2.271  12.275  23.410  0.00  0.00    +0.000 OA
ATOM     21  N   UNL     1      -1.163  11.812  21.422  0.00  0.00    +0.000 N 
ATOM     22  H   UNL     1      -1.455  12.602  20.870  0.00  0.00    +0.000 HD
ENDBRANCH   4  12
BRANCH  10  23
ATOM     23  C   UNL     1       5.615   4.242  16.303  0.00  0.00    +0.000 C 
ATOM     24  C   UNL     1       5.171   4.661  14.896  0.00  0.00    +0.000 C 
BRANCH  23  25
ATOM     25  C   UNL     1       7.059   4.665  16.499  0.00  0.00    +0.000 C 
ATOM     26  C   UNL     1       7.463   5.954  17.176  0.00  0.00    +0.000 C 
ATOM     27  C   UNL     1       7.658   4.646  17.885  0.00  0.00    +0.000 C 
ENDBRANCH  23  25
ENDBRANCH  10  23
TORSDOF 3
ENDMDL
MODEL 2
REMARK VINA RESULT:      -8.9      1.335      2.165
REMARK  Name = 
REMARK  5 active torsions:
REMARK  status: ('A' for Active; 'I' for Inactive)
REMARK    1  A    between atoms: C_1  and  C_2
REMARK    2  A    between atoms: C_4  and  C_5
REMARK    3  A    between atoms: N_20  and  C_21
REMARK    4  A    between atoms: C_21  and  C_22
REMARK    5  A    between atoms: C_21  and  C_23
REMARK                            x       y       z     vdW  Elec       q    Type
REMARK                         _______ _______ _______ _____ _____    ______ ____
ROOT
ATOM      1  C   UNL     1       2.870   3.454  18.993  0.00  0.00    +0.000 C 
ATOM      2  C   UNL     1       3.053   4.884  18.577  0.00  0.00    +0.000 A 
ATOM      3  C   UNL     1       2.367   5.917  19.268  0.00  0.00    +0.000 A 
ATOM      4  C   UNL     1       2.468   7.281  18.894  0.00  0.00    +0.000 A 
ATOM      5  C   UNL     1       3.283   7.600  17.798  0.00  0.00    +0.000 A 
ATOM      6  C   UNL     1       3.963   6.599  17.130  0.00  0.00    +0.000 A 
ATOM      7  C   UNL     1       3.859   5.262  17.511  0.00  0.00    +0.000 A 
ATOM      8  C   UNL     1       4.731   4.492  16.584  0.00  0.00    +0.000 C 
ATOM      9  O   UNL     1       4.859   3.283  16.580  0.00  0.00    +0.000 OA
ATOM     10  N   UNL     1       5.348   5.424  15.744  0.00  0.00    +0.000 N 
ATOM     11  C   UNL     1       4.844   6.762  15.954  0.00  0.00    +0.000 C 
ENDROOT
BRANCH   4  12
ATOM     12  C   UNL     1       1.712   8.359  19.565  0.00  0.00    +0.000 A 
ATOM     13  C   UNL     1       1.264   9.496  18.856  0.00  0.00    +0.000 A 
ATOM     14  N   UNL     1       0.457  10.476  19.340  0.00  0.00    +0.000 NA
ATOM     15  C   UNL     1       0.099  10.302  20.607  0.00  0.00    +0.000 A 
ATOM     16  C   UNL     1       0.498   9.253  21.419  0.00  0.00    +0.000 A 
ATOM     17  C   UNL     1       1.318   8.265  20.908  0.00  0.00    +0.000 A 
ATOM     18  C   UNL     1      -0.119   9.406  22.771  0.00  0.00    +0.000 C 
ATOM     19  C   UNL     1      -0.938  10.691  22.602  0.00  0.00    +0.000 C 
ATOM     20  O   UNL     1      -1.635  11.220  23.451  0.00  0.00    +0.000 OA
ATOM     21  N   UNL     1      -0.745  11.138  21.307  0.00  0.00    +0.000 N 
ATOM     22  H   UNL     1      -1.169  11.960  20.909  0.00  0.00    +0.000 HD
ENDBRANCH   4  12
BRANCH  10  23
ATOM     23  C   UNL     1       6.209   5.102  14.607  0.00  0.00    +0.000 C 
ATOM     24  C   UNL     1       7.664   4.912  15.053  0.00  0.00    +0.000 C 
BRANCH  23  25
ATOM     25  C   UNL     1       5.752   3.839  13.901  0.00  0.00    +0.000 C 
ATOM     26  C   UNL     1       4.942   3.847  12.625  0.00  0.00    +0.000 C 
ATOM     27  C   UNL     1       6.389   3.448  12.589  0.00  0.00    +0.000 C 
ENDBRANCH  23  25
ENDBRANCH  10  23
TORSDOF 3
ENDMDL
MODEL 3
REMARK VINA RESULT:      -8.7      1.331      1.786
REMARK  Name = 
REMARK  5 active torsions:
REMARK  status: ('A' for Active; 'I' for Inactive)
REMARK    1  A    between atoms: C_1  and  C_2
REMARK    2  A    between atoms: C_4  and  C_5
REMARK    3  A    between atoms: N_20  and  C_21
REMARK    4  A    between atoms: C_21  and  C_22
REMARK    5  A    between atoms: C_21  and  C_23
REMARK                            x       y       z     vdW  Elec       q    Type
REMARK                         _______ _______ _______ _____ _____    ______ ____
ROOT
ATOM      1  C   UNL     1       1.725   4.136  20.932  0.00  0.00    +0.000 C 
ATOM      2  C   UNL     1       1.875   5.550  20.454  0.00  0.00    +0.000 A 
ATOM      3  C   UNL     1       1.158   6.595  21.096  0.00  0.00    +0.000 A 
ATOM      4  C   UNL     1       1.227   7.944  20.663  0.00  0.00    +0.000 A 
ATOM      5  C   UNL     1       2.040   8.235  19.558  0.00  0.00    +0.000 A 
ATOM      6  C   UNL     1       2.749   7.223  18.938  0.00  0.00    +0.000 A 
ATOM      7  C   UNL     1       2.676   5.902  19.377  0.00  0.00    +0.000 A 
ATOM      8  C   UNL     1       3.573   5.115  18.489  0.00  0.00    +0.000 C 
ATOM      9  O   UNL     1       3.732   3.909  18.539  0.00  0.00    +0.000 OA
ATOM     10  N   UNL     1       4.172   6.024  17.612  0.00  0.00    +0.000 N 
ATOM     11  C   UNL     1       3.633   7.357  17.760  0.00  0.00    +0.000 C 
ENDROOT
BRANCH   4  12
ATOM     12  C   UNL     1       0.440   9.030  21.283  0.00  0.00    +0.000 A 
ATOM     13  C   UNL     1       0.407   9.207  22.685  0.00  0.00    +0.000 A 
ATOM     14  N   UNL     1      -0.172  10.241  23.348  0.00  0.00    +0.000 NA
ATOM     15  C   UNL     1      -0.758  11.130  22.555  0.00  0.00    +0.000 A 
ATOM     16  C   UNL     1      -0.826  11.053  21.173  0.00  0.00    +0.000 A 
ATOM     17  C   UNL     1      -0.229   9.994  20.515  0.00  0.00    +0.000 A 
ATOM     18  C   UNL     1      -1.558  12.243  20.643  0.00  0.00    +0.000 C 
ATOM     19  C   UNL     1      -1.884  13.012  21.928  0.00  0.00    +0.000 C 
ATOM     20  O   UNL     1      -2.478  14.075  22.002  0.00  0.00    +0.000 OA
ATOM     21  N   UNL     1      -1.378  12.283  22.988  0.00  0.00    +0.000 N 
ATOM     22  H   UNL     1      -1.436  12.552  23.957  0.00  0.00    +0.000 HD
ENDBRANCH   4  12
BRANCH  10  23
ATOM     23  C   UNL     1       5.048   5.675  16.495  0.00  0.00    +0.000 C 
ATOM     24  C   UNL     1       4.879   6.659  15.331  0.00  0.00    +0.000 C 
BRANCH  23  25
ATOM     25  C   UNL     1       6.507   5.665  16.911  0.00  0.00    +0.000 C 
ATOM     26  C   UNL     1       7.104   4.618  17.823  0.00  0.00    +0.000 C 
ATOM     27  C   UNL     1       7.432   4.608  16.357  0.00  0.00    +0.000 C 
ENDBRANCH  23  25
ENDBRANCH  10  23
TORSDOF 3
ENDMDL
MODEL 4
REMARK VINA RESULT:      -8.6      1.036      1.447
REMARK  Name = 
REMARK  5 active torsions:
REMARK  status: ('A' for Active; 'I' for Inactive)
REMARK    1  A    between atoms: C_1  and  C_2
REMARK    2  A    between atoms: C_4  and  C_5
REMARK    3  A    between atoms: N_20  and  C_21
REMARK    4  A    between atoms: C_21  and  C_22
REMARK    5  A    between atoms: C_21  and  C_23
REMARK                            x       y       z     vdW  Elec       q    Type
REMARK                         _______ _______ _______ _____ _____    ______ ____
ROOT
ATOM      1  C   UNL     1       2.042   3.574  20.927  0.00  0.00    +0.000 C 
ATOM      2  C   UNL     1       2.286   4.919  20.310  0.00  0.00    +0.000 A 
ATOM      3  C   UNL     1       1.618   6.064  20.819  0.00  0.00    +0.000 A 
ATOM      4  C   UNL     1       1.777   7.354  20.250  0.00  0.00    +0.000 A 
ATOM      5  C   UNL     1       2.630   7.481  19.144  0.00  0.00    +0.000 A 
ATOM      6  C   UNL     1       3.292   6.371  18.653  0.00  0.00    +0.000 A 
ATOM      7  C   UNL     1       3.131   5.109  19.225  0.00  0.00    +0.000 A 
ATOM      8  C   UNL     1       4.000   4.184  18.450  0.00  0.00    +0.000 C 
ATOM      9  O   UNL     1       4.086   2.983  18.629  0.00  0.00    +0.000 OA
ATOM     10  N   UNL     1       4.671   4.961  17.500  0.00  0.00    +0.000 N 
ATOM     11  C   UNL     1       4.209   6.330  17.494  0.00  0.00    +0.000 C 
ENDROOT
BRANCH   4  12
ATOM     12  C   UNL     1       1.042   8.542  20.731  0.00  0.00    +0.000 A 
ATOM     13  C   UNL     1       1.025   8.892  22.101  0.00  0.00    +0.000 A 
ATOM     14  N   UNL     1       0.495  10.025  22.631  0.00  0.00    +0.000 NA
ATOM     15  C   UNL     1      -0.056  10.835  21.734  0.00  0.00    +0.000 A 
ATOM     16  C   UNL     1      -0.135  10.591  20.372  0.00  0.00    +0.000 A 
ATOM     17  C   UNL     1       0.412   9.433  19.850  0.00  0.00    +0.000 A 
ATOM     18  C   UNL     1      -0.817  11.737  19.699  0.00  0.00    +0.000 C 
ATOM     19  C   UNL     1      -1.102  12.673  20.879  0.00  0.00    +0.000 C 
ATOM     20  O   UNL     1      -1.648  13.762  20.822  0.00  0.00    +0.000 OA
ATOM     21  N   UNL     1      -0.622  12.058  22.022  0.00  0.00    +0.000 N 
ATOM     22  H   UNL     1      -0.663  12.447  22.949  0.00  0.00    +0.000 HD
ENDBRANCH   4  12
BRANCH  10  23
ATOM     23  C   UNL     1       5.549   4.446  16.451  0.00  0.00    +0.000 C 
ATOM     24  C   UNL     1       5.185   5.040  15.085  0.00  0.00    +0.000 C 
BRANCH  23  25
ATOM     25  C   UNL     1       7.006   4.759  16.739  0.00  0.00    +0.000 C 
ATOM     26  C   UNL     1       7.467   6.041  17.393  0.00  0.00    +0.000 C 
ATOM     27  C   UNL     1       7.500   4.755  18.166  0.00  0.00    +0.000 C 
ENDBRANCH  23  25
ENDBRANCH  10  23
TORSDOF 3
ENDMDL
MODEL 5
REMARK VINA RESULT:      -8.5      2.256      2.721
REMARK  Name = 
REMARK  5 active torsions:
REMARK  status: ('A' for Active; 'I' for Inactive)
REMARK    1  A    between atoms: C_1  and  C_2
REMARK    2  A    between atoms: C_4  and  C_5
REMARK    3  A    between atoms: N_20  and  C_21
REMARK    4  A    between atoms: C_21  and  C_22
REMARK    5  A    between atoms: C_21  and  C_23
REMARK                            x       y       z     vdW  Elec       q    Type
REMARK                         _______ _______ _______ _____ _____    ______ ____
ROOT
ATOM      1  C   UNL     1       1.826   5.601  20.806  0.00  0.00    +0.000 C 
ATOM      2  C   UNL     1       2.186   6.602  19.748  0.00  0.00    +0.000 A 
ATOM      3  C   UNL     1       1.499   7.843  19.684  0.00  0.00    +0.000 A 
ATOM      4  C   UNL     1       1.766   8.811  18.681  0.00  0.00    +0.000 A 
ATOM      5  C   UNL     1       2.751   8.510  17.728  0.00  0.00    +0.000 A 
ATOM      6  C   UNL     1       3.430   7.308  17.795  0.00  0.00    +0.000 A 
ATOM      7  C   UNL     1       3.161   6.367  18.788  0.00  0.00    +0.000 A 
ATOM      8  C   UNL     1       4.086   5.228  18.549  0.00  0.00    +0.000 C 
ATOM      9  O   UNL     1       4.111   4.195  19.191  0.00  0.00    +0.000 OA
ATOM     10  N   UNL     1       4.891   5.583  17.462  0.00  0.00    +0.000 N 
ATOM     11  C   UNL     1       4.477   6.832  16.865  0.00  0.00    +0.000 C 
ENDROOT
BRANCH   4  12
ATOM     12  C   UNL     1       1.018  10.079  18.566  0.00  0.00    +0.000 A 
ATOM     13  C   UNL     1      -0.391  10.095  18.457  0.00  0.00    +0.000 A 
ATOM     14  N   UNL     1      -1.183  11.199  18.476  0.00  0.00    +0.000 NA
ATOM     15  C   UNL     1      -0.515  12.340  18.598  0.00  0.00    +0.000 A 
ATOM     16  C   UNL     1       0.863  12.461  18.679  0.00  0.00    +0.000 A 
ATOM     17  C   UNL     1       1.653  11.327  18.659  0.00  0.00    +0.000 A 
ATOM     18  C   UNL     1       1.230  13.903  18.815  0.00  0.00    +0.000 C 
ATOM     19  C   UNL     1      -0.145  14.581  18.813  0.00  0.00    +0.000 C 
ATOM     20  O   UNL     1      -0.360  15.777  18.912  0.00  0.00    +0.000 OA
ATOM     21  N   UNL     1      -1.098  13.587  18.681  0.00  0.00    +0.000 N 
ATOM     22  H   UNL     1      -2.093  13.738  18.659  0.00  0.00    +0.000 HD
ENDBRANCH   4  12
BRANCH  10  23
ATOM     23  C   UNL     1       5.872   4.715  16.813  0.00  0.00    +0.000 C 
ATOM     24  C   UNL     1       5.715   4.746  15.288  0.00  0.00    +0.000 C 
BRANCH  23  25
ATOM     25  C   UNL     1       7.293   5.120  17.161  0.00  0.00    +0.000 C 
ATOM     26  C   UNL     1       7.688   6.532  17.529  0.00  0.00    +0.000 C 
ATOM     27  C   UNL     1       7.639   5.469  18.588  0.00  0.00    +0.000 C 
ENDBRANCH  23  25
ENDBRANCH  10  23
TORSDOF 3
ENDMDL
MODEL 6
REMARK VINA RESULT:      -8.5      0.880      1.128
REMARK  Name = 
REMARK  5 active torsions:
REMARK  status: ('A' for Active; 'I' for Inactive)
REMARK    1  A    between atoms: C_1  and  C_2
REMARK    2  A    between atoms: C_4  and  C_5
REMARK    3  A    between atoms: N_20  and  C_21
REMARK    4  A    between atoms: C_21  and  C_22
REMARK    5  A    between atoms: C_21  and  C_23
REMARK                            x       y       z     vdW  Elec       q    Type
REMARK                         _______ _______ _______ _____ _____    ______ ____
ROOT
ATOM      1  C   UNL     1       1.987   3.862  21.419  0.00  0.00    +0.000 C 
ATOM      2  C   UNL     1       2.210   5.104  20.607  0.00  0.00    +0.000 A 
ATOM      3  C   UNL     1       1.567   6.315  20.975  0.00  0.00    +0.000 A 
ATOM      4  C   UNL     1       1.706   7.510  20.222  0.00  0.00    +0.000 A 
ATOM      5  C   UNL     1       2.514   7.470  19.076  0.00  0.00    +0.000 A 
ATOM      6  C   UNL     1       3.151   6.296  18.722  0.00  0.00    +0.000 A 
ATOM      7  C   UNL     1       3.011   5.130  19.473  0.00  0.00    +0.000 A 
ATOM      8  C   UNL     1       3.844   4.096  18.803  0.00  0.00    +0.000 C 
ATOM      9  O   UNL     1       3.933   2.933  19.148  0.00  0.00    +0.000 OA
ATOM     10  N   UNL     1       4.478   4.724  17.727  0.00  0.00    +0.000 N 
ATOM     11  C   UNL     1       4.020   6.082  17.544  0.00  0.00    +0.000 C 
ENDROOT
BRANCH   4  12
ATOM     12  C   UNL     1       0.996   8.761  20.558  0.00  0.00    +0.000 A 
ATOM     13  C   UNL     1       0.759   9.757  19.584  0.00  0.00    +0.000 A 
ATOM     14  N   UNL     1       0.009  10.877  19.750  0.00  0.00    +0.000 NA
ATOM     15  C   UNL     1      -0.514  11.002  20.965  0.00  0.00    +0.000 A 
ATOM     16  C   UNL     1      -0.327  10.116  22.014  0.00  0.00    +0.000 A 
ATOM     17  C   UNL     1       0.437   8.981  21.826  0.00  0.00    +0.000 A 
ATOM     18  C   UNL     1      -1.081  10.597  23.212  0.00  0.00    +0.000 C 
ATOM     19  C   UNL     1      -1.732  11.880  22.682  0.00  0.00    +0.000 C 
ATOM     20  O   UNL     1      -2.464  12.629  23.307  0.00  0.00    +0.000 OA
ATOM     21  N   UNL     1      -1.340  12.030  21.364  0.00  0.00    +0.000 N 
ATOM     22  H   UNL     1      -1.624  12.782  20.758  0.00  0.00    +0.000 HD
ENDBRANCH   4  12
BRANCH  10  23
ATOM     23  C   UNL     1       5.311   4.058  16.727  0.00  0.00    +0.000 C 
ATOM     24  C   UNL     1       4.550   2.912  16.048  0.00  0.00    +0.000 C 
BRANCH  23  25
ATOM     25  C   UNL     1       5.780   5.026  15.656  0.00  0.00    +0.000 C 
ATOM     26  C   UNL     1       7.156   4.976  15.035  0.00  0.00    +0.000 C 
ATOM     27  C   UNL     1       5.961   4.538  14.239  0.00  0.00    +0.000 C 
ENDBRANCH  23  25
ENDBRANCH  10  23
TORSDOF 3
ENDMDL
MODEL 7
REMARK VINA RESULT:      -8.4      1.449      1.925
REMARK  Name = 
REMARK  5 active torsions:
REMARK  status: ('A' for Active; 'I' for Inactive)
REMARK    1  A    between atoms: C_1  and  C_2
REMARK    2  A    between atoms: C_4  and  C_5
REMARK    3  A    between atoms: N_20  and  C_21
REMARK    4  A    between atoms: C_21  and  C_22
REMARK    5  A    between atoms: C_21  and  C_23
REMARK                            x       y       z     vdW  Elec       q    Type
REMARK                         _______ _______ _______ _____ _____    ______ ____
ROOT
ATOM      1  C   UNL     1       2.193   4.376  21.069  0.00  0.00    +0.000 C 
ATOM      2  C   UNL     1       2.379   5.573  20.184  0.00  0.00    +0.000 A 
ATOM      3  C   UNL     1       1.664   6.770  20.451  0.00  0.00    +0.000 A 
ATOM      4  C   UNL     1       1.767   7.919  19.626  0.00  0.00    +0.000 A 
ATOM      5  C   UNL     1       2.613   7.848  18.509  0.00  0.00    +0.000 A 
ATOM      6  C   UNL     1       3.321   6.689  18.253  0.00  0.00    +0.000 A 
ATOM      7  C   UNL     1       3.215   5.568  19.075  0.00  0.00    +0.000 A 
ATOM      8  C   UNL     1       4.121   4.539  18.500  0.00  0.00    +0.000 C 
ATOM      9  O   UNL     1       4.258   3.406  18.923  0.00  0.00    +0.000 OA
ATOM     10  N   UNL     1       4.758   5.129  17.404  0.00  0.00    +0.000 N 
ATOM     11  C   UNL     1       4.238   6.446  17.118  0.00  0.00    +0.000 C 
ENDROOT
BRANCH   4  12
ATOM     12  C   UNL     1       0.983   9.149  19.857  0.00  0.00    +0.000 A 
ATOM     13  C   UNL     1       0.184   9.307  21.013  0.00  0.00    +0.000 A 
ATOM     14  N   UNL     1      -0.469  10.438  21.387  0.00  0.00    +0.000 NA
ATOM     15  C   UNL     1      -0.318  11.452  20.543  0.00  0.00    +0.000 A 
ATOM     16  C   UNL     1       0.408  11.415  19.363  0.00  0.00    +0.000 A 
ATOM     17  C   UNL     1       1.067  10.256  19.000  0.00  0.00    +0.000 A 
ATOM     18  C   UNL     1       0.346  12.752  18.698  0.00  0.00    +0.000 C 
ATOM     19  C   UNL     1      -0.510  13.556  19.683  0.00  0.00    +0.000 C 
ATOM     20  O   UNL     1      -0.832  14.727  19.571  0.00  0.00    +0.000 OA
ATOM     21  N   UNL     1      -0.849  12.711  20.724  0.00  0.00    +0.000 N 
ATOM     22  H   UNL     1      -1.402  12.971  21.525  0.00  0.00    +0.000 HD
ENDBRANCH   4  12
BRANCH  10  23
ATOM     23  C   UNL     1       5.656   4.444  16.475  0.00  0.00    +0.000 C 
ATOM     24  C   UNL     1       5.273   4.736  15.019  0.00  0.00    +0.000 C 
BRANCH  23  25
ATOM     25  C   UNL     1       7.100   4.862  16.686  0.00  0.00    +0.000 C 
ATOM     26  C   UNL     1       7.506   6.071  17.496  0.00  0.00    +0.000 C 
ATOM     27  C   UNL     1       7.732   4.693  18.047  0.00  0.00    +0.000 C 
ENDBRANCH  23  25
ENDBRANCH  10  23
TORSDOF 3
ENDMDL
MODEL 8
REMARK VINA RESULT:      -8.3      1.306      2.003
REMARK  Name = 
REMARK  5 active torsions:
REMARK  status: ('A' for Active; 'I' for Inactive)
REMARK    1  A    between atoms: C_1  and  C_2
REMARK    2  A    between atoms: C_4  and  C_5
REMARK    3  A    between atoms: N_20  and  C_21
REMARK    4  A    between atoms: C_21  and  C_22
REMARK    5  A    between atoms: C_21  and  C_23
REMARK                            x       y       z     vdW  Elec       q    Type
REMARK                         _______ _______ _______ _____ _____    ______ ____
ROOT
ATOM      1  C   UNL     1       2.155   4.135  20.653  0.00  0.00    +0.000 C 
ATOM      2  C   UNL     1       2.217   5.562  20.197  0.00  0.00    +0.000 A 
ATOM      3  C   UNL     1       1.448   6.553  20.863  0.00  0.00    +0.000 A 
ATOM      4  C   UNL     1       1.433   7.910  20.450  0.00  0.00    +0.000 A 
ATOM      5  C   UNL     1       2.215   8.266  19.342  0.00  0.00    +0.000 A 
ATOM      6  C   UNL     1       2.975   7.307  18.699  0.00  0.00    +0.000 A 
ATOM      7  C   UNL     1       2.985   5.977  19.117  0.00  0.00    +0.000 A 
ATOM      8  C   UNL     1       3.916   5.257  18.207  0.00  0.00    +0.000 C 
ATOM      9  O   UNL     1       4.145   4.063  18.236  0.00  0.00    +0.000 OA
ATOM     10  N   UNL     1       4.451   6.214  17.339  0.00  0.00    +0.000 N 
ATOM     11  C   UNL     1       3.837   7.510  17.514  0.00  0.00    +0.000 C 
ENDROOT
BRANCH   4  12
ATOM     12  C   UNL     1       0.591   8.939  21.096  0.00  0.00    +0.000 A 
ATOM     13  C   UNL     1       0.597   9.120  22.498  0.00  0.00    +0.000 A 
ATOM     14  N   UNL     1      -0.033  10.113  23.179  0.00  0.00    +0.000 NA
ATOM     15  C   UNL     1      -0.712  10.952  22.405  0.00  0.00    +0.000 A 
ATOM     16  C   UNL     1      -0.825  10.862  21.027  0.00  0.00    +0.000 A 
ATOM     17  C   UNL     1      -0.176   9.846  20.351  0.00  0.00    +0.000 A 
ATOM     18  C   UNL     1      -1.663  11.991  20.521  0.00  0.00    +0.000 C 
ATOM     19  C   UNL     1      -1.997  12.742  21.815  0.00  0.00    +0.000 C 
ATOM     20  O   UNL     1      -2.666  13.758  21.908  0.00  0.00    +0.000 OA
ATOM     21  N   UNL     1      -1.399  12.058  22.858  0.00  0.00    +0.000 N 
ATOM     22  H   UNL     1      -1.441  12.328  23.827  0.00  0.00    +0.000 HD
ENDBRANCH   4  12
BRANCH  10  23
ATOM     23  C   UNL     1       5.333   5.934  16.207  0.00  0.00    +0.000 C 
ATOM     24  C   UNL     1       6.807   5.979  16.631  0.00  0.00    +0.000 C 
BRANCH  23  25
ATOM     25  C   UNL     1       5.048   4.572  15.601  0.00  0.00    +0.000 C 
ATOM     26  C   UNL     1       5.373   4.215  14.169  0.00  0.00    +0.000 C 
ATOM     27  C   UNL     1       6.195   3.642  15.287  0.00  0.00    +0.000 C 
ENDBRANCH  23  25
ENDBRANCH  10  23
TORSDOF 3
ENDMDL
MODEL 9
REMARK VINA RESULT:      -8.3      2.341      8.816
REMARK  Name = 
REMARK  5 active torsions:
REMARK  status: ('A' for Active; 'I' for Inactive)
REMARK    1  A    between atoms: C_1  and  C_2
REMARK    2  A    between atoms: C_4  and  C_5
REMARK    3  A    between atoms: N_20  and  C_21
REMARK    4  A    between atoms: C_21  and  C_22
REMARK    5  A    between atoms: C_21  and  C_23
REMARK                            x       y       z     vdW  Elec       q    Type
REMARK                         _______ _______ _______ _____ _____    ______ ____
ROOT
ATOM      1  C   UNL     1       1.177   8.563  22.307  0.00  0.00    +0.000 C 
ATOM      2  C   UNL     1       1.332   8.472  20.818  0.00  0.00    +0.000 A 
ATOM      3  C   UNL     1       2.223   7.520  20.256  0.00  0.00    +0.000 A 
ATOM      4  C   UNL     1       2.443   7.416  18.858  0.00  0.00    +0.000 A 
ATOM      5  C   UNL     1       1.743   8.295  18.018  0.00  0.00    +0.000 A 
ATOM      6  C   UNL     1       0.865   9.214  18.561  0.00  0.00    +0.000 A 
ATOM      7  C   UNL     1       0.654   9.303  19.937  0.00  0.00    +0.000 A 
ATOM      8  C   UNL     1      -0.353  10.378  20.138  0.00  0.00    +0.000 C 
ATOM      9  O   UNL     1      -0.754  10.774  21.217  0.00  0.00    +0.000 OA
ATOM     10  N   UNL     1      -0.726  10.825  18.867  0.00  0.00    +0.000 N 
ATOM     11  C   UNL     1       0.066  10.216  17.823  0.00  0.00    +0.000 C 
ENDROOT
BRANCH   4  12
ATOM     12  C   UNL     1       3.412   6.472  18.263  0.00  0.00    +0.000 A 
ATOM     13  C   UNL     1       3.684   5.221  18.863  0.00  0.00    +0.000 A 
ATOM     14  N   UNL     1       4.451   4.231  18.337  0.00  0.00    +0.000 NA
ATOM     15  C   UNL     1       4.981   4.528  17.156  0.00  0.00    +0.000 A 
ATOM     16  C   UNL     1       4.820   5.729  16.482  0.00  0.00    +0.000 A 
ATOM     17  C   UNL     1       4.034   6.724  17.032  0.00  0.00    +0.000 A 
ATOM     18  C   UNL     1       5.562   5.676  15.186  0.00  0.00    +0.000 C 
ATOM     19  C   UNL     1       6.156   4.263  15.219  0.00  0.00    +0.000 C 
ATOM     20  O   UNL     1       6.847   3.750  14.355  0.00  0.00    +0.000 OA
ATOM     21  N   UNL     1       5.762   3.674  16.407  0.00  0.00    +0.000 N 
ATOM     22  H   UNL     1       5.997   2.739  16.696  0.00  0.00    +0.000 HD
ENDBRANCH   4  12
BRANCH  10  23
ATOM     23  C   UNL     1      -1.617  11.951  18.590  0.00  0.00    +0.000 C 
ATOM     24  C   UNL     1      -0.828  13.176  18.114  0.00  0.00    +0.000 C 
BRANCH  23  25
ATOM     25  C   UNL     1      -2.648  11.601  17.534  0.00  0.00    +0.000 C 
ATOM     26  C   UNL     1      -3.502  10.354  17.586  0.00  0.00    +0.000 C 
ATOM     27  C   UNL     1      -4.118  11.694  17.868  0.00  0.00    +0.000 C 
ENDBRANCH  23  25
ENDBRANCH  10  23
TORSDOF 3
ENDMDL
