MODEL 1
REMARK VINA RESULT:      -6.1      0.000      0.000
REMARK  Name = 
REMARK  9 active torsions:
REMARK  status: ('A' for Active; 'I' for Inactive)
REMARK    1  A    between atoms: C_1  and  C_2
REMARK    2  A    between atoms: C_4  and  C_5
REMARK    3  A    between atoms: N_7  and  C_8
REMARK    4  A    between atoms: C_8  and  C_9
REMARK    5  A    between atoms: C_9  and  C_10
REMARK    6  A    between atoms: N_12  and  C_13
REMARK    7  A    between atoms: C_13  and  C_14
REMARK    8  A    between atoms: C_13  and  C_15
REMARK    9  A    between atoms: C_13  and  C_16
REMARK                            x       y       z     vdW  Elec       q    Type
REMARK                         _______ _______ _______ _____ _____    ______ ____
ROOT
ATOM      1  C   UNL     1       4.269   6.624  17.834  0.00  0.00    +0.000 C 
ENDROOT
BRANCH   1   4
ATOM      2  C   UNL     1       5.374   6.046  15.705  0.00  0.00    +0.000 C 
ATOM      3  O   UNL     1       5.045   7.092  15.163  0.00  0.00    +0.000 OA
ATOM      4  N   UNL     1       5.030   5.714  16.995  0.00  0.00    +0.000 N 
ATOM      5  H   UNL     1       5.337   4.832  17.382  0.00  0.00    +0.000 HD
BRANCH   2   9
ATOM      6  C   UNL     1       6.267   3.645  12.772  0.00  0.00    +0.000 C 
ATOM      7  C   UNL     1       5.572   4.064  14.023  0.00  0.00    +0.000 C 
ATOM      8  C   UNL     1       6.071   3.569  15.352  0.00  0.00    +0.000 C 
ATOM      9  C   UNL     1       6.216   5.033  14.997  0.00  0.00    +0.000 C 
ENDBRANCH   2   9
ENDBRANCH   1   4
BRANCH   1  10
ATOM     10  C   UNL     1       2.778   6.318  17.827  0.00  0.00    +0.000 C 
BRANCH  10  11
ATOM     11  C   UNL     1       2.567   4.837  18.045  0.00  0.00    +0.000 C 
ATOM     12  O   UNL     1       2.775   4.037  17.138  0.00  0.00    +0.000 OA
ATOM     13  N   UNL     1       2.178   4.481  19.320  0.00  0.00    +0.000 N 
ATOM     14  H   UNL     1       2.070   5.215  20.010  0.00  0.00    +0.000 HD
BRANCH  13  15
ATOM     15  C   UNL     1       1.940   3.089  19.752  0.00  0.00    +0.000 C 
ATOM     16  C   UNL     1       3.240   2.269  19.690  0.00  0.00    +0.000 C 
ATOM     17  C   UNL     1       1.434   3.087  21.207  0.00  0.00    +0.000 C 
ATOM     18  C   UNL     1       0.862   2.421  18.881  0.00  0.00    +0.000 C 
ENDBRANCH  13  15
ENDBRANCH  10  11
ENDBRANCH   1  10
TORSDOF 5
ENDMDL
MODEL 2
REMARK VINA RESULT:      -6.1      0.503      1.201
REMARK  Name = 
REMARK  9 active torsions:
REMARK  status: ('A' for Active; 'I' for Inactive)
REMARK    1  A    between atoms: C_1  and  C_2
REMARK    2  A    between atoms: C_4  and  C_5
REMARK    3  A    between atoms: N_7  and  C_8
REMARK    4  A    between atoms: C_8  and  C_9
REMARK    5  A    between atoms: C_9  and  C_10
REMARK    6  A    between atoms: N_12  and  C_13
REMARK    7  A    between atoms: C_13  and  C_14
REMARK    8  A    between atoms: C_13  and  C_15
REMARK    9  A    between atoms: C_13  and  C_16
REMARK                            x       y       z     vdW  Elec       q    Type
REMARK                         _______ _______ _______ _____ _____    ______ ____
ROOT
ATOM      1  C   UNL     1       3.894   6.773  17.801  0.00  0.00    +0.000 C 
ENDROOT
BRANCH   1   4
ATOM      2  C   UNL     1       5.210   6.169  15.804  0.00  0.00    +0.000 C 
ATOM      3  O   UNL     1       4.961   7.218  15.228  0.00  0.00    +0.000 OA
ATOM      4  N   UNL     1       4.724   5.847  17.050  0.00  0.00    +0.000 N 
ATOM      5  H   UNL     1       4.971   4.961  17.470  0.00  0.00    +0.000 HD
BRANCH   2   9
ATOM      6  C   UNL     1       6.336   3.699  13.012  0.00  0.00    +0.000 C 
ATOM      7  C   UNL     1       5.541   4.148  14.190  0.00  0.00    +0.000 C 
ATOM      8  C   UNL     1       5.926   3.683  15.567  0.00  0.00    +0.000 C 
ATOM      9  C   UNL     1       6.105   5.138  15.192  0.00  0.00    +0.000 C 
ENDBRANCH   2   9
ENDBRANCH   1   4
BRANCH   1  10
ATOM     10  C   UNL     1       2.490   6.238  18.042  0.00  0.00    +0.000 C 
BRANCH  10  11
ATOM     11  C   UNL     1       2.554   4.747  18.284  0.00  0.00    +0.000 C 
ATOM     12  O   UNL     1       2.666   3.967  17.344  0.00  0.00    +0.000 OA
ATOM     13  N   UNL     1       2.521   4.365  19.609  0.00  0.00    +0.000 N 
ATOM     14  H   UNL     1       2.467   5.091  20.315  0.00  0.00    +0.000 HD
BRANCH  13  15
ATOM     15  C   UNL     1       2.596   2.963  20.067  0.00  0.00    +0.000 C 
ATOM     16  C   UNL     1       1.601   2.083  19.290  0.00  0.00    +0.000 C 
ATOM     17  C   UNL     1       4.018   2.423  19.821  0.00  0.00    +0.000 C 
ATOM     18  C   UNL     1       2.311   2.863  21.575  0.00  0.00    +0.000 C 
ENDBRANCH  13  15
ENDBRANCH  10  11
ENDBRANCH   1  10
TORSDOF 5
ENDMDL
MODEL 3
REMARK VINA RESULT:      -6.0      1.601      2.026
REMARK  Name = 
REMARK  9 active torsions:
REMARK  status: ('A' for Active; 'I' for Inactive)
REMARK    1  A    between atoms: C_1  and  C_2
REMARK    2  A    between atoms: C_4  and  C_5
REMARK    3  A    between atoms: N_7  and  C_8
REMARK    4  A    between atoms: C_8  and  C_9
REMARK    5  A    between atoms: C_9  and  C_10
REMARK    6  A    between atoms: N_12  and  C_13
REMARK    7  A    between atoms: C_13  and  C_14
REMARK    8  A    between atoms: C_13  and  C_15
REMARK    9  A    between atoms: C_13  and  C_16
REMARK                            x       y       z     vdW  Elec       q    Type
REMARK                         _______ _______ _______ _____ _____    ______ ____
ROOT
ATOM      1  C   UNL     1       4.888   5.817  18.373  0.00  0.00    +0.000 C 
ENDROOT
BRANCH   1   4
ATOM      2  C   UNL     1       4.961   4.819  16.118  0.00  0.00    +0.000 C 
ATOM      3  O   UNL     1       4.171   3.931  16.403  0.00  0.00    +0.000 OA
ATOM      4  N   UNL     1       5.390   5.774  17.011  0.00  0.00    +0.000 N 
ATOM      5  H   UNL     1       6.045   6.483  16.708  0.00  0.00    +0.000 HD
BRANCH   2   9
ATOM      6  C   UNL     1       6.026   3.501  12.612  0.00  0.00    +0.000 C 
ATOM      7  C   UNL     1       6.181   3.759  14.072  0.00  0.00    +0.000 C 
ATOM      8  C   UNL     1       7.019   4.920  14.536  0.00  0.00    +0.000 C 
ATOM      9  C   UNL     1       5.519   4.953  14.737  0.00  0.00    +0.000 C 
ENDBRANCH   2   9
ENDBRANCH   1   4
BRANCH   1  10
ATOM     10  C   UNL     1       5.592   4.825  19.288  0.00  0.00    +0.000 C 
BRANCH  10  11
ATOM     11  C   UNL     1       4.622   3.741  19.697  0.00  0.00    +0.000 C 
ATOM     12  O   UNL     1       5.029   2.631  20.025  0.00  0.00    +0.000 OA
ATOM     13  N   UNL     1       3.294   4.115  19.711  0.00  0.00    +0.000 N 
ATOM     14  H   UNL     1       3.064   5.070  19.460  0.00  0.00    +0.000 HD
BRANCH  13  15
ATOM     15  C   UNL     1       2.188   3.219  20.102  0.00  0.00    +0.000 C 
ATOM     16  C   UNL     1       2.424   2.641  21.508  0.00  0.00    +0.000 C 
ATOM     17  C   UNL     1       0.869   4.017  20.120  0.00  0.00    +0.000 C 
ATOM     18  C   UNL     1       2.027   2.072  19.089  0.00  0.00    +0.000 C 
ENDBRANCH  13  15
ENDBRANCH  10  11
ENDBRANCH   1  10
TORSDOF 5
ENDMDL
MODEL 4
REMARK VINA RESULT:      -6.0      2.124      2.475
REMARK  Name = 
REMARK  9 active torsions:
REMARK  status: ('A' for Active; 'I' for Inactive)
REMARK    1  A    between atoms: C_1  and  C_2
REMARK    2  A    between atoms: C_4  and  C_5
REMARK    3  A    between atoms: N_7  and  C_8
REMARK    4  A    between atoms: C_8  and  C_9
REMARK    5  A    between atoms: C_9  and  C_10
REMARK    6  A    between atoms: N_12  and  C_13
REMARK    7  A    between atoms: C_13  and  C_14
REMARK    8  A    between atoms: C_13  and  C_15
REMARK    9  A    between atoms: C_13  and  C_16
REMARK                            x       y       z     vdW  Elec       q    Type
REMARK                         _______ _______ _______ _____ _____    ______ ____
ROOT
ATOM      1  C   UNL     1       7.417   4.780  18.187  0.00  0.00    +0.000 C 
ENDROOT
BRANCH   1   4
ATOM      2  C   UNL     1       6.982   4.599  15.765  0.00  0.00    +0.000 C 
ATOM      3  O   UNL     1       7.663   5.577  15.494  0.00  0.00    +0.000 OA
ATOM      4  N   UNL     1       6.783   4.141  17.047  0.00  0.00    +0.000 N 
ATOM      5  H   UNL     1       6.209   3.323  17.202  0.00  0.00    +0.000 HD
BRANCH   2   9
ATOM      6  C   UNL     1       6.520   3.269  12.135  0.00  0.00    +0.000 C 
ATOM      7  C   UNL     1       6.387   4.248  13.252  0.00  0.00    +0.000 C 
ATOM      8  C   UNL     1       5.089   4.343  14.005  0.00  0.00    +0.000 C 
ATOM      9  C   UNL     1       6.317   3.791  14.697  0.00  0.00    +0.000 C 
ENDBRANCH   2   9
ENDBRANCH   1   4
BRANCH   1  10
ATOM     10  C   UNL     1       6.423   5.522  19.070  0.00  0.00    +0.000 C 
BRANCH  10  11
ATOM     11  C   UNL     1       5.203   4.658  19.290  0.00  0.00    +0.000 C 
ATOM     12  O   UNL     1       5.300   3.435  19.315  0.00  0.00    +0.000 OA
ATOM     13  N   UNL     1       4.025   5.346  19.497  0.00  0.00    +0.000 N 
ATOM     14  H   UNL     1       4.057   6.359  19.497  0.00  0.00    +0.000 HD
BRANCH  13  15
ATOM     15  C   UNL     1       2.724   4.698  19.755  0.00  0.00    +0.000 C 
ATOM     16  C   UNL     1       2.889   3.503  20.710  0.00  0.00    +0.000 C 
ATOM     17  C   UNL     1       1.770   5.715  20.410  0.00  0.00    +0.000 C 
ATOM     18  C   UNL     1       2.076   4.228  18.441  0.00  0.00    +0.000 C 
ENDBRANCH  13  15
ENDBRANCH  10  11
ENDBRANCH   1  10
TORSDOF 5
ENDMDL
MODEL 5
REMARK VINA RESULT:      -6.0      1.587      2.179
REMARK  Name = 
REMARK  9 active torsions:
REMARK  status: ('A' for Active; 'I' for Inactive)
REMARK    1  A    between atoms: C_1  and  C_2
REMARK    2  A    between atoms: C_4  and  C_5
REMARK    3  A    between atoms: N_7  and  C_8
REMARK    4  A    between atoms: C_8  and  C_9
REMARK    5  A    between atoms: C_9  and  C_10
REMARK    6  A    between atoms: N_12  and  C_13
REMARK    7  A    between atoms: C_13  and  C_14
REMARK    8  A    between atoms: C_13  and  C_15
REMARK    9  A    between atoms: C_13  and  C_16
REMARK                            x       y       z     vdW  Elec       q    Type
REMARK                         _______ _______ _______ _____ _____    ______ ____
ROOT
ATOM      1  C   UNL     1       5.525   6.112  16.291  0.00  0.00    +0.000 C 
ENDROOT
BRANCH   1   4
ATOM      2  C   UNL     1       6.487   4.702  14.511  0.00  0.00    +0.000 C 
ATOM      3  O   UNL     1       7.564   5.279  14.531  0.00  0.00    +0.000 OA
ATOM      4  N   UNL     1       5.423   5.043  15.314  0.00  0.00    +0.000 N 
ATOM      5  H   UNL     1       4.559   4.522  15.247  0.00  0.00    +0.000 HD
BRANCH   2   9
ATOM      6  C   UNL     1       7.143   2.485  11.377  0.00  0.00    +0.000 C 
ATOM      7  C   UNL     1       6.582   3.643  12.130  0.00  0.00    +0.000 C 
ATOM      8  C   UNL     1       5.144   3.616  12.570  0.00  0.00    +0.000 C 
ATOM      9  C   UNL     1       6.245   3.535  13.606  0.00  0.00    +0.000 C 
ENDBRANCH   2   9
ENDBRANCH   1   4
BRANCH   1  10
ATOM     10  C   UNL     1       4.374   6.106  17.288  0.00  0.00    +0.000 C 
BRANCH  10  11
ATOM     11  C   UNL     1       4.276   4.744  17.935  0.00  0.00    +0.000 C 
ATOM     12  O   UNL     1       5.288   4.151  18.298  0.00  0.00    +0.000 OA
ATOM     13  N   UNL     1       2.993   4.269  18.113  0.00  0.00    +0.000 N 
ATOM     14  H   UNL     1       2.221   4.854  17.814  0.00  0.00    +0.000 HD
BRANCH  13  15
ATOM     15  C   UNL     1       2.672   2.974  18.746  0.00  0.00    +0.000 C 
ATOM     16  C   UNL     1       3.074   2.978  20.231  0.00  0.00    +0.000 C 
ATOM     17  C   UNL     1       1.154   2.726  18.654  0.00  0.00    +0.000 C 
ATOM     18  C   UNL     1       3.380   1.818  18.019  0.00  0.00    +0.000 C 
ENDBRANCH  13  15
ENDBRANCH  10  11
ENDBRANCH   1  10
TORSDOF 5
ENDMDL
MODEL 6
REMARK VINA RESULT:      -6.0      0.895      1.375
REMARK  Name = 
REMARK  9 active torsions:
REMARK  status: ('A' for Active; 'I' for Inactive)
REMARK    1  A    between atoms: C_1  and  C_2
REMARK    2  A    between atoms: C_4  and  C_5
REMARK    3  A    between atoms: N_7  and  C_8
REMARK    4  A    between atoms: C_8  and  C_9
REMARK    5  A    between atoms: C_9  and  C_10
REMARK    6  A    between atoms: N_12  and  C_13
REMARK    7  A    between atoms: C_13  and  C_14
REMARK    8  A    between atoms: C_13  and  C_15
REMARK    9  A    between atoms: C_13  and  C_16
REMARK                            x       y       z     vdW  Elec       q    Type
REMARK                         _______ _______ _______ _____ _____    ______ ____
ROOT
ATOM      1  C   UNL     1       4.121   7.076  17.753  0.00  0.00    +0.000 C 
ENDROOT
BRANCH   1   4
ATOM      2  C   UNL     1       5.295   6.226  15.756  0.00  0.00    +0.000 C 
ATOM      3  O   UNL     1       5.042   7.220  15.091  0.00  0.00    +0.000 OA
ATOM      4  N   UNL     1       4.875   6.050  17.054  0.00  0.00    +0.000 N 
ATOM      5  H   UNL     1       5.121   5.202  17.548  0.00  0.00    +0.000 HD
BRANCH   2   9
ATOM      6  C   UNL     1       6.342   3.635  13.044  0.00  0.00    +0.000 C 
ATOM      7  C   UNL     1       5.523   4.170  14.169  0.00  0.00    +0.000 C 
ATOM      8  C   UNL     1       5.774   3.680  15.569  0.00  0.00    +0.000 C 
ATOM      9  C   UNL     1       6.120   5.107  15.203  0.00  0.00    +0.000 C 
ENDBRANCH   2   9
ENDBRANCH   1   4
BRANCH   1  10
ATOM     10  C   UNL     1       2.738   6.602  18.173  0.00  0.00    +0.000 C 
BRANCH  10  11
ATOM     11  C   UNL     1       2.866   5.341  18.997  0.00  0.00    +0.000 C 
ATOM     12  O   UNL     1       3.741   5.241  19.852  0.00  0.00    +0.000 OA
ATOM     13  N   UNL     1       1.918   4.373  18.741  0.00  0.00    +0.000 N 
ATOM     14  H   UNL     1       1.211   4.568  18.042  0.00  0.00    +0.000 HD
BRANCH  13  15
ATOM     15  C   UNL     1       1.847   3.079  19.449  0.00  0.00    +0.000 C 
ATOM     16  C   UNL     1       1.547   3.290  20.943  0.00  0.00    +0.000 C 
ATOM     17  C   UNL     1       0.715   2.228  18.842  0.00  0.00    +0.000 C 
ATOM     18  C   UNL     1       3.160   2.293  19.289  0.00  0.00    +0.000 C 
ENDBRANCH  13  15
ENDBRANCH  10  11
ENDBRANCH   1  10
TORSDOF 5
ENDMDL
MODEL 7
REMARK VINA RESULT:      -5.9      1.633      2.192
REMARK  Name = 
REMARK  9 active torsions:
REMARK  status: ('A' for Active; 'I' for Inactive)
REMARK    1  A    between atoms: C_1  and  C_2
REMARK    2  A    between atoms: C_4  and  C_5
REMARK    3  A    between atoms: N_7  and  C_8
REMARK    4  A    between atoms: C_8  and  C_9
REMARK    5  A    between atoms: C_9  and  C_10
REMARK    6  A    between atoms: N_12  and  C_13
REMARK    7  A    between atoms: C_13  and  C_14
REMARK    8  A    between atoms: C_13  and  C_15
REMARK    9  A    between atoms: C_13  and  C_16
REMARK                            x       y       z     vdW  Elec       q    Type
REMARK                         _______ _______ _______ _____ _____    ______ ____
ROOT
ATOM      1  C   UNL     1       5.891   4.510  18.531  0.00  0.00    +0.000 C 
ENDROOT
BRANCH   1   4
ATOM      2  C   UNL     1       5.184   4.271  16.179  0.00  0.00    +0.000 C 
ATOM      3  O   UNL     1       4.180   3.636  16.467  0.00  0.00    +0.000 OA
ATOM      4  N   UNL     1       6.091   4.725  17.108  0.00  0.00    +0.000 N 
ATOM      5  H   UNL     1       6.902   5.247  16.802  0.00  0.00    +0.000 HD
BRANCH   2   9
ATOM      6  C   UNL     1       5.911   3.503  12.432  0.00  0.00    +0.000 C 
ATOM      7  C   UNL     1       6.239   3.646  13.879  0.00  0.00    +0.000 C 
ATOM      8  C   UNL     1       6.936   4.888  14.364  0.00  0.00    +0.000 C 
ATOM      9  C   UNL     1       5.498   4.633  14.763  0.00  0.00    +0.000 C 
ENDBRANCH   2   9
ENDBRANCH   1   4
BRANCH   1  10
ATOM     10  C   UNL     1       5.208   5.688  19.211  0.00  0.00    +0.000 C 
BRANCH  10  11
ATOM     11  C   UNL     1       3.718   5.442  19.266  0.00  0.00    +0.000 C 
ATOM     12  O   UNL     1       2.927   6.375  19.163  0.00  0.00    +0.000 OA
ATOM     13  N   UNL     1       3.345   4.119  19.392  0.00  0.00    +0.000 N 
ATOM     14  H   UNL     1       4.075   3.418  19.429  0.00  0.00    +0.000 HD
BRANCH  13  15
ATOM     15  C   UNL     1       1.943   3.658  19.441  0.00  0.00    +0.000 C 
ATOM     16  C   UNL     1       1.188   4.332  20.600  0.00  0.00    +0.000 C 
ATOM     17  C   UNL     1       1.239   4.029  18.122  0.00  0.00    +0.000 C 
ATOM     18  C   UNL     1       1.874   2.129  19.595  0.00  0.00    +0.000 C 
ENDBRANCH  13  15
ENDBRANCH  10  11
ENDBRANCH   1  10
TORSDOF 5
ENDMDL
MODEL 8
REMARK VINA RESULT:      -5.9      2.283      3.187
REMARK  Name = 
REMARK  9 active torsions:
REMARK  status: ('A' for Active; 'I' for Inactive)
REMARK    1  A    between atoms: C_1  and  C_2
REMARK    2  A    between atoms: C_4  and  C_5
REMARK    3  A    between atoms: N_7  and  C_8
REMARK    4  A    between atoms: C_8  and  C_9
REMARK    5  A    between atoms: C_9  and  C_10
REMARK    6  A    between atoms: N_12  and  C_13
REMARK    7  A    between atoms: C_13  and  C_14
REMARK    8  A    between atoms: C_13  and  C_15
REMARK    9  A    between atoms: C_13  and  C_16
REMARK                            x       y       z     vdW  Elec       q    Type
REMARK                         _______ _______ _______ _____ _____    ______ ____
ROOT
ATOM      1  C   UNL     1       7.695   4.529  17.419  0.00  0.00    +0.000 C 
ENDROOT
BRANCH   1   4
ATOM      2  C   UNL     1       6.252   4.044  15.478  0.00  0.00    +0.000 C 
ATOM      3  O   UNL     1       5.638   3.161  16.059  0.00  0.00    +0.000 OA
ATOM      4  N   UNL     1       7.283   4.756  16.045  0.00  0.00    +0.000 N 
ATOM      5  H   UNL     1       7.748   5.476  15.508  0.00  0.00    +0.000 HD
BRANCH   2   9
ATOM      6  C   UNL     1       5.042   3.401  11.833  0.00  0.00    +0.000 C 
ATOM      7  C   UNL     1       6.025   3.434  12.953  0.00  0.00    +0.000 C 
ATOM      8  C   UNL     1       7.006   4.571  13.048  0.00  0.00    +0.000 C 
ATOM      9  C   UNL     1       5.904   4.445  14.079  0.00  0.00    +0.000 C 
ENDBRANCH   2   9
ENDBRANCH   1   4
BRANCH   1  10
ATOM     10  C   UNL     1       7.090   5.536  18.386  0.00  0.00    +0.000 C 
BRANCH  10  11
ATOM     11  C   UNL     1       5.679   5.119  18.732  0.00  0.00    +0.000 C 
ATOM     12  O   UNL     1       5.473   4.108  19.397  0.00  0.00    +0.000 OA
ATOM     13  N   UNL     1       4.689   5.970  18.286  0.00  0.00    +0.000 N 
ATOM     14  H   UNL     1       4.966   6.801  17.778  0.00  0.00    +0.000 HD
BRANCH  13  15
ATOM     15  C   UNL     1       3.248   5.762  18.535  0.00  0.00    +0.000 C 
ATOM     16  C   UNL     1       2.721   4.568  17.720  0.00  0.00    +0.000 C 
ATOM     17  C   UNL     1       3.027   5.464  20.031  0.00  0.00    +0.000 C 
ATOM     18  C   UNL     1       2.443   7.025  18.185  0.00  0.00    +0.000 C 
ENDBRANCH  13  15
ENDBRANCH  10  11
ENDBRANCH   1  10
TORSDOF 5
ENDMDL
MODEL 9
REMARK VINA RESULT:      -5.9      1.668      2.383
REMARK  Name = 
REMARK  9 active torsions:
REMARK  status: ('A' for Active; 'I' for Inactive)
REMARK    1  A    between atoms: C_1  and  C_2
REMARK    2  A    between atoms: C_4  and  C_5
REMARK    3  A    between atoms: N_7  and  C_8
REMARK    4  A    between atoms: C_8  and  C_9
REMARK    5  A    between atoms: C_9  and  C_10
REMARK    6  A    between atoms: N_12  and  C_13
REMARK    7  A    between atoms: C_13  and  C_14
REMARK    8  A    between atoms: C_13  and  C_15
REMARK    9  A    between atoms: C_13  and  C_16
REMARK                            x       y       z     vdW  Elec       q    Type
REMARK                         _______ _______ _______ _____ _____    ______ ____
ROOT
ATOM      1  C   UNL     1       5.380   6.257  16.012  0.00  0.00    +0.000 C 
ENDROOT
BRANCH   1   4
ATOM      2  C   UNL     1       6.457   4.723  14.408  0.00  0.00    +0.000 C 
ATOM      3  O   UNL     1       7.559   5.233  14.543  0.00  0.00    +0.000 OA
ATOM      4  N   UNL     1       5.328   5.159  15.062  0.00  0.00    +0.000 N 
ATOM      5  H   UNL     1       4.446   4.690  14.905  0.00  0.00    +0.000 HD
BRANCH   2   9
ATOM      6  C   UNL     1       7.239   2.445  11.348  0.00  0.00    +0.000 C 
ATOM      7  C   UNL     1       6.650   3.618  12.054  0.00  0.00    +0.000 C 
ATOM      8  C   UNL     1       5.194   3.602  12.433  0.00  0.00    +0.000 C 
ATOM      9  C   UNL     1       6.250   3.540  13.516  0.00  0.00    +0.000 C 
ENDBRANCH   2   9
ENDBRANCH   1   4
BRANCH   1  10
ATOM     10  C   UNL     1       5.594   5.785  17.442  0.00  0.00    +0.000 C 
BRANCH  10  11
ATOM     11  C   UNL     1       4.510   4.800  17.815  0.00  0.00    +0.000 C 
ATOM     12  O   UNL     1       4.461   3.695  17.284  0.00  0.00    +0.000 OA
ATOM     13  N   UNL     1       3.643   5.226  18.801  0.00  0.00    +0.000 N 
ATOM     14  H   UNL     1       3.793   6.143  19.205  0.00  0.00    +0.000 HD
BRANCH  13  15
ATOM     15  C   UNL     1       2.530   4.412  19.329  0.00  0.00    +0.000 C 
ATOM     16  C   UNL     1       1.538   4.053  18.209  0.00  0.00    +0.000 C 
ATOM     17  C   UNL     1       3.091   3.104  19.919  0.00  0.00    +0.000 C 
ATOM     18  C   UNL     1       1.794   5.156  20.457  0.00  0.00    +0.000 C 
ENDBRANCH  13  15
ENDBRANCH  10  11
ENDBRANCH   1  10
TORSDOF 5
ENDMDL
