MODEL 1
REMARK VINA RESULT:      -9.2      0.000      0.000
REMARK  Name = 
REMARK  5 active torsions:
REMARK  status: ('A' for Active; 'I' for Inactive)
REMARK    1  A    between atoms: C_2  and  C_24
REMARK    2  A    between atoms: N_3  and  N_4
REMARK    3  A    between atoms: C_8  and  C_9
REMARK    4  A    between atoms: C_16  and  C_17
REMARK    5  A    between atoms: C_27  and  C_28
REMARK                            x       y       z     vdW  Elec       q    Type
REMARK                         _______ _______ _______ _____ _____    ______ ____
ROOT
ATOM      1  N   UNL     1      -1.130  11.675  21.275  0.00  0.00    +0.000 N 
ATOM      2  C   UNL     1      -1.737  11.667  22.521  0.00  0.00    +0.000 C 
ATOM      3  O   UNL     1      -1.535  10.838  23.400  0.00  0.00    +0.000 OA
ATOM      4  C   UNL     1      -2.788  12.724  22.574  0.00  0.00    +0.000 C 
ATOM      5  C   UNL     1      -3.779  12.635  23.472  0.00  0.00    +0.000 C 
ATOM      6  S   UNL     1      -2.705  13.785  21.212  0.00  0.00    +0.000 S 
ATOM      7  C   UNL     1      -1.588  12.649  20.293  0.00  0.00    +0.000 C 
ENDROOT
BRANCH   7   8
ATOM      8  C   UNL     1      -2.303  12.086  19.072  0.00  0.00    +0.000 A 
ATOM      9  C   UNL     1      -1.548  11.778  17.925  0.00  0.00    +0.000 A 
ATOM     10  C   UNL     1      -2.163  11.314  16.760  0.00  0.00    +0.000 A 
ATOM     11  C   UNL     1      -3.544  11.156  16.726  0.00  0.00    +0.000 A 
ATOM     12 CL   UNL     1      -4.307  10.613  15.284  0.00  0.00    +0.000 Cl
ATOM     13  C   UNL     1      -4.313  11.442  17.852  0.00  0.00    +0.000 A 
ATOM     14  C   UNL     1      -3.696  11.894  19.024  0.00  0.00    +0.000 A 
ENDBRANCH   7   8
BRANCH   5  15
ATOM     15  C   UNL     1      -5.066  13.326  23.338  0.00  0.00    +0.000 A 
ATOM     16  C   UNL     1      -6.060  12.706  22.569  0.00  0.00    +0.000 A 
ATOM     17  C   UNL     1      -7.281  13.338  22.346  0.00  0.00    +0.000 A 
ATOM     18  C   UNL     1      -7.518  14.595  22.897  0.00  0.00    +0.000 A 
ATOM     19  C   UNL     1      -6.535  15.215  23.673  0.00  0.00    +0.000 A 
ATOM     20  C   UNL     1      -5.307  14.583  23.892  0.00  0.00    +0.000 A 
ENDBRANCH   5  15
BRANCH   1  23
ATOM     21  O   UNL     1       1.438  11.577  20.086  0.00  0.00    +0.000 OA
ATOM     22  C   UNL     1       0.794  10.551  20.273  0.00  0.00    +0.000 C 
ATOM     23  N   UNL     1      -0.462  10.506  20.850  0.00  0.00    +0.000 N 
ATOM     24  H   UNL     1      -0.953   9.635  21.032  0.00  0.00    +0.000 HD
BRANCH  22  25
ATOM     25  C   UNL     1       1.339   9.247  19.804  0.00  0.00    +0.000 A 
ATOM     26  C   UNL     1       1.511   8.152  20.652  0.00  0.00    +0.000 A 
ATOM     27  C   UNL     1       2.058   6.959  20.155  0.00  0.00    +0.000 A 
ATOM     28  C   UNL     1       2.435   6.816  18.804  0.00  0.00    +0.000 A 
ATOM     29  C   UNL     1       2.235   7.931  17.969  0.00  0.00    +0.000 A 
ATOM     30  C   UNL     1       1.708   9.132  18.461  0.00  0.00    +0.000 A 
BRANCH  28  31
ATOM     31  C   UNL     1       3.033   5.556  18.293  0.00  0.00    +0.000 A 
ATOM     32  C   UNL     1       4.426   5.350  18.287  0.00  0.00    +0.000 A 
ATOM     33  C   UNL     1       4.993   4.176  17.779  0.00  0.00    +0.000 A 
ATOM     34  C   UNL     1       4.179   3.167  17.279  0.00  0.00    +0.000 A 
ATOM     35  C   UNL     1       2.798   3.334  17.282  0.00  0.00    +0.000 A 
ATOM     36  C   UNL     1       2.235   4.516  17.778  0.00  0.00    +0.000 A 
ENDBRANCH  28  31
ENDBRANCH  22  25
ENDBRANCH   1  23
TORSDOF 5
ENDMDL
MODEL 2
REMARK VINA RESULT:      -9.1      0.348      1.193
REMARK  Name = 
REMARK  5 active torsions:
REMARK  status: ('A' for Active; 'I' for Inactive)
REMARK    1  A    between atoms: C_2  and  C_24
REMARK    2  A    between atoms: N_3  and  N_4
REMARK    3  A    between atoms: C_8  and  C_9
REMARK    4  A    between atoms: C_16  and  C_17
REMARK    5  A    between atoms: C_27  and  C_28
REMARK                            x       y       z     vdW  Elec       q    Type
REMARK                         _______ _______ _______ _____ _____    ______ ____
ROOT
ATOM      1  N   UNL     1      -0.965  11.812  21.329  0.00  0.00    +0.000 N 
ATOM      2  C   UNL     1      -1.502  11.831  22.607  0.00  0.00    +0.000 C 
ATOM      3  O   UNL     1      -1.261  11.015  23.487  0.00  0.00    +0.000 OA
ATOM      4  C   UNL     1      -2.538  12.900  22.699  0.00  0.00    +0.000 C 
ATOM      5  C   UNL     1      -3.479  12.837  23.651  0.00  0.00    +0.000 C 
ATOM      6  S   UNL     1      -2.519  13.938  21.316  0.00  0.00    +0.000 S 
ATOM      7  C   UNL     1      -1.466  12.775  20.357  0.00  0.00    +0.000 C 
ENDROOT
BRANCH   7   8
ATOM      8  C   UNL     1      -2.252  12.199  19.187  0.00  0.00    +0.000 A 
ATOM      9  C   UNL     1      -1.561  11.843  18.014  0.00  0.00    +0.000 A 
ATOM     10  C   UNL     1      -2.243  11.365  16.892  0.00  0.00    +0.000 A 
ATOM     11  C   UNL     1      -3.628  11.242  16.928  0.00  0.00    +0.000 A 
ATOM     12 CL   UNL     1      -4.472  10.682  15.539  0.00  0.00    +0.000 Cl
ATOM     13  C   UNL     1      -4.334  11.577  18.081  0.00  0.00    +0.000 A 
ATOM     14  C   UNL     1      -3.650  12.043  19.210  0.00  0.00    +0.000 A 
ENDBRANCH   7   8
BRANCH   5  15
ATOM     15  C   UNL     1      -4.764  13.540  23.576  0.00  0.00    +0.000 A 
ATOM     16  C   UNL     1      -4.799  14.878  23.992  0.00  0.00    +0.000 A 
ATOM     17  C   UNL     1      -5.999  15.584  24.011  0.00  0.00    +0.000 A 
ATOM     18  C   UNL     1      -7.175  14.957  23.605  0.00  0.00    +0.000 A 
ATOM     19  C   UNL     1      -7.147  13.627  23.179  0.00  0.00    +0.000 A 
ATOM     20  C   UNL     1      -5.942  12.916  23.167  0.00  0.00    +0.000 A 
ENDBRANCH   5  15
BRANCH   1  23
ATOM     21  O   UNL     1       1.503  11.671  19.948  0.00  0.00    +0.000 OA
ATOM     22  C   UNL     1       0.875  10.652  20.215  0.00  0.00    +0.000 C 
ATOM     23  N   UNL     1      -0.332  10.629  20.888  0.00  0.00    +0.000 N 
ATOM     24  H   UNL     1      -0.809   9.765  21.133  0.00  0.00    +0.000 HD
BRANCH  22  25
ATOM     25  C   UNL     1       1.380   9.333  19.743  0.00  0.00    +0.000 A 
ATOM     26  C   UNL     1       1.522   8.233  20.591  0.00  0.00    +0.000 A 
ATOM     27  C   UNL     1       2.033   7.025  20.091  0.00  0.00    +0.000 A 
ATOM     28  C   UNL     1       2.403   6.873  18.740  0.00  0.00    +0.000 A 
ATOM     29  C   UNL     1       2.234   7.994  17.906  0.00  0.00    +0.000 A 
ATOM     30  C   UNL     1       1.743   9.209  18.400  0.00  0.00    +0.000 A 
BRANCH  28  31
ATOM     31  C   UNL     1       2.963   5.595  18.226  0.00  0.00    +0.000 A 
ATOM     32  C   UNL     1       2.131   4.542  17.805  0.00  0.00    +0.000 A 
ATOM     33  C   UNL     1       2.656   3.328  17.347  0.00  0.00    +0.000 A 
ATOM     34  C   UNL     1       4.032   3.142  17.284  0.00  0.00    +0.000 A 
ATOM     35  C   UNL     1       4.882   4.169  17.681  0.00  0.00    +0.000 A 
ATOM     36  C   UNL     1       4.352   5.377  18.150  0.00  0.00    +0.000 A 
ENDBRANCH  28  31
ENDBRANCH  22  25
ENDBRANCH   1  23
TORSDOF 5
ENDMDL
MODEL 3
REMARK VINA RESULT:      -9.1      0.292      1.174
REMARK  Name = 
REMARK  5 active torsions:
REMARK  status: ('A' for Active; 'I' for Inactive)
REMARK    1  A    between atoms: C_2  and  C_24
REMARK    2  A    between atoms: N_3  and  N_4
REMARK    3  A    between atoms: C_8  and  C_9
REMARK    4  A    between atoms: C_16  and  C_17
REMARK    5  A    between atoms: C_27  and  C_28
REMARK                            x       y       z     vdW  Elec       q    Type
REMARK                         _______ _______ _______ _____ _____    ______ ____
ROOT
ATOM      1  N   UNL     1      -1.062  11.727  21.282  0.00  0.00    +0.000 N 
ATOM      2  C   UNL     1      -1.621  11.685  22.550  0.00  0.00    +0.000 C 
ATOM      3  O   UNL     1      -1.373  10.844  23.405  0.00  0.00    +0.000 OA
ATOM      4  C   UNL     1      -2.687  12.723  22.662  0.00  0.00    +0.000 C 
ATOM      5  C   UNL     1      -3.642  12.600  23.594  0.00  0.00    +0.000 C 
ATOM      6  S   UNL     1      -2.674  13.809  21.318  0.00  0.00    +0.000 S 
ATOM      7  C   UNL     1      -1.573  12.710  20.337  0.00  0.00    +0.000 C 
ENDROOT
BRANCH   7   8
ATOM      8  C   UNL     1      -2.324  12.156  19.133  0.00  0.00    +0.000 A 
ATOM      9  C   UNL     1      -1.598  11.820  17.975  0.00  0.00    +0.000 A 
ATOM     10  C   UNL     1      -2.244  11.363  16.825  0.00  0.00    +0.000 A 
ATOM     11  C   UNL     1      -3.630  11.242  16.816  0.00  0.00    +0.000 A 
ATOM     12 CL   UNL     1      -4.432  10.708  15.392  0.00  0.00    +0.000 Cl
ATOM     13  C   UNL     1      -4.371  11.557  17.953  0.00  0.00    +0.000 A 
ATOM     14  C   UNL     1      -3.722  12.002  19.110  0.00  0.00    +0.000 A 
ENDBRANCH   7   8
BRANCH   5  15
ATOM     15  C   UNL     1      -4.944  13.271  23.522  0.00  0.00    +0.000 A 
ATOM     16  C   UNL     1      -4.995  14.630  23.860  0.00  0.00    +0.000 A 
ATOM     17  C   UNL     1      -6.210  15.311  23.878  0.00  0.00    +0.000 A 
ATOM     18  C   UNL     1      -7.384  14.637  23.549  0.00  0.00    +0.000 A 
ATOM     19  C   UNL     1      -7.340  13.285  23.201  0.00  0.00    +0.000 A 
ATOM     20  C   UNL     1      -6.121  12.600  23.190  0.00  0.00    +0.000 A 
ENDBRANCH   5  15
BRANCH   1  23
ATOM     21  O   UNL     1       1.449  11.698  19.974  0.00  0.00    +0.000 OA
ATOM     22  C   UNL     1       0.836  10.656  20.177  0.00  0.00    +0.000 C 
ATOM     23  N   UNL     1      -0.390  10.578  20.811  0.00  0.00    +0.000 N 
ATOM     24  H   UNL     1      -0.855   9.694  21.003  0.00  0.00    +0.000 HD
BRANCH  22  25
ATOM     25  C   UNL     1       1.384   9.370  19.665  0.00  0.00    +0.000 A 
ATOM     26  C   UNL     1       1.767   9.189  18.335  0.00  0.00    +0.000 A 
ATOM     27  C   UNL     1       2.248   7.941  17.908  0.00  0.00    +0.000 A 
ATOM     28  C   UNL     1       2.375   6.848  18.789  0.00  0.00    +0.000 A 
ATOM     29  C   UNL     1       1.996   7.064  20.126  0.00  0.00    +0.000 A 
ATOM     30  C   UNL     1       1.497   8.300  20.558  0.00  0.00    +0.000 A 
BRANCH  28  31
ATOM     31  C   UNL     1       2.865   5.525  18.321  0.00  0.00    +0.000 A 
ATOM     32  C   UNL     1       4.240   5.246  18.210  0.00  0.00    +0.000 A 
ATOM     33  C   UNL     1       4.704   4.011  17.742  0.00  0.00    +0.000 A 
ATOM     34  C   UNL     1       3.801   3.015  17.389  0.00  0.00    +0.000 A 
ATOM     35  C   UNL     1       2.436   3.255  17.500  0.00  0.00    +0.000 A 
ATOM     36  C   UNL     1       1.976   4.496  17.955  0.00  0.00    +0.000 A 
ENDBRANCH  28  31
ENDBRANCH  22  25
ENDBRANCH   1  23
TORSDOF 5
ENDMDL
MODEL 4
REMARK VINA RESULT:      -9.0      0.322      1.143
REMARK  Name = 
REMARK  5 active torsions:
REMARK  status: ('A' for Active; 'I' for Inactive)
REMARK    1  A    between atoms: C_2  and  C_24
REMARK    2  A    between atoms: N_3  and  N_4
REMARK    3  A    between atoms: C_8  and  C_9
REMARK    4  A    between atoms: C_16  and  C_17
REMARK    5  A    between atoms: C_27  and  C_28
REMARK                            x       y       z     vdW  Elec       q    Type
REMARK                         _______ _______ _______ _____ _____    ______ ____
ROOT
ATOM      1  N   UNL     1      -1.064  11.668  21.239  0.00  0.00    +0.000 N 
ATOM      2  C   UNL     1      -1.639  11.642  22.500  0.00  0.00    +0.000 C 
ATOM      3  O   UNL     1      -1.412  10.803  23.362  0.00  0.00    +0.000 OA
ATOM      4  C   UNL     1      -2.693  12.694  22.593  0.00  0.00    +0.000 C 
ATOM      5  C   UNL     1      -3.660  12.589  23.514  0.00  0.00    +0.000 C 
ATOM      6  S   UNL     1      -2.648  13.772  21.243  0.00  0.00    +0.000 S 
ATOM      7  C   UNL     1      -1.550  12.652  20.281  0.00  0.00    +0.000 C 
ENDROOT
BRANCH   7   8
ATOM      8  C   UNL     1      -2.294  12.101  19.072  0.00  0.00    +0.000 A 
ATOM      9  C   UNL     1      -1.557  11.736  17.930  0.00  0.00    +0.000 A 
ATOM     10  C   UNL     1      -2.196  11.281  16.774  0.00  0.00    +0.000 A 
ATOM     11  C   UNL     1      -3.583  11.189  16.745  0.00  0.00    +0.000 A 
ATOM     12 CL   UNL     1      -4.374  10.656  15.314  0.00  0.00    +0.000 Cl
ATOM     13  C   UNL     1      -4.335  11.533  17.866  0.00  0.00    +0.000 A 
ATOM     14  C   UNL     1      -3.695  11.977  19.029  0.00  0.00    +0.000 A 
ENDBRANCH   7   8
BRANCH   5  15
ATOM     15  C   UNL     1      -4.952  13.277  23.422  0.00  0.00    +0.000 A 
ATOM     16  C   UNL     1      -5.986  12.630  22.731  0.00  0.00    +0.000 A 
ATOM     17  C   UNL     1      -7.217  13.255  22.547  0.00  0.00    +0.000 A 
ATOM     18  C   UNL     1      -7.425  14.533  23.062  0.00  0.00    +0.000 A 
ATOM     19  C   UNL     1      -6.403  15.181  23.760  0.00  0.00    +0.000 A 
ATOM     20  C   UNL     1      -5.165  14.555  23.938  0.00  0.00    +0.000 A 
ENDBRANCH   5  15
BRANCH   1  23
ATOM     21  O   UNL     1       1.466  11.597  19.970  0.00  0.00    +0.000 OA
ATOM     22  C   UNL     1       0.835  10.564  20.168  0.00  0.00    +0.000 C 
ATOM     23  N   UNL     1      -0.403  10.507  20.783  0.00  0.00    +0.000 N 
ATOM     24  H   UNL     1      -0.883   9.632  20.971  0.00  0.00    +0.000 HD
BRANCH  22  25
ATOM     25  C   UNL     1       1.372   9.268  19.669  0.00  0.00    +0.000 A 
ATOM     26  C   UNL     1       1.769   9.075  18.345  0.00  0.00    +0.000 A 
ATOM     27  C   UNL     1       2.238   7.819  17.930  0.00  0.00    +0.000 A 
ATOM     28  C   UNL     1       2.339   6.729  18.818  0.00  0.00    +0.000 A 
ATOM     29  C   UNL     1       1.946   6.957  20.150  0.00  0.00    +0.000 A 
ATOM     30  C   UNL     1       1.458   8.202  20.568  0.00  0.00    +0.000 A 
BRANCH  28  31
ATOM     31  C   UNL     1       2.816   5.397  18.363  0.00  0.00    +0.000 A 
ATOM     32  C   UNL     1       2.061   4.229  18.580  0.00  0.00    +0.000 A 
ATOM     33  C   UNL     1       2.522   2.970  18.178  0.00  0.00    +0.000 A 
ATOM     34  C   UNL     1       3.747   2.849  17.532  0.00  0.00    +0.000 A 
ATOM     35  C   UNL     1       4.511   3.986  17.291  0.00  0.00    +0.000 A 
ATOM     36  C   UNL     1       4.053   5.241  17.707  0.00  0.00    +0.000 A 
ENDBRANCH  28  31
ENDBRANCH  22  25
ENDBRANCH   1  23
TORSDOF 5
ENDMDL
MODEL 5
REMARK VINA RESULT:      -9.0      0.298      1.188
REMARK  Name = 
REMARK  5 active torsions:
REMARK  status: ('A' for Active; 'I' for Inactive)
REMARK    1  A    between atoms: C_2  and  C_24
REMARK    2  A    between atoms: N_3  and  N_4
REMARK    3  A    between atoms: C_8  and  C_9
REMARK    4  A    between atoms: C_16  and  C_17
REMARK    5  A    between atoms: C_27  and  C_28
REMARK                            x       y       z     vdW  Elec       q    Type
REMARK                         _______ _______ _______ _____ _____    ______ ____
ROOT
ATOM      1  N   UNL     1      -1.181  11.700  21.346  0.00  0.00    +0.000 N 
ATOM      2  C   UNL     1      -1.820  11.663  22.576  0.00  0.00    +0.000 C 
ATOM      3  O   UNL     1      -1.682  10.785  23.418  0.00  0.00    +0.000 OA
ATOM      4  C   UNL     1      -2.820  12.767  22.653  0.00  0.00    +0.000 C 
ATOM      5  C   UNL     1      -3.838  12.685  23.522  0.00  0.00    +0.000 C 
ATOM      6  S   UNL     1      -2.650  13.886  21.347  0.00  0.00    +0.000 S 
ATOM      7  C   UNL     1      -1.565  12.741  20.401  0.00  0.00    +0.000 C 
ENDROOT
BRANCH   7   8
ATOM      8  C   UNL     1      -2.273  12.271  19.138  0.00  0.00    +0.000 A 
ATOM      9  C   UNL     1      -3.671  12.110  19.163  0.00  0.00    +0.000 A 
ATOM     10  C   UNL     1      -4.362  11.626  18.049  0.00  0.00    +0.000 A 
ATOM     11  C   UNL     1      -3.660  11.292  16.895  0.00  0.00    +0.000 A 
ATOM     12 CL   UNL     1      -4.504  10.669  15.533  0.00  0.00    +0.000 Cl
ATOM     13  C   UNL     1      -2.277  11.454  16.841  0.00  0.00    +0.000 A 
ATOM     14  C   UNL     1      -1.587  11.951  17.952  0.00  0.00    +0.000 A 
ENDBRANCH   7   8
BRANCH   5  15
ATOM     15  C   UNL     1      -5.086  13.445  23.390  0.00  0.00    +0.000 A 
ATOM     16  C   UNL     1      -6.114  12.879  22.625  0.00  0.00    +0.000 A 
ATOM     17  C   UNL     1      -7.300  13.576  22.403  0.00  0.00    +0.000 A 
ATOM     18  C   UNL     1      -7.467  14.845  22.953  0.00  0.00    +0.000 A 
ATOM     19  C   UNL     1      -6.450  15.411  23.726  0.00  0.00    +0.000 A 
ATOM     20  C   UNL     1      -5.258  14.714  23.943  0.00  0.00    +0.000 A 
ENDBRANCH   5  15
BRANCH   1  23
ATOM     21  O   UNL     1       1.610  11.286  21.109  0.00  0.00    +0.000 OA
ATOM     22  C   UNL     1       0.817  10.406  20.794  0.00  0.00    +0.000 C 
ATOM     23  N   UNL     1      -0.558  10.521  20.882  0.00  0.00    +0.000 N 
ATOM     24  H   UNL     1      -1.190   9.758  20.654  0.00  0.00    +0.000 HD
BRANCH  22  25
ATOM     25  C   UNL     1       1.325   9.132  20.213  0.00  0.00    +0.000 A 
ATOM     26  C   UNL     1       1.494   7.971  20.970  0.00  0.00    +0.000 A 
ATOM     27  C   UNL     1       2.006   6.812  20.368  0.00  0.00    +0.000 A 
ATOM     28  C   UNL     1       2.351   6.768  19.002  0.00  0.00    +0.000 A 
ATOM     29  C   UNL     1       2.155   7.948  18.261  0.00  0.00    +0.000 A 
ATOM     30  C   UNL     1       1.662   9.116  18.857  0.00  0.00    +0.000 A 
BRANCH  28  31
ATOM     31  C   UNL     1       2.913   5.541  18.381  0.00  0.00    +0.000 A 
ATOM     32  C   UNL     1       2.082   4.514  17.893  0.00  0.00    +0.000 A 
ATOM     33  C   UNL     1       2.610   3.345  17.333  0.00  0.00    +0.000 A 
ATOM     34  C   UNL     1       3.986   3.179  17.232  0.00  0.00    +0.000 A 
ATOM     35  C   UNL     1       4.834   4.181  17.692  0.00  0.00    +0.000 A 
ATOM     36  C   UNL     1       4.302   5.343  18.264  0.00  0.00    +0.000 A 
ENDBRANCH  28  31
ENDBRANCH  22  25
ENDBRANCH   1  23
TORSDOF 5
ENDMDL
MODEL 6
REMARK VINA RESULT:      -8.9      0.826      1.777
REMARK  Name = 
REMARK  5 active torsions:
REMARK  status: ('A' for Active; 'I' for Inactive)
REMARK    1  A    between atoms: C_2  and  C_24
REMARK    2  A    between atoms: N_3  and  N_4
REMARK    3  A    between atoms: C_8  and  C_9
REMARK    4  A    between atoms: C_16  and  C_17
REMARK    5  A    between atoms: C_27  and  C_28
REMARK                            x       y       z     vdW  Elec       q    Type
REMARK                         _______ _______ _______ _____ _____    ______ ____
ROOT
ATOM      1  N   UNL     1      -0.846  11.276  21.251  0.00  0.00    +0.000 N 
ATOM      2  C   UNL     1      -1.519  11.342  22.461  0.00  0.00    +0.000 C 
ATOM      3  O   UNL     1      -1.425  10.523  23.367  0.00  0.00    +0.000 OA
ATOM      4  C   UNL     1      -2.495  12.470  22.431  0.00  0.00    +0.000 C 
ATOM      5  C   UNL     1      -3.538  12.472  23.273  0.00  0.00    +0.000 C 
ATOM      6  S   UNL     1      -2.262  13.488  21.054  0.00  0.00    +0.000 S 
ATOM      7  C   UNL     1      -1.178  12.255  20.224  0.00  0.00    +0.000 C 
ENDROOT
BRANCH   7   8
ATOM      8  C   UNL     1      -1.863  11.711  18.977  0.00  0.00    +0.000 A 
ATOM      9  C   UNL     1      -3.241  11.935  18.806  0.00  0.00    +0.000 A 
ATOM     10  C   UNL     1      -3.928  11.409  17.710  0.00  0.00    +0.000 A 
ATOM     11  C   UNL     1      -3.243  10.645  16.771  0.00  0.00    +0.000 A 
ATOM     12 CL   UNL     1      -4.092   9.971  15.435  0.00  0.00    +0.000 Cl
ATOM     13  C   UNL     1      -1.876  10.418  16.910  0.00  0.00    +0.000 A 
ATOM     14  C   UNL     1      -1.185  10.957  18.001  0.00  0.00    +0.000 A 
ENDBRANCH   7   8
BRANCH   5  15
ATOM     15  C   UNL     1      -4.763  13.247  23.051  0.00  0.00    +0.000 A 
ATOM     16  C   UNL     1      -4.924  14.432  23.782  0.00  0.00    +0.000 A 
ATOM     17  C   UNL     1      -6.093  15.181  23.670  0.00  0.00    +0.000 A 
ATOM     18  C   UNL     1      -7.109  14.751  22.819  0.00  0.00    +0.000 A 
ATOM     19  C   UNL     1      -6.952  13.576  22.080  0.00  0.00    +0.000 A 
ATOM     20  C   UNL     1      -5.780  12.821  22.198  0.00  0.00    +0.000 A 
ENDBRANCH   5  15
BRANCH   1  23
ATOM     21  O   UNL     1       1.686  10.987  20.017  0.00  0.00    +0.000 OA
ATOM     22  C   UNL     1       1.004  10.005  20.285  0.00  0.00    +0.000 C 
ATOM     23  N   UNL     1      -0.239  10.054  20.890  0.00  0.00    +0.000 N 
ATOM     24  H   UNL     1      -0.762   9.219  21.139  0.00  0.00    +0.000 HD
BRANCH  22  25
ATOM     25  C   UNL     1       1.480   8.650  19.891  0.00  0.00    +0.000 A 
ATOM     26  C   UNL     1       2.019   8.376  18.633  0.00  0.00    +0.000 A 
ATOM     27  C   UNL     1       2.422   7.070  18.312  0.00  0.00    +0.000 A 
ATOM     28  C   UNL     1       2.313   6.008  19.232  0.00  0.00    +0.000 A 
ATOM     29  C   UNL     1       1.780   6.317  20.497  0.00  0.00    +0.000 A 
ATOM     30  C   UNL     1       1.358   7.613  20.820  0.00  0.00    +0.000 A 
BRANCH  28  31
ATOM     31  C   UNL     1       2.722   4.624  18.875  0.00  0.00    +0.000 A 
ATOM     32  C   UNL     1       2.114   3.927  17.814  0.00  0.00    +0.000 A 
ATOM     33  C   UNL     1       2.478   2.614  17.494  0.00  0.00    +0.000 A 
ATOM     34  C   UNL     1       3.473   1.969  18.218  0.00  0.00    +0.000 A 
ATOM     35  C   UNL     1       4.103   2.636  19.264  0.00  0.00    +0.000 A 
ATOM     36  C   UNL     1       3.726   3.944  19.590  0.00  0.00    +0.000 A 
ENDBRANCH  28  31
ENDBRANCH  22  25
ENDBRANCH   1  23
TORSDOF 5
ENDMDL
MODEL 7
REMARK VINA RESULT:      -8.6      1.135      1.657
REMARK  Name = 
REMARK  5 active torsions:
REMARK  status: ('A' for Active; 'I' for Inactive)
REMARK    1  A    between atoms: C_2  and  C_24
REMARK    2  A    between atoms: N_3  and  N_4
REMARK    3  A    between atoms: C_8  and  C_9
REMARK    4  A    between atoms: C_16  and  C_17
REMARK    5  A    between atoms: C_27  and  C_28
REMARK                            x       y       z     vdW  Elec       q    Type
REMARK                         _______ _______ _______ _____ _____    ______ ____
ROOT
ATOM      1  N   UNL     1      -0.743  11.064  21.316  0.00  0.00    +0.000 N 
ATOM      2  C   UNL     1      -1.402  11.186  22.529  0.00  0.00    +0.000 C 
ATOM      3  O   UNL     1      -1.387  10.355  23.428  0.00  0.00    +0.000 OA
ATOM      4  C   UNL     1      -2.259  12.407  22.513  0.00  0.00    +0.000 C 
ATOM      5  C   UNL     1      -3.293  12.507  23.360  0.00  0.00    +0.000 C 
ATOM      6  S   UNL     1      -1.931  13.408  21.143  0.00  0.00    +0.000 S 
ATOM      7  C   UNL     1      -0.980  12.079  20.298  0.00  0.00    +0.000 C 
ENDROOT
BRANCH   7   8
ATOM      8  C   UNL     1      -1.721  11.618  19.050  0.00  0.00    +0.000 A 
ATOM      9  C   UNL     1      -3.070  11.981  18.888  0.00  0.00    +0.000 A 
ATOM     10  C   UNL     1      -3.811  11.536  17.791  0.00  0.00    +0.000 A 
ATOM     11  C   UNL     1      -3.211  10.715  16.842  0.00  0.00    +0.000 A 
ATOM     12 CL   UNL     1      -4.128  10.141  15.506  0.00  0.00    +0.000 Cl
ATOM     13  C   UNL     1      -1.872  10.350  16.973  0.00  0.00    +0.000 A 
ATOM     14  C   UNL     1      -1.126  10.808  18.065  0.00  0.00    +0.000 A 
ENDBRANCH   7   8
BRANCH   5  15
ATOM     15  C   UNL     1      -4.435  13.403  23.151  0.00  0.00    +0.000 A 
ATOM     16  C   UNL     1      -4.487  14.578  23.913  0.00  0.00    +0.000 A 
ATOM     17  C   UNL     1      -5.577  15.440  23.814  0.00  0.00    +0.000 A 
ATOM     18  C   UNL     1      -6.621  15.135  22.943  0.00  0.00    +0.000 A 
ATOM     19  C   UNL     1      -6.571  13.970  22.173  0.00  0.00    +0.000 A 
ATOM     20  C   UNL     1      -5.479  13.102  22.278  0.00  0.00    +0.000 A 
ENDBRANCH   5  15
BRANCH   1  23
ATOM     21  O   UNL     1       1.860  10.065  21.808  0.00  0.00    +0.000 OA
ATOM     22  C   UNL     1       1.029   9.384  21.220  0.00  0.00    +0.000 C 
ATOM     23  N   UNL     1      -0.264   9.790  20.942  0.00  0.00    +0.000 N 
ATOM     24  H   UNL     1      -0.944   9.185  20.489  0.00  0.00    +0.000 HD
BRANCH  22  25
ATOM     25  C   UNL     1       1.415   8.045  20.695  0.00  0.00    +0.000 A 
ATOM     26  C   UNL     1       1.145   6.859  21.380  0.00  0.00    +0.000 A 
ATOM     27  C   UNL     1       1.563   5.630  20.845  0.00  0.00    +0.000 A 
ATOM     28  C   UNL     1       2.245   5.544  19.615  0.00  0.00    +0.000 A 
ATOM     29  C   UNL     1       2.490   6.754  18.940  0.00  0.00    +0.000 A 
ATOM     30  C   UNL     1       2.094   7.987  19.475  0.00  0.00    +0.000 A 
BRANCH  28  31
ATOM     31  C   UNL     1       2.702   4.240  19.069  0.00  0.00    +0.000 A 
ATOM     32  C   UNL     1       3.815   3.565  19.605  0.00  0.00    +0.000 A 
ATOM     33  C   UNL     1       4.265   2.351  19.074  0.00  0.00    +0.000 A 
ATOM     34  C   UNL     1       3.600   1.770  18.001  0.00  0.00    +0.000 A 
ATOM     35  C   UNL     1       2.488   2.404  17.457  0.00  0.00    +0.000 A 
ATOM     36  C   UNL     1       2.050   3.625  17.983  0.00  0.00    +0.000 A 
ENDBRANCH  28  31
ENDBRANCH  22  25
ENDBRANCH   1  23
TORSDOF 5
ENDMDL
MODEL 8
REMARK VINA RESULT:      -7.9      1.169      1.439
REMARK  Name = 
REMARK  5 active torsions:
REMARK  status: ('A' for Active; 'I' for Inactive)
REMARK    1  A    between atoms: C_2  and  C_24
REMARK    2  A    between atoms: N_3  and  N_4
REMARK    3  A    between atoms: C_8  and  C_9
REMARK    4  A    between atoms: C_16  and  C_17
REMARK    5  A    between atoms: C_27  and  C_28
REMARK                            x       y       z     vdW  Elec       q    Type
REMARK                         _______ _______ _______ _____ _____    ______ ____
ROOT
ATOM      1  N   UNL     1      -0.242  12.319  20.919  0.00  0.00    +0.000 N 
ATOM      2  C   UNL     1      -0.563  12.222  22.264  0.00  0.00    +0.000 C 
ATOM      3  O   UNL     1      -0.032  11.462  23.064  0.00  0.00    +0.000 OA
ATOM      4  C   UNL     1      -1.758  13.065  22.556  0.00  0.00    +0.000 C 
ATOM      5  C   UNL     1      -2.506  12.809  23.639  0.00  0.00    +0.000 C 
ATOM      6  S   UNL     1      -2.160  14.097  21.229  0.00  0.00    +0.000 S 
ATOM      7  C   UNL     1      -1.067  13.172  20.074  0.00  0.00    +0.000 C 
ENDROOT
BRANCH   7   8
ATOM      8  C   UNL     1      -1.903  12.462  19.018  0.00  0.00    +0.000 A 
ATOM      9  C   UNL     1      -1.314  12.159  17.776  0.00  0.00    +0.000 A 
ATOM     10  C   UNL     1      -2.053  11.561  16.753  0.00  0.00    +0.000 A 
ATOM     11  C   UNL     1      -3.397  11.263  16.958  0.00  0.00    +0.000 A 
ATOM     12 CL   UNL     1      -4.317  10.554  15.690  0.00  0.00    +0.000 Cl
ATOM     13  C   UNL     1      -4.001  11.542  18.182  0.00  0.00    +0.000 A 
ATOM     14  C   UNL     1      -3.256  12.129  19.212  0.00  0.00    +0.000 A 
ENDBRANCH   7   8
BRANCH   5  15
ATOM     15  C   UNL     1      -3.898  13.246  23.790  0.00  0.00    +0.000 A 
ATOM     16  C   UNL     1      -4.863  12.263  24.049  0.00  0.00    +0.000 A 
ATOM     17  C   UNL     1      -6.212  12.600  24.137  0.00  0.00    +0.000 A 
ATOM     18  C   UNL     1      -6.604  13.927  23.973  0.00  0.00    +0.000 A 
ATOM     19  C   UNL     1      -5.647  14.913  23.725  0.00  0.00    +0.000 A 
ATOM     20  C   UNL     1      -4.293  14.574  23.630  0.00  0.00    +0.000 A 
ENDBRANCH   5  15
BRANCH   1  23
ATOM     21  O   UNL     1      -1.073   9.637  20.557  0.00  0.00    +0.000 OA
ATOM     22  C   UNL     1       0.045  10.000  20.206  0.00  0.00    +0.000 C 
ATOM     23  N   UNL     1       0.529  11.288  20.340  0.00  0.00    +0.000 N 
ATOM     24  H   UNL     1       1.445  11.569  20.001  0.00  0.00    +0.000 HD
BRANCH  22  25
ATOM     25  C   UNL     1       1.000   9.002  19.650  0.00  0.00    +0.000 A 
ATOM     26  C   UNL     1       1.472   7.916  20.390  0.00  0.00    +0.000 A 
ATOM     27  C   UNL     1       2.397   7.028  19.818  0.00  0.00    +0.000 A 
ATOM     28  C   UNL     1       2.865   7.185  18.498  0.00  0.00    +0.000 A 
ATOM     29  C   UNL     1       2.361   8.280  17.772  0.00  0.00    +0.000 A 
ATOM     30  C   UNL     1       1.453   9.182  18.340  0.00  0.00    +0.000 A 
BRANCH  28  31
ATOM     31  C   UNL     1       3.861   6.251  17.910  0.00  0.00    +0.000 A 
ATOM     32  C   UNL     1       4.030   4.945  18.407  0.00  0.00    +0.000 A 
ATOM     33  C   UNL     1       4.986   4.074  17.874  0.00  0.00    +0.000 A 
ATOM     34  C   UNL     1       5.789   4.482  16.815  0.00  0.00    +0.000 A 
ATOM     35  C   UNL     1       5.637   5.761  16.292  0.00  0.00    +0.000 A 
ATOM     36  C   UNL     1       4.689   6.635  16.837  0.00  0.00    +0.000 A 
ENDBRANCH  28  31
ENDBRANCH  22  25
ENDBRANCH   1  23
TORSDOF 5
ENDMDL
MODEL 9
REMARK VINA RESULT:      -7.9      2.464      3.306
REMARK  Name = 
REMARK  5 active torsions:
REMARK  status: ('A' for Active; 'I' for Inactive)
REMARK    1  A    between atoms: C_2  and  C_24
REMARK    2  A    between atoms: N_3  and  N_4
REMARK    3  A    between atoms: C_8  and  C_9
REMARK    4  A    between atoms: C_16  and  C_17
REMARK    5  A    between atoms: C_27  and  C_28
REMARK                            x       y       z     vdW  Elec       q    Type
REMARK                         _______ _______ _______ _____ _____    ______ ____
ROOT
ATOM      1  N   UNL     1       1.172  12.979  19.370  0.00  0.00    +0.000 N 
ATOM      2  C   UNL     1       1.628  13.549  20.548  0.00  0.00    +0.000 C 
ATOM      3  O   UNL     1       2.474  13.061  21.287  0.00  0.00    +0.000 OA
ATOM      4  C   UNL     1       0.823  14.764  20.863  0.00  0.00    +0.000 C 
ATOM      5  C   UNL     1       0.772  15.224  22.121  0.00  0.00    +0.000 C 
ATOM      6  S   UNL     1      -0.188  15.228  19.540  0.00  0.00    +0.000 S 
ATOM      7  C   UNL     1       0.059  13.620  18.681  0.00  0.00    +0.000 C 
ENDROOT
BRANCH   7   8
ATOM      8  C   UNL     1      -1.248  12.839  18.646  0.00  0.00    +0.000 A 
ATOM      9  C   UNL     1      -1.535  12.047  17.519  0.00  0.00    +0.000 A 
ATOM     10  C   UNL     1      -2.745  11.357  17.412  0.00  0.00    +0.000 A 
ATOM     11  C   UNL     1      -3.687  11.456  18.430  0.00  0.00    +0.000 A 
ATOM     12 CL   UNL     1      -5.189  10.631  18.287  0.00  0.00    +0.000 Cl
ATOM     13  C   UNL     1      -3.422  12.224  19.562  0.00  0.00    +0.000 A 
ATOM     14  C   UNL     1      -2.204  12.904  19.676  0.00  0.00    +0.000 A 
ENDBRANCH   7   8
BRANCH   5  15
ATOM     15  C   UNL     1      -0.293  16.095  22.629  0.00  0.00    +0.000 A 
ATOM     16  C   UNL     1      -1.456  15.483  23.115  0.00  0.00    +0.000 A 
ATOM     17  C   UNL     1      -2.533  16.252  23.549  0.00  0.00    +0.000 A 
ATOM     18  C   UNL     1      -2.450  17.642  23.507  0.00  0.00    +0.000 A 
ATOM     19  C   UNL     1      -1.289  18.259  23.034  0.00  0.00    +0.000 A 
ATOM     20  C   UNL     1      -0.211  17.486  22.591  0.00  0.00    +0.000 A 
ENDBRANCH   5  15
BRANCH   1  23
ATOM     21  O   UNL     1       0.177  10.794  20.870  0.00  0.00    +0.000 OA
ATOM     22  C   UNL     1       0.930  10.611  19.920  0.00  0.00    +0.000 C 
ATOM     23  N   UNL     1       1.457  11.617  19.132  0.00  0.00    +0.000 N 
ATOM     24  H   UNL     1       2.045  11.432  18.324  0.00  0.00    +0.000 HD
BRANCH  22  25
ATOM     25  C   UNL     1       1.384   9.230  19.597  0.00  0.00    +0.000 A 
ATOM     26  C   UNL     1       1.442   8.212  20.551  0.00  0.00    +0.000 A 
ATOM     27  C   UNL     1       1.909   6.939  20.190  0.00  0.00    +0.000 A 
ATOM     28  C   UNL     1       2.315   6.638  18.874  0.00  0.00    +0.000 A 
ATOM     29  C   UNL     1       2.231   7.678  17.931  0.00  0.00    +0.000 A 
ATOM     30  C   UNL     1       1.785   8.958  18.286  0.00  0.00    +0.000 A 
BRANCH  28  31
ATOM     31  C   UNL     1       2.827   5.292  18.508  0.00  0.00    +0.000 A 
ATOM     32  C   UNL     1       2.060   4.394  17.743  0.00  0.00    +0.000 A 
ATOM     33  C   UNL     1       2.529   3.115  17.420  0.00  0.00    +0.000 A 
ATOM     34  C   UNL     1       3.789   2.707  17.842  0.00  0.00    +0.000 A 
ATOM     35  C   UNL     1       4.578   3.576  18.588  0.00  0.00    +0.000 A 
ATOM     36  C   UNL     1       4.099   4.849  18.920  0.00  0.00    +0.000 A 
ENDBRANCH  28  31
ENDBRANCH  22  25
ENDBRANCH   1  23
TORSDOF 5
ENDMDL
