MODEL 1
REMARK VINA RESULT:      -9.0      0.000      0.000
REMARK  Name = 
REMARK  6 active torsions:
REMARK  status: ('A' for Active; 'I' for Inactive)
REMARK    1  A    between atoms: C_1  and  C_2
REMARK    2  A    between atoms: C_3  and  N_4
REMARK    3  A    between atoms: C_12  and  C_13
REMARK    4  A    between atoms: C_14  and  O_15
REMARK    5  A    between atoms: O_15  and  C_16
REMARK    6  A    between atoms: C_16  and  C_17
REMARK                            x       y       z     vdW  Elec       q    Type
REMARK                         _______ _______ _______ _____ _____    ______ ____
ROOT
ATOM      1  C   UNL     1       4.450   3.842  19.414  0.00  0.00    +0.000 C 
ATOM      2  C   UNL     1       3.770   5.152  19.148  0.00  0.00    +0.000 A 
ATOM      3  C   UNL     1       4.064   6.026  18.163  0.00  0.00    +0.000 A 
ATOM      4  O   UNL     1       3.430   7.264  18.039  0.00  0.00    +0.000 OA
ATOM      5  C   UNL     1       2.466   7.644  18.946  0.00  0.00    +0.000 A 
ATOM      6  C   UNL     1       1.847   8.904  18.802  0.00  0.00    +0.000 A 
ATOM      7  C   UNL     1       2.116   9.777  17.605  0.00  0.00    +0.000 C 
ATOM      8  C   UNL     1       0.919   9.344  19.778  0.00  0.00    +0.000 A 
ATOM      9  C   UNL     1       0.582   8.505  20.844  0.00  0.00    +0.000 A 
ATOM     10  C   UNL     1       1.154   7.238  20.944  0.00  0.00    +0.000 A 
ATOM     11  C   UNL     1       2.099   6.822  20.002  0.00  0.00    +0.000 A 
ATOM     12  C   UNL     1       2.718   5.501  20.128  0.00  0.00    +0.000 A 
ATOM     13  O   UNL     1       2.368   4.725  21.010  0.00  0.00    +0.000 OA
ENDROOT
BRANCH   3  14
ATOM     14  N   UNL     1       5.006   5.775  17.169  0.00  0.00    +0.000 N 
ATOM     15  C   UNL     1       4.742   4.900  16.012  0.00  0.00    +0.000 C 
ATOM     16  C   UNL     1       5.899   3.906  15.824  0.00  0.00    +0.000 C 
ATOM     17  O   UNL     1       7.167   4.578  15.721  0.00  0.00    +0.000 OA
ATOM     18  C   UNL     1       7.414   5.359  16.902  0.00  0.00    +0.000 C 
ATOM     19  C   UNL     1       6.326   6.425  17.103  0.00  0.00    +0.000 C 
ENDBRANCH   3  14
BRANCH   8  20
ATOM     20  O   UNL     1       0.442  10.625  19.630  0.00  0.00    +0.000 OA
BRANCH  20  21
ATOM     21  C   UNL     1      -0.917  10.858  20.000  0.00  0.00    +0.000 C 
BRANCH  21  22
ATOM     22  C   UNL     1      -1.818  10.847  18.777  0.00  0.00    +0.000 A 
ATOM     23  C   UNL     1      -1.408  10.082  17.666  0.00  0.00    +0.000 A 
ATOM     24  C   UNL     1      -2.216   9.967  16.541  0.00  0.00    +0.000 A 
ATOM     25  C   UNL     1      -3.456  10.591  16.506  0.00  0.00    +0.000 A 
ATOM     26  C   UNL     1      -3.907  11.347  17.599  0.00  0.00    +0.000 A 
ATOM     27  C   UNL     1      -5.187  11.926  17.558  0.00  0.00    +0.000 A 
ATOM     28  C   UNL     1      -5.673  12.665  18.632  0.00  0.00    +0.000 A 
ATOM     29  C   UNL     1      -4.869  12.865  19.746  0.00  0.00    +0.000 A 
ATOM     30  C   UNL     1      -3.589  12.301  19.798  0.00  0.00    +0.000 A 
ATOM     31  C   UNL     1      -3.086  11.505  18.741  0.00  0.00    +0.000 A 
ENDBRANCH  21  22
ENDBRANCH  20  21
ENDBRANCH   8  20
TORSDOF 4
ENDMDL
MODEL 2
REMARK VINA RESULT:      -8.9      3.251      9.865
REMARK  Name = 
REMARK  6 active torsions:
REMARK  status: ('A' for Active; 'I' for Inactive)
REMARK    1  A    between atoms: C_1  and  C_2
REMARK    2  A    between atoms: C_3  and  N_4
REMARK    3  A    between atoms: C_12  and  C_13
REMARK    4  A    between atoms: C_14  and  O_15
REMARK    5  A    between atoms: O_15  and  C_16
REMARK    6  A    between atoms: C_16  and  C_17
REMARK                            x       y       z     vdW  Elec       q    Type
REMARK                         _______ _______ _______ _____ _____    ______ ____
ROOT
ATOM      1  C   UNL     1      -3.551  13.409  20.368  0.00  0.00    +0.000 C 
ATOM      2  C   UNL     1      -2.483  12.363  20.481  0.00  0.00    +0.000 A 
ATOM      3  C   UNL     1      -1.805  12.022  21.596  0.00  0.00    +0.000 A 
ATOM      4  O   UNL     1      -0.766  11.088  21.591  0.00  0.00    +0.000 OA
ATOM      5  C   UNL     1      -0.386  10.479  20.416  0.00  0.00    +0.000 A 
ATOM      6  C   UNL     1       0.672   9.546  20.438  0.00  0.00    +0.000 A 
ATOM      7  C   UNL     1       1.299   9.102  21.733  0.00  0.00    +0.000 C 
ATOM      8  C   UNL     1       1.131   8.978  19.224  0.00  0.00    +0.000 A 
ATOM      9  C   UNL     1       0.496   9.304  18.022  0.00  0.00    +0.000 A 
ATOM     10  C   UNL     1      -0.588  10.180  18.019  0.00  0.00    +0.000 A 
ATOM     11  C   UNL     1      -1.013  10.769  19.213  0.00  0.00    +0.000 A 
ATOM     12  C   UNL     1      -2.134  11.711  19.200  0.00  0.00    +0.000 A 
ATOM     13  O   UNL     1      -2.751  11.938  18.164  0.00  0.00    +0.000 OA
ENDROOT
BRANCH   3  14
ATOM     14  N   UNL     1      -2.084  12.545  22.856  0.00  0.00    +0.000 N 
ATOM     15  C   UNL     1      -3.076  11.954  23.771  0.00  0.00    +0.000 C 
ATOM     16  C   UNL     1      -4.005  13.045  24.323  0.00  0.00    +0.000 C 
ATOM     17  O   UNL     1      -3.266  14.115  24.938  0.00  0.00    +0.000 OA
ATOM     18  C   UNL     1      -2.366  14.709  23.988  0.00  0.00    +0.000 C 
ATOM     19  C   UNL     1      -1.359  13.679  23.454  0.00  0.00    +0.000 C 
ENDBRANCH   3  14
BRANCH   8  20
ATOM     20  O   UNL     1       2.236   8.164  19.311  0.00  0.00    +0.000 OA
BRANCH  20  21
ATOM     21  C   UNL     1       2.953   7.912  18.103  0.00  0.00    +0.000 C 
BRANCH  21  22
ATOM     22  C   UNL     1       3.100   6.418  17.866  0.00  0.00    +0.000 A 
ATOM     23  C   UNL     1       1.992   5.595  18.152  0.00  0.00    +0.000 A 
ATOM     24  C   UNL     1       2.030   4.231  17.891  0.00  0.00    +0.000 A 
ATOM     25  C   UNL     1       3.161   3.661  17.320  0.00  0.00    +0.000 A 
ATOM     26  C   UNL     1       4.278   4.450  17.004  0.00  0.00    +0.000 A 
ATOM     27  C   UNL     1       5.389   3.858  16.380  0.00  0.00    +0.000 A 
ATOM     28  C   UNL     1       6.504   4.614  16.037  0.00  0.00    +0.000 A 
ATOM     29  C   UNL     1       6.536   5.968  16.346  0.00  0.00    +0.000 A 
ATOM     30  C   UNL     1       5.440   6.570  16.973  0.00  0.00    +0.000 A 
ATOM     31  C   UNL     1       4.272   5.836  17.293  0.00  0.00    +0.000 A 
ENDBRANCH  21  22
ENDBRANCH  20  21
ENDBRANCH   8  20
TORSDOF 4
ENDMDL
MODEL 3
REMARK VINA RESULT:      -8.9      3.062      9.018
REMARK  Name = 
REMARK  6 active torsions:
REMARK  status: ('A' for Active; 'I' for Inactive)
REMARK    1  A    between atoms: C_1  and  C_2
REMARK    2  A    between atoms: C_3  and  N_4
REMARK    3  A    between atoms: C_12  and  C_13
REMARK    4  A    between atoms: C_14  and  O_15
REMARK    5  A    between atoms: O_15  and  C_16
REMARK    6  A    between atoms: C_16  and  C_17
REMARK                            x       y       z     vdW  Elec       q    Type
REMARK                         _______ _______ _______ _____ _____    ______ ____
ROOT
ATOM      1  C   UNL     1      -0.293  11.695  21.847  0.00  0.00    +0.000 C 
ATOM      2  C   UNL     1       0.439  10.684  21.016  0.00  0.00    +0.000 A 
ATOM      3  C   UNL     1       0.961  10.879  19.787  0.00  0.00    +0.000 A 
ATOM      4  O   UNL     1       1.557   9.853  19.051  0.00  0.00    +0.000 OA
ATOM      5  C   UNL     1       1.624   8.577  19.564  0.00  0.00    +0.000 A 
ATOM      6  C   UNL     1       2.224   7.558  18.795  0.00  0.00    +0.000 A 
ATOM      7  C   UNL     1       2.913   7.863  17.491  0.00  0.00    +0.000 C 
ATOM      8  C   UNL     1       2.221   6.225  19.273  0.00  0.00    +0.000 A 
ATOM      9  C   UNL     1       1.673   5.939  20.527  0.00  0.00    +0.000 A 
ATOM     10  C   UNL     1       1.137   6.963  21.306  0.00  0.00    +0.000 A 
ATOM     11  C   UNL     1       1.106   8.271  20.814  0.00  0.00    +0.000 A 
ATOM     12  C   UNL     1       0.516   9.338  21.624  0.00  0.00    +0.000 A 
ATOM     13  O   UNL     1       0.109   9.113  22.759  0.00  0.00    +0.000 OA
ENDROOT
BRANCH   3  14
ATOM     14  N   UNL     1       0.977  12.114  19.145  0.00  0.00    +0.000 N 
ATOM     15  C   UNL     1       2.204  12.911  18.963  0.00  0.00    +0.000 C 
ATOM     16  C   UNL     1       1.958  14.368  19.384  0.00  0.00    +0.000 C 
ATOM     17  O   UNL     1       0.830  14.938  18.697  0.00  0.00    +0.000 OA
ATOM     18  C   UNL     1      -0.356  14.171  18.964  0.00  0.00    +0.000 C 
ATOM     19  C   UNL     1      -0.198  12.718  18.494  0.00  0.00    +0.000 C 
ENDBRANCH   3  14
BRANCH   8  20
ATOM     20  O   UNL     1       2.723   5.270  18.421  0.00  0.00    +0.000 OA
BRANCH  20  21
ATOM     21  C   UNL     1       3.758   4.427  18.928  0.00  0.00    +0.000 C 
BRANCH  21  22
ATOM     22  C   UNL     1       5.122   4.913  18.468  0.00  0.00    +0.000 A 
ATOM     23  C   UNL     1       6.011   5.401  19.448  0.00  0.00    +0.000 A 
ATOM     24  C   UNL     1       7.300   5.793  19.110  0.00  0.00    +0.000 A 
ATOM     25  C   UNL     1       7.740   5.689  17.797  0.00  0.00    +0.000 A 
ATOM     26  C   UNL     1       6.891   5.192  16.796  0.00  0.00    +0.000 A 
ATOM     27  C   UNL     1       7.377   5.048  15.485  0.00  0.00    +0.000 A 
ATOM     28  C   UNL     1       6.568   4.541  14.474  0.00  0.00    +0.000 A 
ATOM     29  C   UNL     1       5.251   4.204  14.753  0.00  0.00    +0.000 A 
ATOM     30  C   UNL     1       4.751   4.349  16.052  0.00  0.00    +0.000 A 
ATOM     31  C   UNL     1       5.563   4.817  17.112  0.00  0.00    +0.000 A 
ENDBRANCH  21  22
ENDBRANCH  20  21
ENDBRANCH   8  20
TORSDOF 4
ENDMDL
MODEL 4
REMARK VINA RESULT:      -8.8      1.020      2.180
REMARK  Name = 
REMARK  6 active torsions:
REMARK  status: ('A' for Active; 'I' for Inactive)
REMARK    1  A    between atoms: C_1  and  C_2
REMARK    2  A    between atoms: C_3  and  N_4
REMARK    3  A    between atoms: C_12  and  C_13
REMARK    4  A    between atoms: C_14  and  O_15
REMARK    5  A    between atoms: O_15  and  C_16
REMARK    6  A    between atoms: C_16  and  C_17
REMARK                            x       y       z     vdW  Elec       q    Type
REMARK                         _______ _______ _______ _____ _____    ______ ____
ROOT
ATOM      1  C   UNL     1       4.293   2.594  19.870  0.00  0.00    +0.000 C 
ATOM      2  C   UNL     1       3.789   3.959  19.512  0.00  0.00    +0.000 A 
ATOM      3  C   UNL     1       4.231   4.742  18.506  0.00  0.00    +0.000 A 
ATOM      4  O   UNL     1       3.756   6.038  18.295  0.00  0.00    +0.000 OA
ATOM      5  C   UNL     1       2.805   6.575  19.134  0.00  0.00    +0.000 A 
ATOM      6  C   UNL     1       2.350   7.890  18.902  0.00  0.00    +0.000 A 
ATOM      7  C   UNL     1       2.776   8.665  17.683  0.00  0.00    +0.000 C 
ATOM      8  C   UNL     1       1.438   8.485  19.809  0.00  0.00    +0.000 A 
ATOM      9  C   UNL     1       0.955   7.746  20.893  0.00  0.00    +0.000 A 
ATOM     10  C   UNL     1       1.365   6.427  21.078  0.00  0.00    +0.000 A 
ATOM     11  C   UNL     1       2.295   5.856  20.205  0.00  0.00    +0.000 A 
ATOM     12  C   UNL     1       2.743   4.480  20.420  0.00  0.00    +0.000 A 
ATOM     13  O   UNL     1       2.263   3.796  21.318  0.00  0.00    +0.000 OA
ENDROOT
BRANCH   3  14
ATOM     14  N   UNL     1       5.179   4.333  17.573  0.00  0.00    +0.000 N 
ATOM     15  C   UNL     1       6.631   4.403  17.817  0.00  0.00    +0.000 C 
ATOM     16  C   UNL     1       7.340   5.052  16.617  0.00  0.00    +0.000 C 
ATOM     17  O   UNL     1       7.027   4.378  15.385  0.00  0.00    +0.000 OA
ATOM     18  C   UNL     1       5.608   4.400  15.153  0.00  0.00    +0.000 C 
ATOM     19  C   UNL     1       4.847   3.696  16.287  0.00  0.00    +0.000 C 
ENDBRANCH   3  14
BRANCH   8  20
ATOM     20  O   UNL     1       1.126   9.805  19.580  0.00  0.00    +0.000 OA
BRANCH  20  21
ATOM     21  C   UNL     1       0.320  10.093  18.437  0.00  0.00    +0.000 C 
BRANCH  21  22
ATOM     22  C   UNL     1      -0.961  10.799  18.847  0.00  0.00    +0.000 A 
ATOM     23  C   UNL     1      -0.954  11.526  20.055  0.00  0.00    +0.000 A 
ATOM     24  C   UNL     1      -2.067  12.256  20.455  0.00  0.00    +0.000 A 
ATOM     25  C   UNL     1      -3.200  12.298  19.653  0.00  0.00    +0.000 A 
ATOM     26  C   UNL     1      -3.240  11.602  18.434  0.00  0.00    +0.000 A 
ATOM     27  C   UNL     1      -4.378  11.702  17.617  0.00  0.00    +0.000 A 
ATOM     28  C   UNL     1      -4.443  11.040  16.395  0.00  0.00    +0.000 A 
ATOM     29  C   UNL     1      -3.381  10.242  15.991  0.00  0.00    +0.000 A 
ATOM     30  C   UNL     1      -2.244  10.127  16.797  0.00  0.00    +0.000 A 
ATOM     31  C   UNL     1      -2.129  10.825  18.024  0.00  0.00    +0.000 A 
ENDBRANCH  21  22
ENDBRANCH  20  21
ENDBRANCH   8  20
TORSDOF 4
ENDMDL
MODEL 5
REMARK VINA RESULT:      -8.8      0.512      1.005
REMARK  Name = 
REMARK  6 active torsions:
REMARK  status: ('A' for Active; 'I' for Inactive)
REMARK    1  A    between atoms: C_1  and  C_2
REMARK    2  A    between atoms: C_3  and  N_4
REMARK    3  A    between atoms: C_12  and  C_13
REMARK    4  A    between atoms: C_14  and  O_15
REMARK    5  A    between atoms: O_15  and  C_16
REMARK    6  A    between atoms: C_16  and  C_17
REMARK                            x       y       z     vdW  Elec       q    Type
REMARK                         _______ _______ _______ _____ _____    ______ ____
ROOT
ATOM      1  C   UNL     1       4.101   3.633  19.968  0.00  0.00    +0.000 C 
ATOM      2  C   UNL     1       3.520   4.961  19.589  0.00  0.00    +0.000 A 
ATOM      3  C   UNL     1       3.943   5.771  18.596  0.00  0.00    +0.000 A 
ATOM      4  O   UNL     1       3.390   7.033  18.365  0.00  0.00    +0.000 OA
ATOM      5  C   UNL     1       2.377   7.505  19.170  0.00  0.00    +0.000 A 
ATOM      6  C   UNL     1       1.843   8.787  18.919  0.00  0.00    +0.000 A 
ATOM      7  C   UNL     1       2.259   9.587  17.713  0.00  0.00    +0.000 C 
ATOM      8  C   UNL     1       0.864   9.321  19.792  0.00  0.00    +0.000 A 
ATOM      9  C   UNL     1       0.394   8.552  20.861  0.00  0.00    +0.000 A 
ATOM     10  C   UNL     1       0.884   7.263  21.064  0.00  0.00    +0.000 A 
ATOM     11  C   UNL     1       1.879   6.755  20.224  0.00  0.00    +0.000 A 
ATOM     12  C   UNL     1       2.411   5.411  20.459  0.00  0.00    +0.000 A 
ATOM     13  O   UNL     1       1.947   4.697  21.342  0.00  0.00    +0.000 OA
ENDROOT
BRANCH   3  14
ATOM     14  N   UNL     1       4.948   5.425  17.697  0.00  0.00    +0.000 N 
ATOM     15  C   UNL     1       6.382   5.621  17.978  0.00  0.00    +0.000 C 
ATOM     16  C   UNL     1       7.068   6.304  16.785  0.00  0.00    +0.000 C 
ATOM     17  O   UNL     1       6.847   5.585  15.560  0.00  0.00    +0.000 OA
ATOM     18  C   UNL     1       5.438   5.484  15.289  0.00  0.00    +0.000 C 
ATOM     19  C   UNL     1       4.706   4.740  16.416  0.00  0.00    +0.000 C 
ENDBRANCH   3  14
BRANCH   8  20
ATOM     20  O   UNL     1       0.472  10.616  19.549  0.00  0.00    +0.000 OA
BRANCH  20  21
ATOM     21  C   UNL     1      -0.854  10.977  19.936  0.00  0.00    +0.000 C 
BRANCH  21  22
ATOM     22  C   UNL     1      -1.790  10.948  18.739  0.00  0.00    +0.000 A 
ATOM     23  C   UNL     1      -1.389  10.208  17.608  0.00  0.00    +0.000 A 
ATOM     24  C   UNL     1      -2.227  10.077  16.507  0.00  0.00    +0.000 A 
ATOM     25  C   UNL     1      -3.487  10.660  16.516  0.00  0.00    +0.000 A 
ATOM     26  C   UNL     1      -3.930  11.390  17.630  0.00  0.00    +0.000 A 
ATOM     27  C   UNL     1      -5.229  11.927  17.634  0.00  0.00    +0.000 A 
ATOM     28  C   UNL     1      -5.705  12.639  18.730  0.00  0.00    +0.000 A 
ATOM     29  C   UNL     1      -4.875  12.854  19.821  0.00  0.00    +0.000 A 
ATOM     30  C   UNL     1      -3.577  12.332  19.829  0.00  0.00    +0.000 A 
ATOM     31  C   UNL     1      -3.080  11.564  18.749  0.00  0.00    +0.000 A 
ENDBRANCH  21  22
ENDBRANCH  20  21
ENDBRANCH   8  20
TORSDOF 4
ENDMDL
MODEL 6
REMARK VINA RESULT:      -8.8      3.018      9.174
REMARK  Name = 
REMARK  6 active torsions:
REMARK  status: ('A' for Active; 'I' for Inactive)
REMARK    1  A    between atoms: C_1  and  C_2
REMARK    2  A    between atoms: C_3  and  N_4
REMARK    3  A    between atoms: C_12  and  C_13
REMARK    4  A    between atoms: C_14  and  O_15
REMARK    5  A    between atoms: O_15  and  C_16
REMARK    6  A    between atoms: C_16  and  C_17
REMARK                            x       y       z     vdW  Elec       q    Type
REMARK                         _______ _______ _______ _____ _____    ______ ____
ROOT
ATOM      1  C   UNL     1      -1.841  11.786  23.441  0.00  0.00    +0.000 C 
ATOM      2  C   UNL     1      -1.040  11.273  22.282  0.00  0.00    +0.000 A 
ATOM      3  C   UNL     1      -1.069  11.737  21.015  0.00  0.00    +0.000 A 
ATOM      4  O   UNL     1      -0.346  11.144  19.979  0.00  0.00    +0.000 OA
ATOM      5  C   UNL     1       0.432  10.033  20.221  0.00  0.00    +0.000 A 
ATOM      6  C   UNL     1       1.145   9.449  19.153  0.00  0.00    +0.000 A 
ATOM      7  C   UNL     1       1.185  10.092  17.792  0.00  0.00    +0.000 C 
ATOM      8  C   UNL     1       1.877   8.255  19.370  0.00  0.00    +0.000 A 
ATOM      9  C   UNL     1       1.932   7.698  20.651  0.00  0.00    +0.000 A 
ATOM     10  C   UNL     1       1.273   8.317  21.711  0.00  0.00    +0.000 A 
ATOM     11  C   UNL     1       0.520   9.472  21.486  0.00  0.00    +0.000 A 
ATOM     12  C   UNL     1      -0.194  10.102  22.599  0.00  0.00    +0.000 A 
ATOM     13  O   UNL     1      -0.083   9.669  23.741  0.00  0.00    +0.000 OA
ENDROOT
BRANCH   3  14
ATOM     14  N   UNL     1      -1.798  12.856  20.623  0.00  0.00    +0.000 N 
ATOM     15  C   UNL     1      -1.211  14.204  20.519  0.00  0.00    +0.000 C 
ATOM     16  C   UNL     1      -2.109  15.230  21.227  0.00  0.00    +0.000 C 
ATOM     17  O   UNL     1      -3.460  15.185  20.735  0.00  0.00    +0.000 OA
ATOM     18  C   UNL     1      -4.016  13.873  20.925  0.00  0.00    +0.000 C 
ATOM     19  C   UNL     1      -3.201  12.809  20.176  0.00  0.00    +0.000 C 
ENDBRANCH   3  14
BRANCH   8  20
ATOM     20  O   UNL     1       2.454   7.685  18.259  0.00  0.00    +0.000 OA
BRANCH  20  21
ATOM     21  C   UNL     1       1.934   6.425  17.833  0.00  0.00    +0.000 C 
BRANCH  21  22
ATOM     22  C   UNL     1       2.878   5.297  18.210  0.00  0.00    +0.000 A 
ATOM     23  C   UNL     1       4.120   5.229  17.546  0.00  0.00    +0.000 A 
ATOM     24  C   UNL     1       5.062   4.268  17.892  0.00  0.00    +0.000 A 
ATOM     25  C   UNL     1       4.800   3.370  18.919  0.00  0.00    +0.000 A 
ATOM     26  C   UNL     1       3.582   3.417  19.616  0.00  0.00    +0.000 A 
ATOM     27  C   UNL     1       3.361   2.531  20.684  0.00  0.00    +0.000 A 
ATOM     28  C   UNL     1       2.174   2.563  21.407  0.00  0.00    +0.000 A 
ATOM     29  C   UNL     1       1.177   3.460  21.048  0.00  0.00    +0.000 A 
ATOM     30  C   UNL     1       1.379   4.344  19.982  0.00  0.00    +0.000 A 
ATOM     31  C   UNL     1       2.595   4.366  19.257  0.00  0.00    +0.000 A 
ENDBRANCH  21  22
ENDBRANCH  20  21
ENDBRANCH   8  20
TORSDOF 4
ENDMDL
MODEL 7
REMARK VINA RESULT:      -8.7      3.068      9.600
REMARK  Name = 
REMARK  6 active torsions:
REMARK  status: ('A' for Active; 'I' for Inactive)
REMARK    1  A    between atoms: C_1  and  C_2
REMARK    2  A    between atoms: C_3  and  N_4
REMARK    3  A    between atoms: C_12  and  C_13
REMARK    4  A    between atoms: C_14  and  O_15
REMARK    5  A    between atoms: O_15  and  C_16
REMARK    6  A    between atoms: C_16  and  C_17
REMARK                            x       y       z     vdW  Elec       q    Type
REMARK                         _______ _______ _______ _____ _____    ______ ____
ROOT
ATOM      1  C   UNL     1      -1.931  12.209  23.497  0.00  0.00    +0.000 C 
ATOM      2  C   UNL     1      -1.211  11.645  22.309  0.00  0.00    +0.000 A 
ATOM      3  C   UNL     1      -1.323  12.059  21.029  0.00  0.00    +0.000 A 
ATOM      4  O   UNL     1      -0.673  11.420  19.972  0.00  0.00    +0.000 OA
ATOM      5  C   UNL     1       0.115  10.315  20.205  0.00  0.00    +0.000 A 
ATOM      6  C   UNL     1       0.753   9.684  19.117  0.00  0.00    +0.000 A 
ATOM      7  C   UNL     1       0.703  10.272  17.731  0.00  0.00    +0.000 C 
ATOM      8  C   UNL     1       1.494   8.496  19.332  0.00  0.00    +0.000 A 
ATOM      9  C   UNL     1       1.633   7.990  20.627  0.00  0.00    +0.000 A 
ATOM     10  C   UNL     1       1.049   8.655  21.704  0.00  0.00    +0.000 A 
ATOM     11  C   UNL     1       0.286   9.804  21.484  0.00  0.00    +0.000 A 
ATOM     12  C   UNL     1      -0.349  10.483  22.615  0.00  0.00    +0.000 A 
ATOM     13  O   UNL     1      -0.164  10.095  23.764  0.00  0.00    +0.000 OA
ENDROOT
BRANCH   3  14
ATOM     14  N   UNL     1      -2.073  13.165  20.642  0.00  0.00    +0.000 N 
ATOM     15  C   UNL     1      -1.470  14.459  20.276  0.00  0.00    +0.000 C 
ATOM     16  C   UNL     1      -2.189  15.605  21.005  0.00  0.00    +0.000 C 
ATOM     17  O   UNL     1      -3.607  15.580  20.769  0.00  0.00    +0.000 OA
ATOM     18  C   UNL     1      -4.163  14.329  21.209  0.00  0.00    +0.000 C 
ATOM     19  C   UNL     1      -3.535  13.145  20.459  0.00  0.00    +0.000 C 
ENDBRANCH   3  14
BRANCH   8  20
ATOM     20  O   UNL     1       1.993   7.878  18.209  0.00  0.00    +0.000 OA
BRANCH  20  21
ATOM     21  C   UNL     1       3.353   7.445  18.257  0.00  0.00    +0.000 C 
BRANCH  21  22
ATOM     22  C   UNL     1       3.473   5.996  17.818  0.00  0.00    +0.000 A 
ATOM     23  C   UNL     1       2.361   5.153  18.023  0.00  0.00    +0.000 A 
ATOM     24  C   UNL     1       2.373   3.836  17.580  0.00  0.00    +0.000 A 
ATOM     25  C   UNL     1       3.480   3.336  16.905  0.00  0.00    +0.000 A 
ATOM     26  C   UNL     1       4.599   4.150  16.666  0.00  0.00    +0.000 A 
ATOM     27  C   UNL     1       5.684   3.636  15.936  0.00  0.00    +0.000 A 
ATOM     28  C   UNL     1       6.801   4.420  15.666  0.00  0.00    +0.000 A 
ATOM     29  C   UNL     1       6.860   5.719  16.152  0.00  0.00    +0.000 A 
ATOM     30  C   UNL     1       5.790   6.242  16.886  0.00  0.00    +0.000 A 
ATOM     31  C   UNL     1       4.621   5.484  17.138  0.00  0.00    +0.000 A 
ENDBRANCH  21  22
ENDBRANCH  20  21
ENDBRANCH   8  20
TORSDOF 4
ENDMDL
MODEL 8
REMARK VINA RESULT:      -8.7      1.925      3.841
REMARK  Name = 
REMARK  6 active torsions:
REMARK  status: ('A' for Active; 'I' for Inactive)
REMARK    1  A    between atoms: C_1  and  C_2
REMARK    2  A    between atoms: C_3  and  N_4
REMARK    3  A    between atoms: C_12  and  C_13
REMARK    4  A    between atoms: C_14  and  O_15
REMARK    5  A    between atoms: O_15  and  C_16
REMARK    6  A    between atoms: C_16  and  C_17
REMARK                            x       y       z     vdW  Elec       q    Type
REMARK                         _______ _______ _______ _____ _____    ______ ____
ROOT
ATOM      1  C   UNL     1       3.718   5.364  17.482  0.00  0.00    +0.000 C 
ATOM      2  C   UNL     1       2.978   6.344  18.342  0.00  0.00    +0.000 A 
ATOM      3  C   UNL     1       2.307   6.070  19.481  0.00  0.00    +0.000 A 
ATOM      4  O   UNL     1       1.577   7.035  20.176  0.00  0.00    +0.000 OA
ATOM      5  C   UNL     1       1.507   8.328  19.705  0.00  0.00    +0.000 A 
ATOM      6  C   UNL     1       0.755   9.281  20.424  0.00  0.00    +0.000 A 
ATOM      7  C   UNL     1       0.144   8.951  21.760  0.00  0.00    +0.000 C 
ATOM      8  C   UNL     1       0.603  10.589  19.904  0.00  0.00    +0.000 A 
ATOM      9  C   UNL     1       1.245  10.942  18.713  0.00  0.00    +0.000 A 
ATOM     10  C   UNL     1       2.036  10.010  18.043  0.00  0.00    +0.000 A 
ATOM     11  C   UNL     1       2.152   8.708  18.537  0.00  0.00    +0.000 A 
ATOM     12  C   UNL     1       2.961   7.726  17.814  0.00  0.00    +0.000 A 
ATOM     13  O   UNL     1       3.595   8.048  16.815  0.00  0.00    +0.000 OA
ENDROOT
BRANCH   3  14
ATOM     14  N   UNL     1       2.295   4.815  20.082  0.00  0.00    +0.000 N 
ATOM     15  C   UNL     1       3.521   4.106  20.491  0.00  0.00    +0.000 C 
ATOM     16  C   UNL     1       3.485   2.653  19.993  0.00  0.00    +0.000 C 
ATOM     17  O   UNL     1       2.293   1.972  20.423  0.00  0.00    +0.000 OA
ATOM     18  C   UNL     1       1.126   2.657  19.939  0.00  0.00    +0.000 C 
ATOM     19  C   UNL     1       1.067   4.098  20.466  0.00  0.00    +0.000 C 
ENDBRANCH   3  14
BRANCH   8  20
ATOM     20  O   UNL     1      -0.235  11.428  20.601  0.00  0.00    +0.000 OA
BRANCH  20  21
ATOM     21  C   UNL     1      -0.792  12.531  19.885  0.00  0.00    +0.000 C 
BRANCH  21  22
ATOM     22  C   UNL     1      -2.283  12.333  19.669  0.00  0.00    +0.000 A 
ATOM     23  C   UNL     1      -3.159  12.791  20.675  0.00  0.00    +0.000 A 
ATOM     24  C   UNL     1      -4.537  12.710  20.513  0.00  0.00    +0.000 A 
ATOM     25  C   UNL     1      -5.072  12.194  19.340  0.00  0.00    +0.000 A 
ATOM     26  C   UNL     1      -4.234  11.744  18.308  0.00  0.00    +0.000 A 
ATOM     27  C   UNL     1      -4.801  11.274  17.112  0.00  0.00    +0.000 A 
ATOM     28  C   UNL     1      -3.998  10.838  16.062  0.00  0.00    +0.000 A 
ATOM     29  C   UNL     1      -2.618  10.835  16.210  0.00  0.00    +0.000 A 
ATOM     30  C   UNL     1      -2.039  11.294  17.399  0.00  0.00    +0.000 A 
ATOM     31  C   UNL     1      -2.827  11.787  18.466  0.00  0.00    +0.000 A 
ENDBRANCH  21  22
ENDBRANCH  20  21
ENDBRANCH   8  20
TORSDOF 4
ENDMDL
MODEL 9
REMARK VINA RESULT:      -8.6      3.391      9.889
REMARK  Name = 
REMARK  6 active torsions:
REMARK  status: ('A' for Active; 'I' for Inactive)
REMARK    1  A    between atoms: C_1  and  C_2
REMARK    2  A    between atoms: C_3  and  N_4
REMARK    3  A    between atoms: C_12  and  C_13
REMARK    4  A    between atoms: C_14  and  O_15
REMARK    5  A    between atoms: O_15  and  C_16
REMARK    6  A    between atoms: C_16  and  C_17
REMARK                            x       y       z     vdW  Elec       q    Type
REMARK                         _______ _______ _______ _____ _____    ______ ____
ROOT
ATOM      1  C   UNL     1      -3.194  13.708  20.331  0.00  0.00    +0.000 C 
ATOM      2  C   UNL     1      -2.235  12.581  20.569  0.00  0.00    +0.000 A 
ATOM      3  C   UNL     1      -1.721  12.199  21.757  0.00  0.00    +0.000 A 
ATOM      4  O   UNL     1      -0.767  11.186  21.875  0.00  0.00    +0.000 OA
ATOM      5  C   UNL     1      -0.302  10.535  20.753  0.00  0.00    +0.000 A 
ATOM      6  C   UNL     1       0.667   9.521  20.901  0.00  0.00    +0.000 A 
ATOM      7  C   UNL     1       1.101   9.043  22.261  0.00  0.00    +0.000 C 
ATOM      8  C   UNL     1       1.218   8.906  19.750  0.00  0.00    +0.000 A 
ATOM      9  C   UNL     1       0.756   9.269  18.481  0.00  0.00    +0.000 A 
ATOM     10  C   UNL     1      -0.246  10.229  18.350  0.00  0.00    +0.000 A 
ATOM     11  C   UNL     1      -0.759  10.862  19.485  0.00  0.00    +0.000 A 
ATOM     12  C   UNL     1      -1.791  11.890  19.339  0.00  0.00    +0.000 A 
ATOM     13  O   UNL     1      -2.262  12.155  18.238  0.00  0.00    +0.000 OA
ENDROOT
BRANCH   3  14
ATOM     14  N   UNL     1      -2.102  12.756  22.975  0.00  0.00    +0.000 N 
ATOM     15  C   UNL     1      -3.219  12.236  23.783  0.00  0.00    +0.000 C 
ATOM     16  C   UNL     1      -4.138  13.386  24.222  0.00  0.00    +0.000 C 
ATOM     17  O   UNL     1      -3.408  14.421  24.904  0.00  0.00    +0.000 OA
ATOM     18  C   UNL     1      -2.378  14.949  24.050  0.00  0.00    +0.000 C 
ATOM     19  C   UNL     1      -1.381  13.856  23.638  0.00  0.00    +0.000 C 
ENDBRANCH   3  14
BRANCH   8  20
ATOM     20  O   UNL     1       2.236   8.008  19.967  0.00  0.00    +0.000 OA
BRANCH  20  21
ATOM     21  C   UNL     1       2.543   7.105  18.904  0.00  0.00    +0.000 C 
BRANCH  21  22
ATOM     22  C   UNL     1       2.372   5.664  19.356  0.00  0.00    +0.000 A 
ATOM     23  C   UNL     1       1.530   5.417  20.459  0.00  0.00    +0.000 A 
ATOM     24  C   UNL     1       1.270   4.118  20.881  0.00  0.00    +0.000 A 
ATOM     25  C   UNL     1       1.823   3.040  20.203  0.00  0.00    +0.000 A 
ATOM     26  C   UNL     1       2.652   3.245  19.089  0.00  0.00    +0.000 A 
ATOM     27  C   UNL     1       3.158   2.136  18.389  0.00  0.00    +0.000 A 
ATOM     28  C   UNL     1       3.967   2.303  17.270  0.00  0.00    +0.000 A 
ATOM     29  C   UNL     1       4.310   3.584  16.858  0.00  0.00    +0.000 A 
ATOM     30  C   UNL     1       3.820   4.698  17.549  0.00  0.00    +0.000 A 
ATOM     31  C   UNL     1       2.957   4.560  18.663  0.00  0.00    +0.000 A 
ENDBRANCH  21  22
ENDBRANCH  20  21
ENDBRANCH   8  20
TORSDOF 4
ENDMDL
