MODEL 1
REMARK VINA RESULT:      -7.6      0.000      0.000
REMARK  Name = 
REMARK  3 active torsions:
REMARK  status: ('A' for Active; 'I' for Inactive)
REMARK    1  A    between atoms: C_1  and  C_2
REMARK    2  A    between atoms: C_6  and  N_7
REMARK    3  A    between atoms: C_8  and  C_10
REMARK                            x       y       z     vdW  Elec       q    Type
REMARK                         _______ _______ _______ _____ _____    ______ ____
ROOT
ATOM      1  C   UNL     1       7.406   4.652  12.562  0.00  0.00    +0.000 C 
ATOM      2  C   UNL     1       6.860   4.639  13.935  0.00  0.00    +0.000 A 
ATOM      3  N   UNL     1       5.622   4.407  14.320  0.00  0.00    +0.000 NA
ATOM      4  C   UNL     1       5.692   4.485  15.686  0.00  0.00    +0.000 A 
ATOM      5  C   UNL     1       4.706   4.310  16.664  0.00  0.00    +0.000 A 
ATOM      6  C   UNL     1       5.061   4.425  18.017  0.00  0.00    +0.000 A 
ATOM      7  C   UNL     1       6.385   4.756  18.367  0.00  0.00    +0.000 A 
ATOM      8  C   UNL     1       7.388   4.935  17.398  0.00  0.00    +0.000 A 
ATOM      9  C   UNL     1       6.986   4.779  16.079  0.00  0.00    +0.000 A 
ATOM     10  O   UNL     1       7.749   4.879  14.952  0.00  0.00    +0.000 OA
ENDROOT
BRANCH   6  11
ATOM     11  N   UNL     1       4.140   4.211  19.071  0.00  0.00    +0.000 N 
ATOM     12  C   UNL     1       3.223   5.132  19.546  0.00  0.00    +0.000 C 
ATOM     13  O   UNL     1       3.058   6.273  19.140  0.00  0.00    +0.000 OA
ATOM     14  H   UNL     1       4.103   3.275  19.454  0.00  0.00    +0.000 HD
BRANCH  12  15
ATOM     15  C   UNL     1       2.373   4.629  20.653  0.00  0.00    +0.000 C 
ATOM     16  C   UNL     1       0.864   4.665  20.512  0.00  0.00    +0.000 C 
ATOM     17  C   UNL     1       1.587   3.351  20.509  0.00  0.00    +0.000 C 
ATOM     18 CL   UNL     1       1.605   2.421  19.020  0.00  0.00    +0.000 Cl
ATOM     19 CL   UNL     1       1.433   2.336  21.947  0.00  0.00    +0.000 Cl
ENDBRANCH  12  15
ENDBRANCH   6  11
TORSDOF 2
ENDMDL
MODEL 2
REMARK VINA RESULT:      -7.3      1.183      1.187
REMARK  Name = 
REMARK  3 active torsions:
REMARK  status: ('A' for Active; 'I' for Inactive)
REMARK    1  A    between atoms: C_1  and  C_2
REMARK    2  A    between atoms: C_6  and  N_7
REMARK    3  A    between atoms: C_8  and  C_10
REMARK                            x       y       z     vdW  Elec       q    Type
REMARK                         _______ _______ _______ _____ _____    ______ ____
ROOT
ATOM      1  C   UNL     1       7.413   4.423  12.217  0.00  0.00    +0.000 C 
ATOM      2  C   UNL     1       6.824   4.618  13.557  0.00  0.00    +0.000 A 
ATOM      3  N   UNL     1       5.663   4.194  14.009  0.00  0.00    +0.000 NA
ATOM      4  C   UNL     1       5.649   4.624  15.311  0.00  0.00    +0.000 A 
ATOM      5  C   UNL     1       4.691   4.462  16.318  0.00  0.00    +0.000 A 
ATOM      6  C   UNL     1       4.945   4.994  17.592  0.00  0.00    +0.000 A 
ATOM      7  C   UNL     1       6.133   5.716  17.823  0.00  0.00    +0.000 A 
ATOM      8  C   UNL     1       7.107   5.888  16.824  0.00  0.00    +0.000 A 
ATOM      9  C   UNL     1       6.814   5.314  15.594  0.00  0.00    +0.000 A 
ATOM     10  O   UNL     1       7.582   5.314  14.465  0.00  0.00    +0.000 OA
ENDROOT
BRANCH   6  11
ATOM     11  N   UNL     1       4.056   4.831  18.682  0.00  0.00    +0.000 N 
ATOM     12  C   UNL     1       4.068   3.788  19.590  0.00  0.00    +0.000 C 
ATOM     13  O   UNL     1       4.839   2.839  19.601  0.00  0.00    +0.000 OA
ATOM     14  H   UNL     1       3.407   5.590  18.850  0.00  0.00    +0.000 HD
BRANCH  12  15
ATOM     15  C   UNL     1       3.025   3.883  20.640  0.00  0.00    +0.000 C 
ATOM     16  C   UNL     1       1.696   4.537  20.316  0.00  0.00    +0.000 C 
ATOM     17  C   UNL     1       1.766   3.058  20.560  0.00  0.00    +0.000 C 
ATOM     18 CL   UNL     1       1.453   1.982  19.209  0.00  0.00    +0.000 Cl
ATOM     19 CL   UNL     1       1.102   2.455  22.082  0.00  0.00    +0.000 Cl
ENDBRANCH  12  15
ENDBRANCH   6  11
TORSDOF 2
ENDMDL
MODEL 3
REMARK VINA RESULT:      -6.7      1.340      1.436
REMARK  Name = 
REMARK  3 active torsions:
REMARK  status: ('A' for Active; 'I' for Inactive)
REMARK    1  A    between atoms: C_1  and  C_2
REMARK    2  A    between atoms: C_6  and  N_7
REMARK    3  A    between atoms: C_8  and  C_10
REMARK                            x       y       z     vdW  Elec       q    Type
REMARK                         _______ _______ _______ _____ _____    ______ ____
ROOT
ATOM      1  C   UNL     1       7.939   4.968  12.882  0.00  0.00    +0.000 C 
ATOM      2  C   UNL     1       7.072   4.945  14.078  0.00  0.00    +0.000 A 
ATOM      3  N   UNL     1       5.980   4.239  14.283  0.00  0.00    +0.000 NA
ATOM      4  C   UNL     1       5.613   4.579  15.559  0.00  0.00    +0.000 A 
ATOM      5  C   UNL     1       4.545   4.143  16.351  0.00  0.00    +0.000 A 
ATOM      6  C   UNL     1       4.414   4.645  17.655  0.00  0.00    +0.000 A 
ATOM      7  C   UNL     1       5.328   5.608  18.128  0.00  0.00    +0.000 A 
ATOM      8  C   UNL     1       6.407   6.057  17.346  0.00  0.00    +0.000 A 
ATOM      9  C   UNL     1       6.503   5.502  16.077  0.00  0.00    +0.000 A 
ATOM     10  O   UNL     1       7.452   5.745  15.126  0.00  0.00    +0.000 OA
ENDROOT
BRANCH   6  11
ATOM     11  N   UNL     1       3.396   4.220  18.542  0.00  0.00    +0.000 N 
ATOM     12  C   UNL     1       2.040   4.194  18.267  0.00  0.00    +0.000 C 
ATOM     13  O   UNL     1       1.500   4.535  17.225  0.00  0.00    +0.000 OA
ATOM     14  H   UNL     1       3.702   3.827  19.423  0.00  0.00    +0.000 HD
BRANCH  12  15
ATOM     15  C   UNL     1       1.203   3.685  19.382  0.00  0.00    +0.000 C 
ATOM     16  C   UNL     1       0.596   2.300  19.287  0.00  0.00    +0.000 C 
ATOM     17  C   UNL     1       1.692   2.573  20.274  0.00  0.00    +0.000 C 
ATOM     18 CL   UNL     1       3.247   1.801  20.017  0.00  0.00    +0.000 Cl
ATOM     19 CL   UNL     1       1.245   2.658  21.981  0.00  0.00    +0.000 Cl
ENDBRANCH  12  15
ENDBRANCH   6  11
TORSDOF 2
ENDMDL
MODEL 4
REMARK VINA RESULT:      -6.5      1.662      1.816
REMARK  Name = 
REMARK  3 active torsions:
REMARK  status: ('A' for Active; 'I' for Inactive)
REMARK    1  A    between atoms: C_1  and  C_2
REMARK    2  A    between atoms: C_6  and  N_7
REMARK    3  A    between atoms: C_8  and  C_10
REMARK                            x       y       z     vdW  Elec       q    Type
REMARK                         _______ _______ _______ _____ _____    ______ ____
ROOT
ATOM      1  C   UNL     1       8.061   5.310  12.375  0.00  0.00    +0.000 C 
ATOM      2  C   UNL     1       7.294   5.068  13.615  0.00  0.00    +0.000 A 
ATOM      3  N   UNL     1       6.143   4.445  13.755  0.00  0.00    +0.000 NA
ATOM      4  C   UNL     1       5.922   4.482  15.107  0.00  0.00    +0.000 A 
ATOM      5  C   UNL     1       4.873   3.966  15.877  0.00  0.00    +0.000 A 
ATOM      6  C   UNL     1       4.908   4.127  17.271  0.00  0.00    +0.000 A 
ATOM      7  C   UNL     1       5.968   4.840  17.866  0.00  0.00    +0.000 A 
ATOM      8  C   UNL     1       7.030   5.364  17.108  0.00  0.00    +0.000 A 
ATOM      9  C   UNL     1       6.957   5.147  15.739  0.00  0.00    +0.000 A 
ATOM     10  O   UNL     1       7.851   5.529  14.781  0.00  0.00    +0.000 OA
ENDROOT
BRANCH   6  11
ATOM     11  N   UNL     1       3.917   3.592  18.129  0.00  0.00    +0.000 N 
ATOM     12  C   UNL     1       4.150   2.897  19.303  0.00  0.00    +0.000 C 
ATOM     13  O   UNL     1       5.239   2.629  19.788  0.00  0.00    +0.000 OA
ATOM     14  H   UNL     1       2.956   3.810  17.898  0.00  0.00    +0.000 HD
BRANCH  12  15
ATOM     15  C   UNL     1       2.919   2.465  20.008  0.00  0.00    +0.000 C 
ATOM     16  C   UNL     1       2.795   2.692  21.502  0.00  0.00    +0.000 C 
ATOM     17  C   UNL     1       1.939   3.475  20.550  0.00  0.00    +0.000 C 
ATOM     18 CL   UNL     1       2.224   5.200  20.411  0.00  0.00    +0.000 Cl
ATOM     19 CL   UNL     1       0.225   3.055  20.467  0.00  0.00    +0.000 Cl
ENDBRANCH  12  15
ENDBRANCH   6  11
TORSDOF 2
ENDMDL
MODEL 5
REMARK VINA RESULT:      -6.2      3.970      7.083
REMARK  Name = 
REMARK  3 active torsions:
REMARK  status: ('A' for Active; 'I' for Inactive)
REMARK    1  A    between atoms: C_1  and  C_2
REMARK    2  A    between atoms: C_6  and  N_7
REMARK    3  A    between atoms: C_8  and  C_10
REMARK                            x       y       z     vdW  Elec       q    Type
REMARK                         _______ _______ _______ _____ _____    ______ ____
ROOT
ATOM      1  C   UNL     1      -0.775  11.393  22.192  0.00  0.00    +0.000 C 
ATOM      2  C   UNL     1       0.030  10.406  21.443  0.00  0.00    +0.000 A 
ATOM      3  N   UNL     1       0.551   9.277  21.876  0.00  0.00    +0.000 NA
ATOM      4  C   UNL     1       1.155   8.755  20.762  0.00  0.00    +0.000 A 
ATOM      5  C   UNL     1       1.859   7.560  20.579  0.00  0.00    +0.000 A 
ATOM      6  C   UNL     1       2.361   7.253  19.305  0.00  0.00    +0.000 A 
ATOM      7  C   UNL     1       2.191   8.169  18.248  0.00  0.00    +0.000 A 
ATOM      8  C   UNL     1       1.486   9.374  18.413  0.00  0.00    +0.000 A 
ATOM      9  C   UNL     1       0.985   9.608  19.687  0.00  0.00    +0.000 A 
ATOM     10  O   UNL     1       0.257  10.680  20.117  0.00  0.00    +0.000 OA
ENDROOT
BRANCH   6  11
ATOM     11  N   UNL     1       3.038   6.043  19.018  0.00  0.00    +0.000 N 
ATOM     12  C   UNL     1       2.529   4.982  18.291  0.00  0.00    +0.000 C 
ATOM     13  O   UNL     1       1.420   4.911  17.783  0.00  0.00    +0.000 OA
ATOM     14  H   UNL     1       4.007   5.990  19.307  0.00  0.00    +0.000 HD
BRANCH  12  15
ATOM     15  C   UNL     1       3.469   3.844  18.136  0.00  0.00    +0.000 C 
ATOM     16  C   UNL     1       4.600   3.669  19.131  0.00  0.00    +0.000 C 
ATOM     17  C   UNL     1       3.460   2.692  19.109  0.00  0.00    +0.000 C 
ATOM     18 CL   UNL     1       2.375   2.659  20.487  0.00  0.00    +0.000 Cl
ATOM     19 CL   UNL     1       3.783   1.084  18.452  0.00  0.00    +0.000 Cl
ENDBRANCH  12  15
ENDBRANCH   6  11
TORSDOF 2
ENDMDL
MODEL 6
REMARK VINA RESULT:      -6.2      4.575      7.294
REMARK  Name = 
REMARK  3 active torsions:
REMARK  status: ('A' for Active; 'I' for Inactive)
REMARK    1  A    between atoms: C_1  and  C_2
REMARK    2  A    between atoms: C_6  and  N_7
REMARK    3  A    between atoms: C_8  and  C_10
REMARK                            x       y       z     vdW  Elec       q    Type
REMARK                         _______ _______ _______ _____ _____    ______ ____
ROOT
ATOM      1  C   UNL     1      -0.980  12.412  19.142  0.00  0.00    +0.000 C 
ATOM      2  C   UNL     1      -0.177  11.173  19.180  0.00  0.00    +0.000 A 
ATOM      3  N   UNL     1       0.588  10.665  18.236  0.00  0.00    +0.000 NA
ATOM      4  C   UNL     1       1.114   9.542  18.820  0.00  0.00    +0.000 A 
ATOM      5  C   UNL     1       2.015   8.592  18.328  0.00  0.00    +0.000 A 
ATOM      6  C   UNL     1       2.412   7.533  19.160  0.00  0.00    +0.000 A 
ATOM      7  C   UNL     1       1.866   7.419  20.454  0.00  0.00    +0.000 A 
ATOM      8  C   UNL     1       0.959   8.365  20.965  0.00  0.00    +0.000 A 
ATOM      9  C   UNL     1       0.627   9.405  20.108  0.00  0.00    +0.000 A 
ATOM     10  O   UNL     1      -0.208  10.457  20.351  0.00  0.00    +0.000 OA
ENDROOT
BRANCH   6  11
ATOM     11  N   UNL     1       3.360   6.559  18.763  0.00  0.00    +0.000 N 
ATOM     12  C   UNL     1       3.076   5.367  18.120  0.00  0.00    +0.000 C 
ATOM     13  O   UNL     1       1.971   4.958  17.795  0.00  0.00    +0.000 OA
ATOM     14  H   UNL     1       4.334   6.800  18.893  0.00  0.00    +0.000 HD
BRANCH  12  15
ATOM     15  C   UNL     1       4.271   4.544  17.811  0.00  0.00    +0.000 C 
ATOM     16  C   UNL     1       4.420   3.933  16.431  0.00  0.00    +0.000 C 
ATOM     17  C   UNL     1       5.333   5.043  16.864  0.00  0.00    +0.000 C 
ATOM     18 CL   UNL     1       5.191   6.593  16.055  0.00  0.00    +0.000 Cl
ATOM     19 CL   UNL     1       7.006   4.617  17.239  0.00  0.00    +0.000 Cl
ENDBRANCH  12  15
ENDBRANCH   6  11
TORSDOF 2
ENDMDL
MODEL 7
REMARK VINA RESULT:      -6.0      4.062      4.747
REMARK  Name = 
REMARK  3 active torsions:
REMARK  status: ('A' for Active; 'I' for Inactive)
REMARK    1  A    between atoms: C_1  and  C_2
REMARK    2  A    between atoms: C_6  and  N_7
REMARK    3  A    between atoms: C_8  and  C_10
REMARK                            x       y       z     vdW  Elec       q    Type
REMARK                         _______ _______ _______ _____ _____    ______ ____
ROOT
ATOM      1  C   UNL     1       6.221   4.006  15.176  0.00  0.00    +0.000 C 
ATOM      2  C   UNL     1       5.329   4.712  16.119  0.00  0.00    +0.000 A 
ATOM      3  N   UNL     1       5.335   5.986  16.452  0.00  0.00    +0.000 NA
ATOM      4  C   UNL     1       4.282   6.094  17.323  0.00  0.00    +0.000 A 
ATOM      5  C   UNL     1       3.767   7.203  18.002  0.00  0.00    +0.000 A 
ATOM      6  C   UNL     1       2.646   7.036  18.830  0.00  0.00    +0.000 A 
ATOM      7  C   UNL     1       2.087   5.753  18.998  0.00  0.00    +0.000 A 
ATOM      8  C   UNL     1       2.592   4.627  18.324  0.00  0.00    +0.000 A 
ATOM      9  C   UNL     1       3.681   4.860  17.496  0.00  0.00    +0.000 A 
ATOM     10  O   UNL     1       4.351   3.959  16.719  0.00  0.00    +0.000 OA
ENDROOT
BRANCH   6  11
ATOM     11  N   UNL     1       2.028   8.112  19.511  0.00  0.00    +0.000 N 
ATOM     12  C   UNL     1       1.284   9.122  18.927  0.00  0.00    +0.000 C 
ATOM     13  O   UNL     1       1.041   9.254  17.737  0.00  0.00    +0.000 OA
ATOM     14  H   UNL     1       2.074   8.090  20.522  0.00  0.00    +0.000 HD
BRANCH  12  15
ATOM     15  C   UNL     1       0.743  10.113  19.889  0.00  0.00    +0.000 C 
ATOM     16  C   UNL     1      -0.738  10.439  19.872  0.00  0.00    +0.000 C 
ATOM     17  C   UNL     1      -0.148   9.684  21.027  0.00  0.00    +0.000 C 
ATOM     18 CL   UNL     1      -0.621   8.009  21.246  0.00  0.00    +0.000 Cl
ATOM     19 CL   UNL     1       0.030  10.550  22.557  0.00  0.00    +0.000 Cl
ENDBRANCH  12  15
ENDBRANCH   6  11
TORSDOF 2
ENDMDL
MODEL 8
REMARK VINA RESULT:      -6.0      4.600      5.150
REMARK  Name = 
REMARK  3 active torsions:
REMARK  status: ('A' for Active; 'I' for Inactive)
REMARK    1  A    between atoms: C_1  and  C_2
REMARK    2  A    between atoms: C_6  and  N_7
REMARK    3  A    between atoms: C_8  and  C_10
REMARK                            x       y       z     vdW  Elec       q    Type
REMARK                         _______ _______ _______ _____ _____    ______ ____
ROOT
ATOM      1  C   UNL     1       6.486   3.956  15.049  0.00  0.00    +0.000 C 
ATOM      2  C   UNL     1       5.545   4.690  15.919  0.00  0.00    +0.000 A 
ATOM      3  N   UNL     1       5.553   5.967  16.240  0.00  0.00    +0.000 NA
ATOM      4  C   UNL     1       4.444   6.105  17.033  0.00  0.00    +0.000 A 
ATOM      5  C   UNL     1       3.905   7.232  17.664  0.00  0.00    +0.000 A 
ATOM      6  C   UNL     1       2.725   7.096  18.411  0.00  0.00    +0.000 A 
ATOM      7  C   UNL     1       2.129   5.827  18.551  0.00  0.00    +0.000 A 
ATOM      8  C   UNL     1       2.656   4.684  17.924  0.00  0.00    +0.000 A 
ATOM      9  C   UNL     1       3.806   4.886  17.174  0.00  0.00    +0.000 A 
ATOM     10  O   UNL     1       4.511   3.963  16.455  0.00  0.00    +0.000 OA
ENDROOT
BRANCH   6  11
ATOM     11  N   UNL     1       2.083   8.192  19.037  0.00  0.00    +0.000 N 
ATOM     12  C   UNL     1       1.749   9.390  18.431  0.00  0.00    +0.000 C 
ATOM     13  O   UNL     1       1.952   9.700  17.267  0.00  0.00    +0.000 OA
ATOM     14  H   UNL     1       1.775   8.048  19.990  0.00  0.00    +0.000 HD
BRANCH  12  15
ATOM     15  C   UNL     1       1.069  10.356  19.328  0.00  0.00    +0.000 C 
ATOM     16  C   UNL     1       0.717  11.737  18.810  0.00  0.00    +0.000 C 
ATOM     17  C   UNL     1      -0.370  10.745  19.102  0.00  0.00    +0.000 C 
ATOM     18 CL   UNL     1      -1.294  10.112  17.752  0.00  0.00    +0.000 Cl
ATOM     19 CL   UNL     1      -1.361  11.027  20.537  0.00  0.00    +0.000 Cl
ENDBRANCH  12  15
ENDBRANCH   6  11
TORSDOF 2
ENDMDL
MODEL 9
REMARK VINA RESULT:      -5.9      4.975      8.341
REMARK  Name = 
REMARK  3 active torsions:
REMARK  status: ('A' for Active; 'I' for Inactive)
REMARK    1  A    between atoms: C_1  and  C_2
REMARK    2  A    between atoms: C_6  and  N_7
REMARK    3  A    between atoms: C_8  and  C_10
REMARK                            x       y       z     vdW  Elec       q    Type
REMARK                         _______ _______ _______ _____ _____    ______ ____
ROOT
ATOM      1  C   UNL     1      -1.703  12.536  23.332  0.00  0.00    +0.000 C 
ATOM      2  C   UNL     1      -0.904  11.540  22.590  0.00  0.00    +0.000 A 
ATOM      3  N   UNL     1      -0.226  10.517  23.066  0.00  0.00    +0.000 NA
ATOM      4  C   UNL     1       0.285   9.920  21.943  0.00  0.00    +0.000 A 
ATOM      5  C   UNL     1       1.075   8.775  21.794  0.00  0.00    +0.000 A 
ATOM      6  C   UNL     1       1.445   8.366  20.503  0.00  0.00    +0.000 A 
ATOM      7  C   UNL     1       1.056   9.134  19.388  0.00  0.00    +0.000 A 
ATOM      8  C   UNL     1       0.262  10.287  19.519  0.00  0.00    +0.000 A 
ATOM      9  C   UNL     1      -0.099  10.625  20.816  0.00  0.00    +0.000 A 
ATOM     10  O   UNL     1      -0.870  11.674  21.225  0.00  0.00    +0.000 OA
ENDROOT
BRANCH   6  11
ATOM     11  N   UNL     1       2.198   7.191  20.258  0.00  0.00    +0.000 N 
ATOM     12  C   UNL     1       2.841   6.873  19.075  0.00  0.00    +0.000 C 
ATOM     13  O   UNL     1       2.865   7.544  18.054  0.00  0.00    +0.000 OA
ATOM     14  H   UNL     1       2.337   6.573  21.047  0.00  0.00    +0.000 HD
BRANCH  12  15
ATOM     15  C   UNL     1       3.568   5.580  19.107  0.00  0.00    +0.000 C 
ATOM     16  C   UNL     1       3.033   4.443  19.956  0.00  0.00    +0.000 C 
ATOM     17  C   UNL     1       2.988   4.348  18.459  0.00  0.00    +0.000 C 
ATOM     18 CL   UNL     1       1.418   4.371  17.677  0.00  0.00    +0.000 Cl
ATOM     19 CL   UNL     1       4.124   3.239  17.683  0.00  0.00    +0.000 Cl
ENDBRANCH  12  15
ENDBRANCH   6  11
TORSDOF 2
ENDMDL
