MODEL 1
REMARK VINA RESULT:      -7.5      0.000      0.000
REMARK  Name = 
REMARK  11 active torsions:
REMARK  status: ('A' for Active; 'I' for Inactive)
REMARK    1  A    between atoms: C_1  and  C_2
REMARK    2  A    between atoms: C_2  and  C_3
REMARK    3  A    between atoms: C_2  and  C_4
REMARK    4  A    between atoms: C_4  and  C_5
REMARK    5  A    between atoms: C_4  and  N_6
REMARK    6  A    between atoms: N_6  and  C_7
REMARK    7  A    between atoms: C_7  and  C_8
REMARK    8  A    between atoms: C_13  and  C_15
REMARK    9  A    between atoms: C_18  and  C_19
REMARK   10  A    between atoms: C_19  and  C_20
REMARK   11  A    between atoms: C_20  and  N_21
REMARK                            x       y       z     vdW  Elec       q    Type
REMARK                         _______ _______ _______ _____ _____    ______ ____
ROOT
ATOM      1  N   UNL     1       4.707   4.542  18.730  0.00  0.00    +0.000 N 
ATOM      2  C   UNL     1       5.828   4.771  17.905  0.00  0.00    +0.000 C 
ATOM      3  O   UNL     1       6.180   3.960  17.046  0.00  0.00    +0.000 OA
ENDROOT
BRANCH   2   4
ATOM      4  C   UNL     1       6.643   6.009  17.971  0.00  0.00    +0.000 A 
ATOM      5  C   UNL     1       7.745   6.189  18.798  0.00  0.00    +0.000 A 
ATOM      6  C   UNL     1       8.402   7.417  18.822  0.00  0.00    +0.000 A 
ATOM      7  C   UNL     1       8.028   8.410  17.920  0.00  0.00    +0.000 A 
ATOM      8  N   UNL     1       7.005   8.241  17.052  0.00  0.00    +0.000 NA
ATOM      9  C   UNL     1       6.338   7.054  17.100  0.00  0.00    +0.000 A 
BRANCH   7  10
ATOM     10  C   UNL     1       8.788   9.720  17.875  0.00  0.00    +0.000 C 
BRANCH  10  11
ATOM     11  C   UNL     1       9.241  10.138  19.288  0.00  0.00    +0.000 C 
BRANCH  11  12
ATOM     12  N   UNL     1       9.601  11.560  19.447  0.00  0.00    +0.000 NA
ATOM     13  C   UNL     1      10.258  12.053  18.220  0.00  0.00    +0.000 C 
ATOM     14  C   UNL     1      11.729  11.729  18.406  0.00  0.00    +0.000 C 
ATOM     15  C   UNL     1      11.946  12.001  19.879  0.00  0.00    +0.000 C 
ATOM     16  C   UNL     1      10.580  11.795  20.525  0.00  0.00    +0.000 C 
ENDBRANCH  11  12
ENDBRANCH  10  11
ENDBRANCH   7  10
ENDBRANCH   2   4
BRANCH   1  17
ATOM     17  C   UNL     1       4.050   3.202  18.669  0.00  0.00    +0.000 C 
ATOM     18  C   UNL     1       4.447   2.343  19.879  0.00  0.00    +0.000 C 
BRANCH  17  20
ATOM     19  C   UNL     1       1.795   2.006  18.990  0.00  0.00    +0.000 C 
ATOM     20  C   UNL     1       2.502   3.265  18.466  0.00  0.00    +0.000 C 
ATOM     21  C   UNL     1       2.116   3.458  16.994  0.00  0.00    +0.000 C 
ENDBRANCH  17  20
ENDBRANCH   1  17
BRANCH   1  22
ATOM     22  C   UNL     1       4.162   5.478  19.732  0.00  0.00    +0.000 C 
BRANCH  22  23
ATOM     23  C   UNL     1       3.284   6.537  19.163  0.00  0.00    +0.000 A 
ATOM     24  C   UNL     1       3.048   7.029  17.895  0.00  0.00    +0.000 A 
ATOM     25  C   UNL     1       2.092   8.063  18.036  0.00  0.00    +0.000 A 
ATOM     26  C   UNL     1       1.790   8.132  19.376  0.00  0.00    +0.000 A 
ATOM     27  O   UNL     1       2.498   7.201  20.066  0.00  0.00    +0.000 OA
ENDBRANCH  22  23
ENDBRANCH   1  22
TORSDOF 8
ENDMDL
MODEL 2
REMARK VINA RESULT:      -7.4      0.627      1.098
REMARK  Name = 
REMARK  11 active torsions:
REMARK  status: ('A' for Active; 'I' for Inactive)
REMARK    1  A    between atoms: C_1  and  C_2
REMARK    2  A    between atoms: C_2  and  C_3
REMARK    3  A    between atoms: C_2  and  C_4
REMARK    4  A    between atoms: C_4  and  C_5
REMARK    5  A    between atoms: C_4  and  N_6
REMARK    6  A    between atoms: N_6  and  C_7
REMARK    7  A    between atoms: C_7  and  C_8
REMARK    8  A    between atoms: C_13  and  C_15
REMARK    9  A    between atoms: C_18  and  C_19
REMARK   10  A    between atoms: C_19  and  C_20
REMARK   11  A    between atoms: C_20  and  N_21
REMARK                            x       y       z     vdW  Elec       q    Type
REMARK                         _______ _______ _______ _____ _____    ______ ____
ROOT
ATOM      1  N   UNL     1       4.362   4.604  18.713  0.00  0.00    +0.000 N 
ATOM      2  C   UNL     1       5.486   4.763  17.874  0.00  0.00    +0.000 C 
ATOM      3  O   UNL     1       5.779   3.928  17.017  0.00  0.00    +0.000 OA
ENDROOT
BRANCH   2   4
ATOM      4  C   UNL     1       6.371   5.952  17.923  0.00  0.00    +0.000 A 
ATOM      5  C   UNL     1       7.500   6.065  18.725  0.00  0.00    +0.000 A 
ATOM      6  C   UNL     1       8.228   7.254  18.736  0.00  0.00    +0.000 A 
ATOM      7  C   UNL     1       7.892   8.269  17.843  0.00  0.00    +0.000 A 
ATOM      8  N   UNL     1       6.841   8.161  16.998  0.00  0.00    +0.000 NA
ATOM      9  C   UNL     1       6.108   7.014  17.060  0.00  0.00    +0.000 A 
BRANCH   7  10
ATOM     10  C   UNL     1       8.725   9.532  17.782  0.00  0.00    +0.000 C 
BRANCH  10  11
ATOM     11  C   UNL     1       9.118   9.996  19.200  0.00  0.00    +0.000 C 
BRANCH  11  12
ATOM     12  N   UNL     1      10.234  10.959  19.268  0.00  0.00    +0.000 NA
ATOM     13  C   UNL     1       9.925  12.020  20.248  0.00  0.00    +0.000 C 
ATOM     14  C   UNL     1       9.157  13.067  19.463  0.00  0.00    +0.000 C 
ATOM     15  C   UNL     1       9.867  13.066  18.125  0.00  0.00    +0.000 C 
ATOM     16  C   UNL     1      10.467  11.670  17.997  0.00  0.00    +0.000 C 
ENDBRANCH  11  12
ENDBRANCH  10  11
ENDBRANCH   7  10
ENDBRANCH   2   4
BRANCH   1  17
ATOM     17  C   UNL     1       3.627   3.305  18.667  0.00  0.00    +0.000 C 
ATOM     18  C   UNL     1       4.212   2.311  19.683  0.00  0.00    +0.000 C 
BRANCH  17  20
ATOM     19  C   UNL     1       1.406   2.137  19.233  0.00  0.00    +0.000 C 
ATOM     20  C   UNL     1       2.078   3.449  18.800  0.00  0.00    +0.000 C 
ATOM     21  C   UNL     1       1.424   3.917  17.494  0.00  0.00    +0.000 C 
ENDBRANCH  17  20
ENDBRANCH   1  17
BRANCH   1  22
ATOM     22  C   UNL     1       3.884   5.576  19.714  0.00  0.00    +0.000 C 
BRANCH  22  23
ATOM     23  C   UNL     1       3.087   6.697  19.145  0.00  0.00    +0.000 A 
ATOM     24  C   UNL     1       2.948   7.254  17.890  0.00  0.00    +0.000 A 
ATOM     25  C   UNL     1       2.030   8.321  18.022  0.00  0.00    +0.000 A 
ATOM     26  C   UNL     1       1.651   8.346  19.343  0.00  0.00    +0.000 A 
ATOM     27  O   UNL     1       2.277   7.356  20.030  0.00  0.00    +0.000 OA
ENDBRANCH  22  23
ENDBRANCH   1  22
TORSDOF 8
ENDMDL
MODEL 3
REMARK VINA RESULT:      -7.1      4.433      7.889
REMARK  Name = 
REMARK  11 active torsions:
REMARK  status: ('A' for Active; 'I' for Inactive)
REMARK    1  A    between atoms: C_1  and  C_2
REMARK    2  A    between atoms: C_2  and  C_3
REMARK    3  A    between atoms: C_2  and  C_4
REMARK    4  A    between atoms: C_4  and  C_5
REMARK    5  A    between atoms: C_4  and  N_6
REMARK    6  A    between atoms: N_6  and  C_7
REMARK    7  A    between atoms: C_7  and  C_8
REMARK    8  A    between atoms: C_13  and  C_15
REMARK    9  A    between atoms: C_18  and  C_19
REMARK   10  A    between atoms: C_19  and  C_20
REMARK   11  A    between atoms: C_20  and  N_21
REMARK                            x       y       z     vdW  Elec       q    Type
REMARK                         _______ _______ _______ _____ _____    ______ ____
ROOT
ATOM      1  N   UNL     1       3.311   5.525  17.783  0.00  0.00    +0.000 N 
ATOM      2  C   UNL     1       3.550   6.889  18.054  0.00  0.00    +0.000 C 
ATOM      3  O   UNL     1       4.654   7.405  17.866  0.00  0.00    +0.000 OA
ENDROOT
BRANCH   2   4
ATOM      4  C   UNL     1       2.499   7.815  18.542  0.00  0.00    +0.000 A 
ATOM      5  C   UNL     1       2.044   7.876  19.853  0.00  0.00    +0.000 A 
ATOM      6  C   UNL     1       1.008   8.745  20.188  0.00  0.00    +0.000 A 
ATOM      7  C   UNL     1       0.528   9.638  19.234  0.00  0.00    +0.000 A 
ATOM      8  N   UNL     1       1.000   9.654  17.966  0.00  0.00    +0.000 NA
ATOM      9  C   UNL     1       1.966   8.745  17.651  0.00  0.00    +0.000 A 
BRANCH   7  10
ATOM     10  C   UNL     1      -0.538  10.647  19.606  0.00  0.00    +0.000 C 
BRANCH  10  11
ATOM     11  C   UNL     1      -1.316  11.106  18.356  0.00  0.00    +0.000 C 
BRANCH  11  12
ATOM     12  N   UNL     1      -2.496  10.291  18.005  0.00  0.00    +0.000 NA
ATOM     13  C   UNL     1      -2.362   9.781  16.625  0.00  0.00    +0.000 C 
ATOM     14  C   UNL     1      -2.940  10.875  15.746  0.00  0.00    +0.000 C 
ATOM     15  C   UNL     1      -4.117  11.370  16.560  0.00  0.00    +0.000 C 
ATOM     16  C   UNL     1      -3.755  11.059  18.009  0.00  0.00    +0.000 C 
ENDBRANCH  11  12
ENDBRANCH  10  11
ENDBRANCH   7  10
ENDBRANCH   2   4
BRANCH   1  17
ATOM     17  C   UNL     1       4.477   4.662  17.429  0.00  0.00    +0.000 C 
ATOM     18  C   UNL     1       4.032   3.208  17.209  0.00  0.00    +0.000 C 
BRANCH  17  20
ATOM     19  C   UNL     1       5.220   4.328  14.989  0.00  0.00    +0.000 C 
ATOM     20  C   UNL     1       5.333   5.209  16.242  0.00  0.00    +0.000 C 
ATOM     21  C   UNL     1       6.816   5.341  16.608  0.00  0.00    +0.000 C 
ENDBRANCH  17  20
ENDBRANCH   1  17
BRANCH   1  22
ATOM     22  C   UNL     1       2.014   4.833  17.903  0.00  0.00    +0.000 C 
BRANCH  22  23
ATOM     23  C   UNL     1       1.789   4.182  19.222  0.00  0.00    +0.000 A 
ATOM     24  C   UNL     1       0.927   3.213  19.696  0.00  0.00    +0.000 A 
ATOM     25  C   UNL     1       1.220   3.051  21.070  0.00  0.00    +0.000 A 
ATOM     26  C   UNL     1       2.249   3.917  21.352  0.00  0.00    +0.000 A 
ATOM     27  O   UNL     1       2.611   4.598  20.235  0.00  0.00    +0.000 OA
ENDBRANCH  22  23
ENDBRANCH   1  22
TORSDOF 8
ENDMDL
MODEL 4
REMARK VINA RESULT:      -7.0      1.166      1.776
REMARK  Name = 
REMARK  11 active torsions:
REMARK  status: ('A' for Active; 'I' for Inactive)
REMARK    1  A    between atoms: C_1  and  C_2
REMARK    2  A    between atoms: C_2  and  C_3
REMARK    3  A    between atoms: C_2  and  C_4
REMARK    4  A    between atoms: C_4  and  C_5
REMARK    5  A    between atoms: C_4  and  N_6
REMARK    6  A    between atoms: N_6  and  C_7
REMARK    7  A    between atoms: C_7  and  C_8
REMARK    8  A    between atoms: C_13  and  C_15
REMARK    9  A    between atoms: C_18  and  C_19
REMARK   10  A    between atoms: C_19  and  C_20
REMARK   11  A    between atoms: C_20  and  N_21
REMARK                            x       y       z     vdW  Elec       q    Type
REMARK                         _______ _______ _______ _____ _____    ______ ____
ROOT
ATOM      1  N   UNL     1       4.486   3.796  18.373  0.00  0.00    +0.000 N 
ATOM      2  C   UNL     1       5.227   4.353  17.309  0.00  0.00    +0.000 C 
ATOM      3  O   UNL     1       5.177   3.887  16.169  0.00  0.00    +0.000 OA
ENDROOT
BRANCH   2   4
ATOM      4  C   UNL     1       6.083   5.555  17.460  0.00  0.00    +0.000 A 
ATOM      5  C   UNL     1       7.255   5.603  18.204  0.00  0.00    +0.000 A 
ATOM      6  C   UNL     1       7.951   6.804  18.326  0.00  0.00    +0.000 A 
ATOM      7  C   UNL     1       7.535   7.913  17.592  0.00  0.00    +0.000 A 
ATOM      8  N   UNL     1       6.438   7.878  16.801  0.00  0.00    +0.000 NA
ATOM      9  C   UNL     1       5.740   6.709  16.757  0.00  0.00    +0.000 A 
BRANCH   7  10
ATOM     10  C   UNL     1       8.330   9.201  17.647  0.00  0.00    +0.000 C 
BRANCH  10  11
ATOM     11  C   UNL     1       8.783   9.502  19.090  0.00  0.00    +0.000 C 
BRANCH  11  12
ATOM     12  N   UNL     1       9.934  10.417  19.217  0.00  0.00    +0.000 NA
ATOM     13  C   UNL     1       9.785  11.247  20.430  0.00  0.00    +0.000 C 
ATOM     14  C   UNL     1       8.967  12.445  19.986  0.00  0.00    +0.000 C 
ATOM     15  C   UNL     1       9.509  12.723  18.600  0.00  0.00    +0.000 C 
ATOM     16  C   UNL     1      10.038  11.380  18.106  0.00  0.00    +0.000 C 
ENDBRANCH  11  12
ENDBRANCH  10  11
ENDBRANCH   7  10
ENDBRANCH   2   4
BRANCH   1  17
ATOM     17  C   UNL     1       3.770   2.507  18.134  0.00  0.00    +0.000 C 
ATOM     18  C   UNL     1       3.929   1.564  19.338  0.00  0.00    +0.000 C 
BRANCH  17  20
ATOM     19  C   UNL     1       1.951   4.131  17.315  0.00  0.00    +0.000 C 
ATOM     20  C   UNL     1       2.278   2.681  17.707  0.00  0.00    +0.000 C 
ATOM     21  C   UNL     1       1.303   2.248  18.808  0.00  0.00    +0.000 C 
ENDBRANCH  17  20
ENDBRANCH   1  17
BRANCH   1  22
ATOM     22  C   UNL     1       4.418   4.322  19.750  0.00  0.00    +0.000 C 
BRANCH  22  23
ATOM     23  C   UNL     1       3.286   5.257  19.991  0.00  0.00    +0.000 A 
ATOM     24  C   UNL     1       2.129   5.212  20.743  0.00  0.00    +0.000 A 
ATOM     25  C   UNL     1       1.460   6.440  20.526  0.00  0.00    +0.000 A 
ATOM     26  C   UNL     1       2.251   7.166  19.667  0.00  0.00    +0.000 A 
ATOM     27  O   UNL     1       3.367   6.462  19.348  0.00  0.00    +0.000 OA
ENDBRANCH  22  23
ENDBRANCH   1  22
TORSDOF 8
ENDMDL
MODEL 5
REMARK VINA RESULT:      -6.8      4.515      7.782
REMARK  Name = 
REMARK  11 active torsions:
REMARK  status: ('A' for Active; 'I' for Inactive)
REMARK    1  A    between atoms: C_1  and  C_2
REMARK    2  A    between atoms: C_2  and  C_3
REMARK    3  A    between atoms: C_2  and  C_4
REMARK    4  A    between atoms: C_4  and  C_5
REMARK    5  A    between atoms: C_4  and  N_6
REMARK    6  A    between atoms: N_6  and  C_7
REMARK    7  A    between atoms: C_7  and  C_8
REMARK    8  A    between atoms: C_13  and  C_15
REMARK    9  A    between atoms: C_18  and  C_19
REMARK   10  A    between atoms: C_19  and  C_20
REMARK   11  A    between atoms: C_20  and  N_21
REMARK                            x       y       z     vdW  Elec       q    Type
REMARK                         _______ _______ _______ _____ _____    ______ ____
ROOT
ATOM      1  N   UNL     1       3.208   5.368  17.598  0.00  0.00    +0.000 N 
ATOM      2  C   UNL     1       3.536   6.715  17.863  0.00  0.00    +0.000 C 
ATOM      3  O   UNL     1       4.652   7.173  17.612  0.00  0.00    +0.000 OA
ENDROOT
BRANCH   2   4
ATOM      4  C   UNL     1       2.567   7.690  18.419  0.00  0.00    +0.000 A 
ATOM      5  C   UNL     1       2.152   7.726  19.745  0.00  0.00    +0.000 A 
ATOM      6  C   UNL     1       1.191   8.650  20.147  0.00  0.00    +0.000 A 
ATOM      7  C   UNL     1       0.751   9.616  19.244  0.00  0.00    +0.000 A 
ATOM      8  N   UNL     1       1.189   9.653  17.965  0.00  0.00    +0.000 NA
ATOM      9  C   UNL     1       2.078   8.693  17.584  0.00  0.00    +0.000 A 
BRANCH   7  10
ATOM     10  C   UNL     1      -0.230  10.680  19.689  0.00  0.00    +0.000 C 
BRANCH  10  11
ATOM     11  C   UNL     1      -1.078  11.173  18.500  0.00  0.00    +0.000 C 
BRANCH  11  12
ATOM     12  N   UNL     1      -2.291  10.383  18.212  0.00  0.00    +0.000 NA
ATOM     13  C   UNL     1      -2.215   9.822  16.847  0.00  0.00    +0.000 C 
ATOM     14  C   UNL     1      -2.786  10.903  15.948  0.00  0.00    +0.000 C 
ATOM     15  C   UNL     1      -3.923  11.461  16.778  0.00  0.00    +0.000 C 
ATOM     16  C   UNL     1      -3.527  11.189  18.225  0.00  0.00    +0.000 C 
ENDBRANCH  11  12
ENDBRANCH  10  11
ENDBRANCH   7  10
ENDBRANCH   2   4
BRANCH   1  17
ATOM     17  C   UNL     1       4.303   4.448  17.168  0.00  0.00    +0.000 C 
ATOM     18  C   UNL     1       4.955   4.944  15.868  0.00  0.00    +0.000 C 
BRANCH  17  20
ATOM     19  C   UNL     1       4.940   4.734  19.645  0.00  0.00    +0.000 C 
ATOM     20  C   UNL     1       5.354   4.150  18.285  0.00  0.00    +0.000 C 
ATOM     21  C   UNL     1       6.746   4.689  17.933  0.00  0.00    +0.000 C 
ENDBRANCH  17  20
ENDBRANCH   1  17
BRANCH   1  22
ATOM     22  C   UNL     1       1.885   4.744  17.791  0.00  0.00    +0.000 C 
BRANCH  22  23
ATOM     23  C   UNL     1       1.721   4.054  19.100  0.00  0.00    +0.000 A 
ATOM     24  C   UNL     1       1.299   4.438  20.356  0.00  0.00    +0.000 A 
ATOM     25  C   UNL     1       1.391   3.291  21.179  0.00  0.00    +0.000 A 
ATOM     26  C   UNL     1       1.849   2.273  20.376  0.00  0.00    +0.000 A 
ATOM     27  O   UNL     1       2.039   2.723  19.110  0.00  0.00    +0.000 OA
ENDBRANCH  22  23
ENDBRANCH   1  22
TORSDOF 8
ENDMDL
MODEL 6
REMARK VINA RESULT:      -6.8      4.848      8.001
REMARK  Name = 
REMARK  11 active torsions:
REMARK  status: ('A' for Active; 'I' for Inactive)
REMARK    1  A    between atoms: C_1  and  C_2
REMARK    2  A    between atoms: C_2  and  C_3
REMARK    3  A    between atoms: C_2  and  C_4
REMARK    4  A    between atoms: C_4  and  C_5
REMARK    5  A    between atoms: C_4  and  N_6
REMARK    6  A    between atoms: N_6  and  C_7
REMARK    7  A    between atoms: C_7  and  C_8
REMARK    8  A    between atoms: C_13  and  C_15
REMARK    9  A    between atoms: C_18  and  C_19
REMARK   10  A    between atoms: C_19  and  C_20
REMARK   11  A    between atoms: C_20  and  N_21
REMARK                            x       y       z     vdW  Elec       q    Type
REMARK                         _______ _______ _______ _____ _____    ______ ____
ROOT
ATOM      1  N   UNL     1       3.254   5.782  17.971  0.00  0.00    +0.000 N 
ATOM      2  C   UNL     1       3.446   7.171  18.124  0.00  0.00    +0.000 C 
ATOM      3  O   UNL     1       4.549   7.696  17.956  0.00  0.00    +0.000 OA
ENDROOT
BRANCH   2   4
ATOM      4  C   UNL     1       2.347   8.110  18.454  0.00  0.00    +0.000 A 
ATOM      5  C   UNL     1       1.671   8.894  17.527  0.00  0.00    +0.000 A 
ATOM      6  C   UNL     1       0.692   9.787  17.956  0.00  0.00    +0.000 A 
ATOM      7  C   UNL     1       0.309   9.791  19.296  0.00  0.00    +0.000 A 
ATOM      8  N   UNL     1       0.898   8.988  20.211  0.00  0.00    +0.000 NA
ATOM      9  C   UNL     1       1.899   8.175  19.772  0.00  0.00    +0.000 A 
BRANCH   7  10
ATOM     10  C   UNL     1      -0.813  10.695  19.762  0.00  0.00    +0.000 C 
BRANCH  10  11
ATOM     11  C   UNL     1      -1.621  11.227  18.562  0.00  0.00    +0.000 C 
BRANCH  11  12
ATOM     12  N   UNL     1      -2.821  10.446  18.205  0.00  0.00    +0.000 NA
ATOM     13  C   UNL     1      -2.650   9.843  16.867  0.00  0.00    +0.000 C 
ATOM     14  C   UNL     1      -3.134  10.904  15.896  0.00  0.00    +0.000 C 
ATOM     15  C   UNL     1      -4.322  11.502  16.619  0.00  0.00    +0.000 C 
ATOM     16  C   UNL     1      -4.041  11.268  18.100  0.00  0.00    +0.000 C 
ENDBRANCH  11  12
ENDBRANCH  10  11
ENDBRANCH   7  10
ENDBRANCH   2   4
BRANCH   1  17
ATOM     17  C   UNL     1       4.458   4.920  17.775  0.00  0.00    +0.000 C 
ATOM     18  C   UNL     1       4.966   4.380  19.121  0.00  0.00    +0.000 C 
BRANCH  17  20
ATOM     19  C   UNL     1       4.186   2.396  17.358  0.00  0.00    +0.000 C 
ATOM     20  C   UNL     1       4.262   3.790  16.715  0.00  0.00    +0.000 C 
ATOM     21  C   UNL     1       5.380   3.777  15.666  0.00  0.00    +0.000 C 
ENDBRANCH  17  20
ENDBRANCH   1  17
BRANCH   1  22
ATOM     22  C   UNL     1       1.966   5.069  18.075  0.00  0.00    +0.000 C 
BRANCH  22  23
ATOM     23  C   UNL     1       1.776   4.334  19.356  0.00  0.00    +0.000 A 
ATOM     24  C   UNL     1       1.787   4.685  20.690  0.00  0.00    +0.000 A 
ATOM     25  C   UNL     1       1.551   3.497  21.421  0.00  0.00    +0.000 A 
ATOM     26  C   UNL     1       1.396   2.495  20.492  0.00  0.00    +0.000 A 
ATOM     27  O   UNL     1       1.517   2.995  19.236  0.00  0.00    +0.000 OA
ENDBRANCH  22  23
ENDBRANCH   1  22
TORSDOF 8
ENDMDL
MODEL 7
REMARK VINA RESULT:      -6.8      5.625      9.185
REMARK  Name = 
REMARK  11 active torsions:
REMARK  status: ('A' for Active; 'I' for Inactive)
REMARK    1  A    between atoms: C_1  and  C_2
REMARK    2  A    between atoms: C_2  and  C_3
REMARK    3  A    between atoms: C_2  and  C_4
REMARK    4  A    between atoms: C_4  and  C_5
REMARK    5  A    between atoms: C_4  and  N_6
REMARK    6  A    between atoms: N_6  and  C_7
REMARK    7  A    between atoms: C_7  and  C_8
REMARK    8  A    between atoms: C_13  and  C_15
REMARK    9  A    between atoms: C_18  and  C_19
REMARK   10  A    between atoms: C_19  and  C_20
REMARK   11  A    between atoms: C_20  and  N_21
REMARK                            x       y       z     vdW  Elec       q    Type
REMARK                         _______ _______ _______ _____ _____    ______ ____
ROOT
ATOM      1  N   UNL     1       0.172  11.336  20.144  0.00  0.00    +0.000 N 
ATOM      2  C   UNL     1       0.829  10.232  20.727  0.00  0.00    +0.000 C 
ATOM      3  O   UNL     1       0.950  10.119  21.948  0.00  0.00    +0.000 OA
ENDROOT
BRANCH   2   4
ATOM      4  C   UNL     1       1.384   9.108  19.933  0.00  0.00    +0.000 A 
ATOM      5  C   UNL     1       1.781   9.197  18.605  0.00  0.00    +0.000 A 
ATOM      6  C   UNL     1       2.235   8.061  17.938  0.00  0.00    +0.000 A 
ATOM      7  C   UNL     1       2.409   6.876  18.648  0.00  0.00    +0.000 A 
ATOM      8  N   UNL     1       2.099   6.775  19.961  0.00  0.00    +0.000 NA
ATOM      9  C   UNL     1       1.594   7.885  20.568  0.00  0.00    +0.000 A 
BRANCH   7  10
ATOM     10  C   UNL     1       2.982   5.655  17.959  0.00  0.00    +0.000 C 
BRANCH  10  11
ATOM     11  C   UNL     1       1.913   4.552  17.824  0.00  0.00    +0.000 C 
BRANCH  11  12
ATOM     12  N   UNL     1       2.267   3.246  18.414  0.00  0.00    +0.000 NA
ATOM     13  C   UNL     1       1.069   2.621  19.010  0.00  0.00    +0.000 C 
ATOM     14  C   UNL     1       1.005   3.167  20.424  0.00  0.00    +0.000 C 
ATOM     15  C   UNL     1       2.463   3.211  20.831  0.00  0.00    +0.000 C 
ATOM     16  C   UNL     1       3.234   3.352  19.523  0.00  0.00    +0.000 C 
ENDBRANCH  11  12
ENDBRANCH  10  11
ENDBRANCH   7  10
ENDBRANCH   2   4
BRANCH   1  17
ATOM     17  C   UNL     1      -0.222  12.471  21.031  0.00  0.00    +0.000 C 
ATOM     18  C   UNL     1       0.023  13.819  20.335  0.00  0.00    +0.000 C 
BRANCH  17  20
ATOM     19  C   UNL     1      -2.455  13.666  21.480  0.00  0.00    +0.000 C 
ATOM     20  C   UNL     1      -1.670  12.352  21.606  0.00  0.00    +0.000 C 
ATOM     21  C   UNL     1      -1.678  11.924  23.078  0.00  0.00    +0.000 C 
ENDBRANCH  17  20
ENDBRANCH   1  17
BRANCH   1  22
ATOM     22  C   UNL     1      -0.090  11.527  18.704  0.00  0.00    +0.000 C 
BRANCH  22  23
ATOM     23  C   UNL     1      -1.447  11.096  18.269  0.00  0.00    +0.000 A 
ATOM     24  C   UNL     1      -2.724  11.596  18.425  0.00  0.00    +0.000 A 
ATOM     25  C   UNL     1      -3.592  10.691  17.770  0.00  0.00    +0.000 A 
ATOM     26  C   UNL     1      -2.796   9.703  17.241  0.00  0.00    +0.000 A 
ATOM     27  O   UNL     1      -1.492   9.947  17.526  0.00  0.00    +0.000 OA
ENDBRANCH  22  23
ENDBRANCH   1  22
TORSDOF 8
ENDMDL
MODEL 8
REMARK VINA RESULT:      -6.8      1.415      2.035
REMARK  Name = 
REMARK  11 active torsions:
REMARK  status: ('A' for Active; 'I' for Inactive)
REMARK    1  A    between atoms: C_1  and  C_2
REMARK    2  A    between atoms: C_2  and  C_3
REMARK    3  A    between atoms: C_2  and  C_4
REMARK    4  A    between atoms: C_4  and  C_5
REMARK    5  A    between atoms: C_4  and  N_6
REMARK    6  A    between atoms: N_6  and  C_7
REMARK    7  A    between atoms: C_7  and  C_8
REMARK    8  A    between atoms: C_13  and  C_15
REMARK    9  A    between atoms: C_18  and  C_19
REMARK   10  A    between atoms: C_19  and  C_20
REMARK   11  A    between atoms: C_20  and  N_21
REMARK                            x       y       z     vdW  Elec       q    Type
REMARK                         _______ _______ _______ _____ _____    ______ ____
ROOT
ATOM      1  N   UNL     1       4.345   3.683  18.224  0.00  0.00    +0.000 N 
ATOM      2  C   UNL     1       5.157   4.293  17.245  0.00  0.00    +0.000 C 
ATOM      3  O   UNL     1       5.144   3.925  16.069  0.00  0.00    +0.000 OA
ENDROOT
BRANCH   2   4
ATOM      4  C   UNL     1       6.053   5.439  17.535  0.00  0.00    +0.000 A 
ATOM      5  C   UNL     1       5.930   6.702  16.969  0.00  0.00    +0.000 A 
ATOM      6  C   UNL     1       6.865   7.691  17.268  0.00  0.00    +0.000 A 
ATOM      7  C   UNL     1       7.837   7.442  18.234  0.00  0.00    +0.000 A 
ATOM      8  N   UNL     1       7.940   6.246  18.857  0.00  0.00    +0.000 NA
ATOM      9  C   UNL     1       7.053   5.278  18.492  0.00  0.00    +0.000 A 
BRANCH   7  10
ATOM     10  C   UNL     1       8.808   8.535  18.633  0.00  0.00    +0.000 C 
BRANCH  10  11
ATOM     11  C   UNL     1       8.336   9.904  18.103  0.00  0.00    +0.000 C 
BRANCH  11  12
ATOM     12  N   UNL     1       9.383  10.938  17.989  0.00  0.00    +0.000 NA
ATOM     13  C   UNL     1      10.160  11.008  19.244  0.00  0.00    +0.000 C 
ATOM     14  C   UNL     1       9.394  11.977  20.125  0.00  0.00    +0.000 C 
ATOM     15  C   UNL     1       8.922  13.023  19.138  0.00  0.00    +0.000 C 
ATOM     16  C   UNL     1       8.841  12.296  17.799  0.00  0.00    +0.000 C 
ENDBRANCH  11  12
ENDBRANCH  10  11
ENDBRANCH   7  10
ENDBRANCH   2   4
BRANCH   1  17
ATOM     17  C   UNL     1       3.590   2.451  17.847  0.00  0.00    +0.000 C 
ATOM     18  C   UNL     1       3.887   1.307  18.829  0.00  0.00    +0.000 C 
BRANCH  17  20
ATOM     19  C   UNL     1       1.729   4.149  17.325  0.00  0.00    +0.000 C 
ATOM     20  C   UNL     1       2.058   2.683  17.648  0.00  0.00    +0.000 C 
ATOM     21  C   UNL     1       1.243   2.265  18.878  0.00  0.00    +0.000 C 
ENDBRANCH  17  20
ENDBRANCH   1  17
BRANCH   1  22
ATOM     22  C   UNL     1       4.232   4.096  19.637  0.00  0.00    +0.000 C 
BRANCH  22  23
ATOM     23  C   UNL     1       3.300   5.233  19.867  0.00  0.00    +0.000 A 
ATOM     24  C   UNL     1       3.190   6.517  19.373  0.00  0.00    +0.000 A 
ATOM     25  C   UNL     1       2.076   7.103  20.020  0.00  0.00    +0.000 A 
ATOM     26  C   UNL     1       1.564   6.141  20.858  0.00  0.00    +0.000 A 
ATOM     27  O   UNL     1       2.292   4.999  20.763  0.00  0.00    +0.000 OA
ENDBRANCH  22  23
ENDBRANCH   1  22
TORSDOF 8
ENDMDL
MODEL 9
REMARK VINA RESULT:      -6.8      4.334      8.066
REMARK  Name = 
REMARK  11 active torsions:
REMARK  status: ('A' for Active; 'I' for Inactive)
REMARK    1  A    between atoms: C_1  and  C_2
REMARK    2  A    between atoms: C_2  and  C_3
REMARK    3  A    between atoms: C_2  and  C_4
REMARK    4  A    between atoms: C_4  and  C_5
REMARK    5  A    between atoms: C_4  and  N_6
REMARK    6  A    between atoms: N_6  and  C_7
REMARK    7  A    between atoms: C_7  and  C_8
REMARK    8  A    between atoms: C_13  and  C_15
REMARK    9  A    between atoms: C_18  and  C_19
REMARK   10  A    between atoms: C_19  and  C_20
REMARK   11  A    between atoms: C_20  and  N_21
REMARK                            x       y       z     vdW  Elec       q    Type
REMARK                         _______ _______ _______ _____ _____    ______ ____
ROOT
ATOM      1  N   UNL     1      -0.028  11.435  20.076  0.00  0.00    +0.000 N 
ATOM      2  C   UNL     1       0.699  10.381  20.666  0.00  0.00    +0.000 C 
ATOM      3  O   UNL     1       0.829  10.286  21.888  0.00  0.00    +0.000 OA
ENDROOT
BRANCH   2   4
ATOM      4  C   UNL     1       1.326   9.289  19.881  0.00  0.00    +0.000 A 
ATOM      5  C   UNL     1       1.741   9.402  18.560  0.00  0.00    +0.000 A 
ATOM      6  C   UNL     1       2.264   8.292  17.900  0.00  0.00    +0.000 A 
ATOM      7  C   UNL     1       2.487   7.116  18.611  0.00  0.00    +0.000 A 
ATOM      8  N   UNL     1       2.160   6.995  19.918  0.00  0.00    +0.000 NA
ATOM      9  C   UNL     1       1.587   8.077  20.517  0.00  0.00    +0.000 A 
BRANCH   7  10
ATOM     10  C   UNL     1       3.134   5.928  17.929  0.00  0.00    +0.000 C 
BRANCH  10  11
ATOM     11  C   UNL     1       4.568   5.711  18.453  0.00  0.00    +0.000 C 
BRANCH  11  12
ATOM     12  N   UNL     1       5.621   5.655  17.421  0.00  0.00    +0.000 NA
ATOM     13  C   UNL     1       6.717   4.771  17.867  0.00  0.00    +0.000 C 
ATOM     14  C   UNL     1       7.642   5.668  18.668  0.00  0.00    +0.000 C 
ATOM     15  C   UNL     1       7.609   6.964  17.885  0.00  0.00    +0.000 C 
ATOM     16  C   UNL     1       6.261   6.960  17.171  0.00  0.00    +0.000 C 
ENDBRANCH  11  12
ENDBRANCH  10  11
ENDBRANCH   7  10
ENDBRANCH   2   4
BRANCH   1  17
ATOM     17  C   UNL     1      -0.495  12.549  20.955  0.00  0.00    +0.000 C 
ATOM     18  C   UNL     1      -0.366  13.901  20.236  0.00  0.00    +0.000 C 
BRANCH  17  20
ATOM     19  C   UNL     1      -2.877  13.482  21.224  0.00  0.00    +0.000 C 
ATOM     20  C   UNL     1      -1.919  12.327  21.556  0.00  0.00    +0.000 C 
ATOM     21  C   UNL     1      -1.887  12.150  23.078  0.00  0.00    +0.000 C 
ENDBRANCH  17  20
ENDBRANCH   1  17
BRANCH   1  22
ATOM     22  C   UNL     1      -0.304  11.597  18.635  0.00  0.00    +0.000 C 
BRANCH  22  23
ATOM     23  C   UNL     1      -1.600  11.014  18.192  0.00  0.00    +0.000 A 
ATOM     24  C   UNL     1      -2.024   9.754  17.821  0.00  0.00    +0.000 A 
ATOM     25  C   UNL     1      -3.395   9.872  17.493  0.00  0.00    +0.000 A 
ATOM     26  C   UNL     1      -3.731  11.189  17.696  0.00  0.00    +0.000 A 
ATOM     27  O   UNL     1      -2.652  11.887  18.133  0.00  0.00    +0.000 OA
ENDBRANCH  22  23
ENDBRANCH   1  22
TORSDOF 8
ENDMDL
