MODEL 1
REMARK VINA RESULT:      -6.7      0.000      0.000
REMARK  Name = 
REMARK  6 active torsions:
REMARK  status: ('A' for Active; 'I' for Inactive)
REMARK    1  A    between atoms: C_1  and  N_2
REMARK    2  A    between atoms: N_2  and  C_3
REMARK    3  A    between atoms: C_3  and  C_4
REMARK    4  A    between atoms: C_10  and  C_12
REMARK    5  A    between atoms: C_12  and  C_13
REMARK    6  A    between atoms: C_13  and  C_14
REMARK                            x       y       z     vdW  Elec       q    Type
REMARK                         _______ _______ _______ _____ _____    ______ ____
ROOT
ATOM      1  C   UNL     1       6.037   4.171  15.741  0.00  0.00    +0.000 C 
ATOM      2  N   UNL     1       5.472   4.965  16.826  0.00  0.00    +0.000 N 
ATOM      3  C   UNL     1       5.020   6.240  16.504  0.00  0.00    +0.000 C 
ATOM      4  O   UNL     1       5.106   6.680  15.356  0.00  0.00    +0.000 OA
ENDROOT
BRANCH   2   5
ATOM      5  C   UNL     1       5.258   4.288  18.108  0.00  0.00    +0.000 C 
BRANCH   5   6
ATOM      6  C   UNL     1       3.812   3.992  18.456  0.00  0.00    +0.000 A 
ATOM      7  C   UNL     1       2.796   3.896  17.497  0.00  0.00    +0.000 A 
ATOM      8  C   UNL     1       1.462   3.727  17.881  0.00  0.00    +0.000 A 
ATOM      9  C   UNL     1       1.126   3.647  19.229  0.00  0.00    +0.000 A 
ATOM     10  C   UNL     1       2.127   3.694  20.194  0.00  0.00    +0.000 A 
ATOM     11  C   UNL     1       3.462   3.855  19.811  0.00  0.00    +0.000 A 
ENDBRANCH   5   6
ENDBRANCH   2   5
BRANCH   3  12
ATOM     12  C   UNL     1       4.474   7.116  17.622  0.00  0.00    +0.000 C 
BRANCH  12  13
ATOM     13  C   UNL     1       3.077   7.620  17.269  0.00  0.00    +0.000 C 
BRANCH  13  14
ATOM     14  C   UNL     1       2.308   8.051  18.494  0.00  0.00    +0.000 A 
ATOM     15  C   UNL     1       2.314   7.267  19.655  0.00  0.00    +0.000 A 
ATOM     16  C   UNL     1       1.597   7.672  20.782  0.00  0.00    +0.000 A 
ATOM     17  C   UNL     1       0.866   8.859  20.758  0.00  0.00    +0.000 A 
ATOM     18  C   UNL     1       0.848   9.642  19.606  0.00  0.00    +0.000 A 
ATOM     19  C   UNL     1       1.565   9.239  18.478  0.00  0.00    +0.000 A 
ENDBRANCH  13  14
ENDBRANCH  12  13
ENDBRANCH   3  12
TORSDOF 5
ENDMDL
MODEL 2
REMARK VINA RESULT:      -6.6      1.528      4.322
REMARK  Name = 
REMARK  6 active torsions:
REMARK  status: ('A' for Active; 'I' for Inactive)
REMARK    1  A    between atoms: C_1  and  N_2
REMARK    2  A    between atoms: N_2  and  C_3
REMARK    3  A    between atoms: C_3  and  C_4
REMARK    4  A    between atoms: C_10  and  C_12
REMARK    5  A    between atoms: C_12  and  C_13
REMARK    6  A    between atoms: C_13  and  C_14
REMARK                            x       y       z     vdW  Elec       q    Type
REMARK                         _______ _______ _______ _____ _____    ______ ____
ROOT
ATOM      1  C   UNL     1       7.058   5.298  16.344  0.00  0.00    +0.000 C 
ATOM      2  N   UNL     1       5.785   4.907  16.938  0.00  0.00    +0.000 N 
ATOM      3  C   UNL     1       5.051   3.935  16.269  0.00  0.00    +0.000 C 
ATOM      4  O   UNL     1       5.453   3.437  15.217  0.00  0.00    +0.000 OA
ENDROOT
BRANCH   2   5
ATOM      5  C   UNL     1       5.482   5.430  18.274  0.00  0.00    +0.000 C 
BRANCH   5   6
ATOM      6  C   UNL     1       4.242   6.296  18.369  0.00  0.00    +0.000 A 
ATOM      7  C   UNL     1       3.958   7.332  17.470  0.00  0.00    +0.000 A 
ATOM      8  C   UNL     1       2.856   8.170  17.666  0.00  0.00    +0.000 A 
ATOM      9  C   UNL     1       2.018   7.979  18.761  0.00  0.00    +0.000 A 
ATOM     10  C   UNL     1       2.258   6.927  19.640  0.00  0.00    +0.000 A 
ATOM     11  C   UNL     1       3.355   6.085  19.440  0.00  0.00    +0.000 A 
ENDBRANCH   5   6
ENDBRANCH   2   5
BRANCH   3  12
ATOM     12  C   UNL     1       3.692   3.543  16.831  0.00  0.00    +0.000 C 
BRANCH  12  13
ATOM     13  C   UNL     1       3.842   2.402  17.836  0.00  0.00    +0.000 C 
BRANCH  13  14
ATOM     14  C   UNL     1       2.949   2.590  19.038  0.00  0.00    +0.000 A 
ATOM     15  C   UNL     1       1.579   2.840  18.880  0.00  0.00    +0.000 A 
ATOM     16  C   UNL     1       0.761   3.017  19.997  0.00  0.00    +0.000 A 
ATOM     17  C   UNL     1       1.304   2.952  21.279  0.00  0.00    +0.000 A 
ATOM     18  C   UNL     1       2.666   2.711  21.447  0.00  0.00    +0.000 A 
ATOM     19  C   UNL     1       3.485   2.533  20.331  0.00  0.00    +0.000 A 
ENDBRANCH  13  14
ENDBRANCH  12  13
ENDBRANCH   3  12
TORSDOF 5
ENDMDL
MODEL 3
REMARK VINA RESULT:      -6.6      2.234      5.014
REMARK  Name = 
REMARK  6 active torsions:
REMARK  status: ('A' for Active; 'I' for Inactive)
REMARK    1  A    between atoms: C_1  and  N_2
REMARK    2  A    between atoms: N_2  and  C_3
REMARK    3  A    between atoms: C_3  and  C_4
REMARK    4  A    between atoms: C_10  and  C_12
REMARK    5  A    between atoms: C_12  and  C_13
REMARK    6  A    between atoms: C_13  and  C_14
REMARK                            x       y       z     vdW  Elec       q    Type
REMARK                         _______ _______ _______ _____ _____    ______ ____
ROOT
ATOM      1  C   UNL     1       0.877   3.316  19.383  0.00  0.00    +0.000 C 
ATOM      2  N   UNL     1       2.295   3.654  19.322  0.00  0.00    +0.000 N 
ATOM      3  C   UNL     1       3.055   3.006  18.355  0.00  0.00    +0.000 C 
ATOM      4  O   UNL     1       2.554   2.176  17.595  0.00  0.00    +0.000 OA
ENDROOT
BRANCH   2   5
ATOM      5  C   UNL     1       2.751   4.774  20.151  0.00  0.00    +0.000 C 
BRANCH   5   6
ATOM      6  C   UNL     1       2.352   6.152  19.662  0.00  0.00    +0.000 A 
ATOM      7  C   UNL     1       2.574   6.596  18.353  0.00  0.00    +0.000 A 
ATOM      8  C   UNL     1       2.284   7.914  17.984  0.00  0.00    +0.000 A 
ATOM      9  C   UNL     1       1.762   8.803  18.919  0.00  0.00    +0.000 A 
ATOM     10  C   UNL     1       1.492   8.367  20.212  0.00  0.00    +0.000 A 
ATOM     11  C   UNL     1       1.775   7.048  20.579  0.00  0.00    +0.000 A 
ENDBRANCH   5   6
ENDBRANCH   2   5
BRANCH   3  12
ATOM     12  C   UNL     1       4.548   3.293  18.299  0.00  0.00    +0.000 C 
BRANCH  12  13
ATOM     13  C   UNL     1       4.859   4.273  17.170  0.00  0.00    +0.000 C 
BRANCH  13  14
ATOM     14  C   UNL     1       5.934   5.258  17.559  0.00  0.00    +0.000 A 
ATOM     15  C   UNL     1       6.839   4.960  18.587  0.00  0.00    +0.000 A 
ATOM     16  C   UNL     1       7.827   5.879  18.943  0.00  0.00    +0.000 A 
ATOM     17  C   UNL     1       7.919   7.102  18.281  0.00  0.00    +0.000 A 
ATOM     18  C   UNL     1       7.020   7.410  17.262  0.00  0.00    +0.000 A 
ATOM     19  C   UNL     1       6.031   6.493  16.904  0.00  0.00    +0.000 A 
ENDBRANCH  13  14
ENDBRANCH  12  13
ENDBRANCH   3  12
TORSDOF 5
ENDMDL
MODEL 4
REMARK VINA RESULT:      -6.5      2.215      5.159
REMARK  Name = 
REMARK  6 active torsions:
REMARK  status: ('A' for Active; 'I' for Inactive)
REMARK    1  A    between atoms: C_1  and  N_2
REMARK    2  A    between atoms: N_2  and  C_3
REMARK    3  A    between atoms: C_3  and  C_4
REMARK    4  A    between atoms: C_10  and  C_12
REMARK    5  A    between atoms: C_12  and  C_13
REMARK    6  A    between atoms: C_13  and  C_14
REMARK                            x       y       z     vdW  Elec       q    Type
REMARK                         _______ _______ _______ _____ _____    ______ ____
ROOT
ATOM      1  C   UNL     1       0.838   3.881  19.740  0.00  0.00    +0.000 C 
ATOM      2  N   UNL     1       2.266   4.035  19.486  0.00  0.00    +0.000 N 
ATOM      3  C   UNL     1       2.826   3.207  18.520  0.00  0.00    +0.000 C 
ATOM      4  O   UNL     1       2.148   2.374  17.917  0.00  0.00    +0.000 OA
ENDROOT
BRANCH   2   5
ATOM      5  C   UNL     1       2.942   5.166  20.129  0.00  0.00    +0.000 C 
BRANCH   5   6
ATOM      6  C   UNL     1       2.474   6.539  19.690  0.00  0.00    +0.000 A 
ATOM      7  C   UNL     1       1.823   7.438  20.544  0.00  0.00    +0.000 A 
ATOM      8  C   UNL     1       1.317   8.649  20.060  0.00  0.00    +0.000 A 
ATOM      9  C   UNL     1       1.461   8.980  18.716  0.00  0.00    +0.000 A 
ATOM     10  C   UNL     1       2.146   8.121  17.862  0.00  0.00    +0.000 A 
ATOM     11  C   UNL     1       2.658   6.914  18.347  0.00  0.00    +0.000 A 
ENDBRANCH   5   6
ENDBRANCH   2   5
BRANCH   3  12
ATOM     12  C   UNL     1       4.324   3.302  18.268  0.00  0.00    +0.000 C 
BRANCH  12  13
ATOM     13  C   UNL     1       4.618   4.354  17.201  0.00  0.00    +0.000 C 
BRANCH  13  14
ATOM     14  C   UNL     1       5.760   5.256  17.600  0.00  0.00    +0.000 A 
ATOM     15  C   UNL     1       6.545   4.963  18.722  0.00  0.00    +0.000 A 
ATOM     16  C   UNL     1       7.597   5.805  19.086  0.00  0.00    +0.000 A 
ATOM     17  C   UNL     1       7.871   6.948  18.337  0.00  0.00    +0.000 A 
ATOM     18  C   UNL     1       7.091   7.252  17.223  0.00  0.00    +0.000 A 
ATOM     19  C   UNL     1       6.039   6.412  16.857  0.00  0.00    +0.000 A 
ENDBRANCH  13  14
ENDBRANCH  12  13
ENDBRANCH   3  12
TORSDOF 5
ENDMDL
MODEL 5
REMARK VINA RESULT:      -6.5      2.082      4.978
REMARK  Name = 
REMARK  6 active torsions:
REMARK  status: ('A' for Active; 'I' for Inactive)
REMARK    1  A    between atoms: C_1  and  N_2
REMARK    2  A    between atoms: N_2  and  C_3
REMARK    3  A    between atoms: C_3  and  C_4
REMARK    4  A    between atoms: C_10  and  C_12
REMARK    5  A    between atoms: C_12  and  C_13
REMARK    6  A    between atoms: C_13  and  C_14
REMARK                            x       y       z     vdW  Elec       q    Type
REMARK                         _______ _______ _______ _____ _____    ______ ____
ROOT
ATOM      1  C   UNL     1       7.575   4.512  17.414  0.00  0.00    +0.000 C 
ATOM      2  N   UNL     1       6.258   4.852  16.889  0.00  0.00    +0.000 N 
ATOM      3  C   UNL     1       5.711   6.063  17.299  0.00  0.00    +0.000 C 
ATOM      4  O   UNL     1       6.309   6.807  18.077  0.00  0.00    +0.000 OA
ENDROOT
BRANCH   2   5
ATOM      5  C   UNL     1       5.712   3.986  15.841  0.00  0.00    +0.000 C 
BRANCH   5   6
ATOM      6  C   UNL     1       6.340   4.145  14.471  0.00  0.00    +0.000 A 
ATOM      7  C   UNL     1       7.344   5.081  14.190  0.00  0.00    +0.000 A 
ATOM      8  C   UNL     1       7.813   5.260  12.885  0.00  0.00    +0.000 A 
ATOM      9  C   UNL     1       7.288   4.501  11.843  0.00  0.00    +0.000 A 
ATOM     10  C   UNL     1       6.324   3.534  12.109  0.00  0.00    +0.000 A 
ATOM     11  C   UNL     1       5.860   3.350  13.414  0.00  0.00    +0.000 A 
ENDBRANCH   5   6
ENDBRANCH   2   5
BRANCH   3  12
ATOM     12  C   UNL     1       4.314   6.424  16.814  0.00  0.00    +0.000 C 
BRANCH  12  13
ATOM     13  C   UNL     1       3.461   6.926  17.977  0.00  0.00    +0.000 C 
BRANCH  13  14
ATOM     14  C   UNL     1       2.634   5.820  18.587  0.00  0.00    +0.000 A 
ATOM     15  C   UNL     1       2.278   5.857  19.941  0.00  0.00    +0.000 A 
ATOM     16  C   UNL     1       1.516   4.828  20.497  0.00  0.00    +0.000 A 
ATOM     17  C   UNL     1       1.109   3.753  19.709  0.00  0.00    +0.000 A 
ATOM     18  C   UNL     1       1.465   3.704  18.363  0.00  0.00    +0.000 A 
ATOM     19  C   UNL     1       2.226   4.732  17.805  0.00  0.00    +0.000 A 
ENDBRANCH  13  14
ENDBRANCH  12  13
ENDBRANCH   3  12
TORSDOF 5
ENDMDL
MODEL 6
REMARK VINA RESULT:      -6.5      2.051      4.903
REMARK  Name = 
REMARK  6 active torsions:
REMARK  status: ('A' for Active; 'I' for Inactive)
REMARK    1  A    between atoms: C_1  and  N_2
REMARK    2  A    between atoms: N_2  and  C_3
REMARK    3  A    between atoms: C_3  and  C_4
REMARK    4  A    between atoms: C_10  and  C_12
REMARK    5  A    between atoms: C_12  and  C_13
REMARK    6  A    between atoms: C_13  and  C_14
REMARK                            x       y       z     vdW  Elec       q    Type
REMARK                         _______ _______ _______ _____ _____    ______ ____
ROOT
ATOM      1  C   UNL     1       7.621   4.519  17.384  0.00  0.00    +0.000 C 
ATOM      2  N   UNL     1       6.268   4.821  16.932  0.00  0.00    +0.000 N 
ATOM      3  C   UNL     1       5.728   6.039  17.330  0.00  0.00    +0.000 C 
ATOM      4  O   UNL     1       6.362   6.820  18.041  0.00  0.00    +0.000 OA
ENDROOT
BRANCH   2   5
ATOM      5  C   UNL     1       5.671   3.908  15.952  0.00  0.00    +0.000 C 
BRANCH   5   6
ATOM      6  C   UNL     1       6.135   4.094  14.521  0.00  0.00    +0.000 A 
ATOM      7  C   UNL     1       5.628   3.352  13.447  0.00  0.00    +0.000 A 
ATOM      8  C   UNL     1       6.167   3.488  12.164  0.00  0.00    +0.000 A 
ATOM      9  C   UNL     1       7.218   4.371  11.937  0.00  0.00    +0.000 A 
ATOM     10  C   UNL     1       7.706   5.149  12.982  0.00  0.00    +0.000 A 
ATOM     11  C   UNL     1       7.162   5.020  14.263  0.00  0.00    +0.000 A 
ENDBRANCH   5   6
ENDBRANCH   2   5
BRANCH   3  12
ATOM     12  C   UNL     1       4.298   6.362  16.921  0.00  0.00    +0.000 C 
BRANCH  12  13
ATOM     13  C   UNL     1       3.475   6.769  18.142  0.00  0.00    +0.000 C 
BRANCH  13  14
ATOM     14  C   UNL     1       2.617   5.634  18.645  0.00  0.00    +0.000 A 
ATOM     15  C   UNL     1       2.218   5.579  19.987  0.00  0.00    +0.000 A 
ATOM     16  C   UNL     1       1.427   4.524  20.444  0.00  0.00    +0.000 A 
ATOM     17  C   UNL     1       1.032   3.514  19.569  0.00  0.00    +0.000 A 
ATOM     18  C   UNL     1       1.429   3.556  18.234  0.00  0.00    +0.000 A 
ATOM     19  C   UNL     1       2.220   4.610  17.774  0.00  0.00    +0.000 A 
ENDBRANCH  13  14
ENDBRANCH  12  13
ENDBRANCH   3  12
TORSDOF 5
ENDMDL
MODEL 7
REMARK VINA RESULT:      -6.5      1.647      2.722
REMARK  Name = 
REMARK  6 active torsions:
REMARK  status: ('A' for Active; 'I' for Inactive)
REMARK    1  A    between atoms: C_1  and  N_2
REMARK    2  A    between atoms: N_2  and  C_3
REMARK    3  A    between atoms: C_3  and  C_4
REMARK    4  A    between atoms: C_10  and  C_12
REMARK    5  A    between atoms: C_12  and  C_13
REMARK    6  A    between atoms: C_13  and  C_14
REMARK                            x       y       z     vdW  Elec       q    Type
REMARK                         _______ _______ _______ _____ _____    ______ ____
ROOT
ATOM      1  C   UNL     1       6.756   4.925  15.556  0.00  0.00    +0.000 C 
ATOM      2  N   UNL     1       6.076   5.525  16.698  0.00  0.00    +0.000 N 
ATOM      3  C   UNL     1       5.192   6.564  16.430  0.00  0.00    +0.000 C 
ATOM      4  O   UNL     1       5.003   6.965  15.281  0.00  0.00    +0.000 OA
ENDROOT
BRANCH   2   5
ATOM      5  C   UNL     1       6.238   4.863  17.996  0.00  0.00    +0.000 C 
BRANCH   5   6
ATOM      6  C   UNL     1       5.230   3.773  18.303  0.00  0.00    +0.000 A 
ATOM      7  C   UNL     1       4.989   3.292  19.596  0.00  0.00    +0.000 A 
ATOM      8  C   UNL     1       4.127   2.212  19.810  0.00  0.00    +0.000 A 
ATOM      9  C   UNL     1       3.490   1.602  18.734  0.00  0.00    +0.000 A 
ATOM     10  C   UNL     1       3.681   2.095  17.447  0.00  0.00    +0.000 A 
ATOM     11  C   UNL     1       4.536   3.179  17.233  0.00  0.00    +0.000 A 
ENDBRANCH   5   6
ENDBRANCH   2   5
BRANCH   3  12
ATOM     12  C   UNL     1       4.507   7.249  17.603  0.00  0.00    +0.000 C 
BRANCH  12  13
ATOM     13  C   UNL     1       2.989   7.173  17.451  0.00  0.00    +0.000 C 
BRANCH  13  14
ATOM     14  C   UNL     1       2.380   6.153  18.382  0.00  0.00    +0.000 A 
ATOM     15  C   UNL     1       2.515   6.282  19.771  0.00  0.00    +0.000 A 
ATOM     16  C   UNL     1       1.952   5.331  20.624  0.00  0.00    +0.000 A 
ATOM     17  C   UNL     1       1.256   4.243  20.100  0.00  0.00    +0.000 A 
ATOM     18  C   UNL     1       1.123   4.103  18.720  0.00  0.00    +0.000 A 
ATOM     19  C   UNL     1       1.684   5.052  17.865  0.00  0.00    +0.000 A 
ENDBRANCH  13  14
ENDBRANCH  12  13
ENDBRANCH   3  12
TORSDOF 5
ENDMDL
MODEL 8
REMARK VINA RESULT:      -6.5      2.740      5.361
REMARK  Name = 
REMARK  6 active torsions:
REMARK  status: ('A' for Active; 'I' for Inactive)
REMARK    1  A    between atoms: C_1  and  N_2
REMARK    2  A    between atoms: N_2  and  C_3
REMARK    3  A    between atoms: C_3  and  C_4
REMARK    4  A    between atoms: C_10  and  C_12
REMARK    5  A    between atoms: C_12  and  C_13
REMARK    6  A    between atoms: C_13  and  C_14
REMARK                            x       y       z     vdW  Elec       q    Type
REMARK                         _______ _______ _______ _____ _____    ______ ____
ROOT
ATOM      1  C   UNL     1       7.841   4.396  17.589  0.00  0.00    +0.000 C 
ATOM      2  N   UNL     1       6.560   4.889  17.094  0.00  0.00    +0.000 N 
ATOM      3  C   UNL     1       5.441   4.628  17.876  0.00  0.00    +0.000 C 
ATOM      4  O   UNL     1       5.527   3.998  18.931  0.00  0.00    +0.000 OA
ENDROOT
BRANCH   2   5
ATOM      5  C   UNL     1       6.591   5.771  15.924  0.00  0.00    +0.000 C 
BRANCH   5   6
ATOM      6  C   UNL     1       6.540   5.073  14.580  0.00  0.00    +0.000 A 
ATOM      7  C   UNL     1       5.558   4.134  14.238  0.00  0.00    +0.000 A 
ATOM      8  C   UNL     1       5.620   3.441  13.025  0.00  0.00    +0.000 A 
ATOM      9  C   UNL     1       6.663   3.680  12.135  0.00  0.00    +0.000 A 
ATOM     10  C   UNL     1       7.622   4.642  12.436  0.00  0.00    +0.000 A 
ATOM     11  C   UNL     1       7.556   5.341  13.644  0.00  0.00    +0.000 A 
ENDBRANCH   5   6
ENDBRANCH   2   5
BRANCH   3  12
ATOM     12  C   UNL     1       4.082   5.080  17.363  0.00  0.00    +0.000 C 
BRANCH  12  13
ATOM     13  C   UNL     1       3.119   3.897  17.293  0.00  0.00    +0.000 C 
BRANCH  13  14
ATOM     14  C   UNL     1       2.423   3.659  18.610  0.00  0.00    +0.000 A 
ATOM     15  C   UNL     1       1.922   4.733  19.359  0.00  0.00    +0.000 A 
ATOM     16  C   UNL     1       1.284   4.504  20.579  0.00  0.00    +0.000 A 
ATOM     17  C   UNL     1       1.143   3.205  21.064  0.00  0.00    +0.000 A 
ATOM     18  C   UNL     1       1.644   2.131  20.330  0.00  0.00    +0.000 A 
ATOM     19  C   UNL     1       2.282   2.357  19.110  0.00  0.00    +0.000 A 
ENDBRANCH  13  14
ENDBRANCH  12  13
ENDBRANCH   3  12
TORSDOF 5
ENDMDL
MODEL 9
REMARK VINA RESULT:      -6.5      2.363      5.488
REMARK  Name = 
REMARK  6 active torsions:
REMARK  status: ('A' for Active; 'I' for Inactive)
REMARK    1  A    between atoms: C_1  and  N_2
REMARK    2  A    between atoms: N_2  and  C_3
REMARK    3  A    between atoms: C_3  and  C_4
REMARK    4  A    between atoms: C_10  and  C_12
REMARK    5  A    between atoms: C_12  and  C_13
REMARK    6  A    between atoms: C_13  and  C_14
REMARK                            x       y       z     vdW  Elec       q    Type
REMARK                         _______ _______ _______ _____ _____    ______ ____
ROOT
ATOM      1  C   UNL     1       2.477   8.495  17.903  0.00  0.00    +0.000 C 
ATOM      2  N   UNL     1       2.731   7.256  18.630  0.00  0.00    +0.000 N 
ATOM      3  C   UNL     1       2.138   7.128  19.880  0.00  0.00    +0.000 C 
ATOM      4  O   UNL     1       1.441   8.026  20.356  0.00  0.00    +0.000 OA
ENDROOT
BRANCH   2   5
ATOM      5  C   UNL     1       3.427   6.187  17.907  0.00  0.00    +0.000 C 
BRANCH   5   6
ATOM      6  C   UNL     1       4.933   6.162  18.072  0.00  0.00    +0.000 A 
ATOM      7  C   UNL     1       5.583   5.438  19.080  0.00  0.00    +0.000 A 
ATOM      8  C   UNL     1       6.967   5.535  19.254  0.00  0.00    +0.000 A 
ATOM      9  C   UNL     1       7.721   6.353  18.418  0.00  0.00    +0.000 A 
ATOM     10  C   UNL     1       7.100   7.044  17.382  0.00  0.00    +0.000 A 
ATOM     11  C   UNL     1       5.718   6.941  17.203  0.00  0.00    +0.000 A 
ENDBRANCH   5   6
ENDBRANCH   2   5
BRANCH   3  12
ATOM     12  C   UNL     1       2.426   5.872  20.690  0.00  0.00    +0.000 C 
BRANCH  12  13
ATOM     13  C   UNL     1       1.459   4.755  20.301  0.00  0.00    +0.000 C 
BRANCH  13  14
ATOM     14  C   UNL     1       2.164   3.619  19.601  0.00  0.00    +0.000 A 
ATOM     15  C   UNL     1       3.305   3.031  20.162  0.00  0.00    +0.000 A 
ATOM     16  C   UNL     1       3.953   1.983  19.506  0.00  0.00    +0.000 A 
ATOM     17  C   UNL     1       3.471   1.517  18.284  0.00  0.00    +0.000 A 
ATOM     18  C   UNL     1       2.340   2.100  17.715  0.00  0.00    +0.000 A 
ATOM     19  C   UNL     1       1.691   3.147  18.369  0.00  0.00    +0.000 A 
ENDBRANCH  13  14
ENDBRANCH  12  13
ENDBRANCH   3  12
TORSDOF 5
ENDMDL
