MODEL 1
REMARK VINA RESULT:      -7.1      0.000      0.000
REMARK  Name = 
REMARK  3 active torsions:
REMARK  status: ('A' for Active; 'I' for Inactive)
REMARK    1  A    between atoms: C_1  and  O_2
REMARK    2  A    between atoms: O_2  and  C_3
REMARK    3  A    between atoms: N_18  and  C_19
REMARK                            x       y       z     vdW  Elec       q    Type
REMARK                         _______ _______ _______ _____ _____    ______ ____
ROOT
ATOM      1  C   UNL     1       2.752   3.086  19.314  0.00  0.00    +0.000 A 
ATOM      2  C   UNL     1       2.169   3.267  18.059  0.00  0.00    +0.000 A 
ATOM      3  C   UNL     1       2.950   3.675  16.973  0.00  0.00    +0.000 A 
ATOM      4  C   UNL     1       4.316   3.943  17.134  0.00  0.00    +0.000 A 
ATOM      5  C   UNL     1       4.883   3.801  18.396  0.00  0.00    +0.000 A 
ATOM      6  C   UNL     1       4.117   3.356  19.476  0.00  0.00    +0.000 A 
ATOM      7  O   UNL     1       6.237   3.918  18.573  0.00  0.00    +0.000 OA
ATOM      8  C   UNL     1       6.761   5.172  18.402  0.00  0.00    +0.000 A 
ATOM      9  N   UNL     1       7.663   5.483  19.373  0.00  0.00    +0.000 NA
ATOM     10  C   UNL     1       8.294   6.673  19.288  0.00  0.00    +0.000 A 
ATOM     11  C   UNL     1       8.044   7.601  18.298  0.00  0.00    +0.000 A 
ATOM     12  C   UNL     1       7.126   7.265  17.308  0.00  0.00    +0.000 A 
ATOM     13  C   UNL     1       6.497   6.009  17.325  0.00  0.00    +0.000 A 
ATOM     14  C   UNL     1       5.786   5.592  16.089  0.00  0.00    +0.000 C 
ATOM     15  O   UNL     1       5.900   6.304  15.092  0.00  0.00    +0.000 OA
ATOM     16  N   UNL     1       5.095   4.389  16.040  0.00  0.00    +0.000 N 
ATOM     17  C   UNL     1       4.981   3.701  14.769  0.00  0.00    +0.000 C 
ENDROOT
BRANCH   1  19
ATOM     18  C   UNL     1       2.206   3.531  21.571  0.00  0.00    +0.000 C 
ATOM     19  O   UNL     1       2.093   2.678  20.436  0.00  0.00    +0.000 OA
ENDBRANCH   1  19
TORSDOF 1
ENDMDL
MODEL 2
REMARK VINA RESULT:      -7.0      3.276      5.697
REMARK  Name = 
REMARK  3 active torsions:
REMARK  status: ('A' for Active; 'I' for Inactive)
REMARK    1  A    between atoms: C_1  and  O_2
REMARK    2  A    between atoms: O_2  and  C_3
REMARK    3  A    between atoms: N_18  and  C_19
REMARK                            x       y       z     vdW  Elec       q    Type
REMARK                         _______ _______ _______ _____ _____    ______ ____
ROOT
ATOM      1  C   UNL     1       6.585   6.180  17.445  0.00  0.00    +0.000 A 
ATOM      2  C   UNL     1       6.622   4.946  18.098  0.00  0.00    +0.000 A 
ATOM      3  C   UNL     1       5.449   4.395  18.626  0.00  0.00    +0.000 A 
ATOM      4  C   UNL     1       4.233   5.085  18.542  0.00  0.00    +0.000 A 
ATOM      5  C   UNL     1       4.210   6.332  17.927  0.00  0.00    +0.000 A 
ATOM      6  C   UNL     1       5.370   6.870  17.363  0.00  0.00    +0.000 A 
ATOM      7  O   UNL     1       3.024   6.980  17.700  0.00  0.00    +0.000 OA
ATOM      8  C   UNL     1       2.365   7.438  18.810  0.00  0.00    +0.000 A 
ATOM      9  N   UNL     1       1.883   8.699  18.633  0.00  0.00    +0.000 NA
ATOM     10  C   UNL     1       1.165   9.245  19.636  0.00  0.00    +0.000 A 
ATOM     11  C   UNL     1       0.931   8.612  20.840  0.00  0.00    +0.000 A 
ATOM     12  C   UNL     1       1.422   7.322  21.003  0.00  0.00    +0.000 A 
ATOM     13  C   UNL     1       2.118   6.693  19.957  0.00  0.00    +0.000 A 
ATOM     14  C   UNL     1       2.333   5.228  20.072  0.00  0.00    +0.000 C 
ATOM     15  O   UNL     1       1.781   4.637  20.999  0.00  0.00    +0.000 OA
ATOM     16  N   UNL     1       3.056   4.540  19.108  0.00  0.00    +0.000 N 
ATOM     17  C   UNL     1       2.733   3.149  18.853  0.00  0.00    +0.000 C 
ENDROOT
BRANCH   1  19
ATOM     18  C   UNL     1       8.012   8.065  17.439  0.00  0.00    +0.000 C 
ATOM     19  O   UNL     1       7.659   6.803  16.881  0.00  0.00    +0.000 OA
ENDBRANCH   1  19
TORSDOF 1
ENDMDL
MODEL 3
REMARK VINA RESULT:      -6.9      4.587      5.289
REMARK  Name = 
REMARK  3 active torsions:
REMARK  status: ('A' for Active; 'I' for Inactive)
REMARK    1  A    between atoms: C_1  and  O_2
REMARK    2  A    between atoms: O_2  and  C_3
REMARK    3  A    between atoms: N_18  and  C_19
REMARK                            x       y       z     vdW  Elec       q    Type
REMARK                         _______ _______ _______ _____ _____    ______ ____
ROOT
ATOM      1  C   UNL     1       1.528   3.740  19.766  0.00  0.00    +0.000 A 
ATOM      2  C   UNL     1       1.867   3.827  18.415  0.00  0.00    +0.000 A 
ATOM      3  C   UNL     1       2.331   5.034  17.882  0.00  0.00    +0.000 A 
ATOM      4  C   UNL     1       2.427   6.180  18.684  0.00  0.00    +0.000 A 
ATOM      5  C   UNL     1       2.048   6.099  20.019  0.00  0.00    +0.000 A 
ATOM      6  C   UNL     1       1.622   4.885  20.566  0.00  0.00    +0.000 A 
ATOM      7  O   UNL     1       2.254   7.152  20.871  0.00  0.00    +0.000 OA
ATOM      8  C   UNL     1       1.487   8.265  20.650  0.00  0.00    +0.000 A 
ATOM      9  N   UNL     1       0.992   8.781  21.808  0.00  0.00    +0.000 NA
ATOM     10  C   UNL     1       0.263   9.914  21.731  0.00  0.00    +0.000 A 
ATOM     11  C   UNL     1      -0.039  10.549  20.544  0.00  0.00    +0.000 A 
ATOM     12  C   UNL     1       0.481  10.014  19.370  0.00  0.00    +0.000 A 
ATOM     13  C   UNL     1       1.299   8.873  19.414  0.00  0.00    +0.000 A 
ATOM     14  C   UNL     1       2.072   8.546  18.188  0.00  0.00    +0.000 C 
ATOM     15  O   UNL     1       2.053   9.357  17.263  0.00  0.00    +0.000 OA
ATOM     16  N   UNL     1       2.864   7.408  18.132  0.00  0.00    +0.000 N 
ATOM     17  C   UNL     1       4.046   7.420  17.292  0.00  0.00    +0.000 C 
ENDROOT
BRANCH   1  19
ATOM     18  C   UNL     1       1.397   2.506  21.779  0.00  0.00    +0.000 C 
ATOM     19  O   UNL     1       1.081   2.615  20.395  0.00  0.00    +0.000 OA
ENDBRANCH   1  19
TORSDOF 1
ENDMDL
MODEL 4
REMARK VINA RESULT:      -6.6      2.058      5.643
REMARK  Name = 
REMARK  3 active torsions:
REMARK  status: ('A' for Active; 'I' for Inactive)
REMARK    1  A    between atoms: C_1  and  O_2
REMARK    2  A    between atoms: O_2  and  C_3
REMARK    3  A    between atoms: N_18  and  C_19
REMARK                            x       y       z     vdW  Elec       q    Type
REMARK                         _______ _______ _______ _____ _____    ______ ____
ROOT
ATOM      1  C   UNL     1       6.388   4.268  14.353  0.00  0.00    +0.000 A 
ATOM      2  C   UNL     1       6.904   5.431  14.926  0.00  0.00    +0.000 A 
ATOM      3  C   UNL     1       6.691   5.703  16.281  0.00  0.00    +0.000 A 
ATOM      4  C   UNL     1       5.927   4.836  17.074  0.00  0.00    +0.000 A 
ATOM      5  C   UNL     1       5.380   3.699  16.488  0.00  0.00    +0.000 A 
ATOM      6  C   UNL     1       5.623   3.402  15.145  0.00  0.00    +0.000 A 
ATOM      7  O   UNL     1       4.745   2.754  17.251  0.00  0.00    +0.000 OA
ATOM      8  C   UNL     1       3.549   3.131  17.803  0.00  0.00    +0.000 A 
ATOM      9  N   UNL     1       2.605   2.157  17.685  0.00  0.00    +0.000 NA
ATOM     10  C   UNL     1       1.395   2.382  18.239  0.00  0.00    +0.000 A 
ATOM     11  C   UNL     1       1.055   3.557  18.878  0.00  0.00    +0.000 A 
ATOM     12  C   UNL     1       2.033   4.538  18.999  0.00  0.00    +0.000 A 
ATOM     13  C   UNL     1       3.324   4.316  18.493  0.00  0.00    +0.000 A 
ATOM     14  C   UNL     1       4.392   5.252  18.929  0.00  0.00    +0.000 C 
ATOM     15  O   UNL     1       4.114   6.076  19.799  0.00  0.00    +0.000 OA
ATOM     16  N   UNL     1       5.684   5.132  18.436  0.00  0.00    +0.000 N 
ATOM     17  C   UNL     1       6.792   5.550  19.273  0.00  0.00    +0.000 C 
ENDROOT
BRANCH   1  19
ATOM     18  C   UNL     1       5.384   3.388  12.402  0.00  0.00    +0.000 C 
ATOM     19  O   UNL     1       6.546   3.895  13.051  0.00  0.00    +0.000 OA
ENDBRANCH   1  19
TORSDOF 1
ENDMDL
MODEL 5
REMARK VINA RESULT:      -6.6      3.313      5.593
REMARK  Name = 
REMARK  3 active torsions:
REMARK  status: ('A' for Active; 'I' for Inactive)
REMARK    1  A    between atoms: C_1  and  O_2
REMARK    2  A    between atoms: O_2  and  C_3
REMARK    3  A    between atoms: N_18  and  C_19
REMARK                            x       y       z     vdW  Elec       q    Type
REMARK                         _______ _______ _______ _____ _____    ______ ____
ROOT
ATOM      1  C   UNL     1       6.318   5.453  16.758  0.00  0.00    +0.000 A 
ATOM      2  C   UNL     1       6.441   4.451  17.722  0.00  0.00    +0.000 A 
ATOM      3  C   UNL     1       5.358   4.133  18.548  0.00  0.00    +0.000 A 
ATOM      4  C   UNL     1       4.150   4.836  18.447  0.00  0.00    +0.000 A 
ATOM      5  C   UNL     1       4.046   5.861  17.513  0.00  0.00    +0.000 A 
ATOM      6  C   UNL     1       5.112   6.157  16.658  0.00  0.00    +0.000 A 
ATOM      7  O   UNL     1       2.846   6.482  17.284  0.00  0.00    +0.000 OA
ATOM      8  C   UNL     1       2.370   7.267  18.301  0.00  0.00    +0.000 A 
ATOM      9  N   UNL     1       1.879   8.451  17.843  0.00  0.00    +0.000 NA
ATOM     10  C   UNL     1       1.329   9.294  18.742  0.00  0.00    +0.000 A 
ATOM     11  C   UNL     1       1.275   9.037  20.096  0.00  0.00    +0.000 A 
ATOM     12  C   UNL     1       1.772   7.819  20.547  0.00  0.00    +0.000 A 
ATOM     13  C   UNL     1       2.294   6.887  19.635  0.00  0.00    +0.000 A 
ATOM     14  C   UNL     1       2.508   5.503  20.130  0.00  0.00    +0.000 C 
ATOM     15  O   UNL     1       2.098   5.225  21.256  0.00  0.00    +0.000 OA
ATOM     16  N   UNL     1       3.068   4.534  19.308  0.00  0.00    +0.000 N 
ATOM     17  C   UNL     1       2.695   3.147  19.508  0.00  0.00    +0.000 C 
ENDROOT
BRANCH   1  19
ATOM     18  C   UNL     1       7.327   5.156  14.641  0.00  0.00    +0.000 C 
ATOM     19  O   UNL     1       7.300   5.836  15.892  0.00  0.00    +0.000 OA
ENDBRANCH   1  19
TORSDOF 1
ENDMDL
MODEL 6
REMARK VINA RESULT:      -6.6      3.160      5.453
REMARK  Name = 
REMARK  3 active torsions:
REMARK  status: ('A' for Active; 'I' for Inactive)
REMARK    1  A    between atoms: C_1  and  O_2
REMARK    2  A    between atoms: O_2  and  C_3
REMARK    3  A    between atoms: N_18  and  C_19
REMARK                            x       y       z     vdW  Elec       q    Type
REMARK                         _______ _______ _______ _____ _____    ______ ____
ROOT
ATOM      1  C   UNL     1       2.587   8.183  17.610  0.00  0.00    +0.000 A 
ATOM      2  C   UNL     1       3.947   8.051  17.326  0.00  0.00    +0.000 A 
ATOM      3  C   UNL     1       4.557   6.792  17.372  0.00  0.00    +0.000 A 
ATOM      4  C   UNL     1       3.824   5.655  17.739  0.00  0.00    +0.000 A 
ATOM      5  C   UNL     1       2.479   5.799  18.061  0.00  0.00    +0.000 A 
ATOM      6  C   UNL     1       1.855   7.047  17.978  0.00  0.00    +0.000 A 
ATOM      7  O   UNL     1       1.691   4.701  18.290  0.00  0.00    +0.000 OA
ATOM      8  C   UNL     1       1.961   3.995  19.432  0.00  0.00    +0.000 A 
ATOM      9  N   UNL     1       0.824   3.646  20.095  0.00  0.00    +0.000 NA
ATOM     10  C   UNL     1       0.951   2.898  21.211  0.00  0.00    +0.000 A 
ATOM     11  C   UNL     1       2.166   2.505  21.733  0.00  0.00    +0.000 A 
ATOM     12  C   UNL     1       3.317   2.861  21.039  0.00  0.00    +0.000 A 
ATOM     13  C   UNL     1       3.224   3.584  19.839  0.00  0.00    +0.000 A 
ATOM     14  C   UNL     1       4.445   3.653  18.994  0.00  0.00    +0.000 C 
ATOM     15  O   UNL     1       5.414   2.972  19.327  0.00  0.00    +0.000 OA
ATOM     16  N   UNL     1       4.452   4.389  17.818  0.00  0.00    +0.000 N 
ATOM     17  C   UNL     1       5.314   3.964  16.732  0.00  0.00    +0.000 C 
ENDROOT
BRANCH   1  19
ATOM     18  C   UNL     1       1.080   9.626  18.722  0.00  0.00    +0.000 C 
ATOM     19  O   UNL     1       1.888   9.354  17.581  0.00  0.00    +0.000 OA
ENDBRANCH   1  19
TORSDOF 1
ENDMDL
MODEL 7
REMARK VINA RESULT:      -6.4      2.475      5.642
REMARK  Name = 
REMARK  3 active torsions:
REMARK  status: ('A' for Active; 'I' for Inactive)
REMARK    1  A    between atoms: C_1  and  O_2
REMARK    2  A    between atoms: O_2  and  C_3
REMARK    3  A    between atoms: N_18  and  C_19
REMARK                            x       y       z     vdW  Elec       q    Type
REMARK                         _______ _______ _______ _____ _____    ______ ____
ROOT
ATOM      1  C   UNL     1       6.084   4.157  14.325  0.00  0.00    +0.000 A 
ATOM      2  C   UNL     1       5.833   5.529  14.271  0.00  0.00    +0.000 A 
ATOM      3  C   UNL     1       5.239   6.179  15.359  0.00  0.00    +0.000 A 
ATOM      4  C   UNL     1       4.855   5.461  16.499  0.00  0.00    +0.000 A 
ATOM      5  C   UNL     1       5.070   4.087  16.531  0.00  0.00    +0.000 A 
ATOM      6  C   UNL     1       5.698   3.439  15.464  0.00  0.00    +0.000 A 
ATOM      7  O   UNL     1       4.839   3.367  17.674  0.00  0.00    +0.000 OA
ATOM      8  C   UNL     1       3.528   3.241  18.051  0.00  0.00    +0.000 A 
ATOM      9  N   UNL     1       3.230   1.971  18.442  0.00  0.00    +0.000 NA
ATOM     10  C   UNL     1       1.982   1.727  18.891  0.00  0.00    +0.000 A 
ATOM     11  C   UNL     1       0.986   2.682  18.935  0.00  0.00    +0.000 A 
ATOM     12  C   UNL     1       1.307   3.976  18.541  0.00  0.00    +0.000 A 
ATOM     13  C   UNL     1       2.614   4.286  18.129  0.00  0.00    +0.000 A 
ATOM     14  C   UNL     1       2.970   5.725  18.031  0.00  0.00    +0.000 C 
ATOM     15  O   UNL     1       2.151   6.548  18.438  0.00  0.00    +0.000 OA
ATOM     16  N   UNL     1       4.224   6.116  17.583  0.00  0.00    +0.000 N 
ATOM     17  C   UNL     1       4.785   7.358  18.077  0.00  0.00    +0.000 C 
ENDROOT
BRANCH   1  19
ATOM     18  C   UNL     1       5.877   3.207  12.170  0.00  0.00    +0.000 C 
ATOM     19  O   UNL     1       6.669   3.426  13.334  0.00  0.00    +0.000 OA
ENDBRANCH   1  19
TORSDOF 1
ENDMDL
MODEL 8
REMARK VINA RESULT:      -6.3      3.113      4.607
REMARK  Name = 
REMARK  3 active torsions:
REMARK  status: ('A' for Active; 'I' for Inactive)
REMARK    1  A    between atoms: C_1  and  O_2
REMARK    2  A    between atoms: O_2  and  C_3
REMARK    3  A    between atoms: N_18  and  C_19
REMARK                            x       y       z     vdW  Elec       q    Type
REMARK                         _______ _______ _______ _____ _____    ______ ____
ROOT
ATOM      1  C   UNL     1       2.508   8.455  17.819  0.00  0.00    +0.000 A 
ATOM      2  C   UNL     1       1.704   7.511  18.461  0.00  0.00    +0.000 A 
ATOM      3  C   UNL     1       2.182   6.215  18.685  0.00  0.00    +0.000 A 
ATOM      4  C   UNL     1       3.454   5.834  18.237  0.00  0.00    +0.000 A 
ATOM      5  C   UNL     1       4.234   6.766  17.561  0.00  0.00    +0.000 A 
ATOM      6  C   UNL     1       3.779   8.073  17.370  0.00  0.00    +0.000 A 
ATOM      7  O   UNL     1       5.533   6.482  17.228  0.00  0.00    +0.000 OA
ATOM      8  C   UNL     1       5.712   5.528  16.261  0.00  0.00    +0.000 A 
ATOM      9  N   UNL     1       6.659   5.893  15.354  0.00  0.00    +0.000 NA
ATOM     10  C   UNL     1       6.969   5.012  14.380  0.00  0.00    +0.000 A 
ATOM     11  C   UNL     1       6.351   3.788  14.232  0.00  0.00    +0.000 A 
ATOM     12  C   UNL     1       5.392   3.425  15.171  0.00  0.00    +0.000 A 
ATOM     13  C   UNL     1       5.088   4.286  16.239  0.00  0.00    +0.000 A 
ATOM     14  C   UNL     1       4.305   3.716  17.365  0.00  0.00    +0.000 C 
ATOM     15  O   UNL     1       4.086   2.505  17.359  0.00  0.00    +0.000 OA
ATOM     16  N   UNL     1       3.919   4.512  18.435  0.00  0.00    +0.000 N 
ATOM     17  C   UNL     1       3.767   3.902  19.741  0.00  0.00    +0.000 C 
ENDROOT
BRANCH   1  19
ATOM     18  C   UNL     1       1.260  10.345  18.496  0.00  0.00    +0.000 C 
ATOM     19  O   UNL     1       2.154   9.746  17.563  0.00  0.00    +0.000 OA
ENDBRANCH   1  19
TORSDOF 1
ENDMDL
MODEL 9
REMARK VINA RESULT:      -6.3      2.310      3.326
REMARK  Name = 
REMARK  3 active torsions:
REMARK  status: ('A' for Active; 'I' for Inactive)
REMARK    1  A    between atoms: C_1  and  O_2
REMARK    2  A    between atoms: O_2  and  C_3
REMARK    3  A    between atoms: N_18  and  C_19
REMARK                            x       y       z     vdW  Elec       q    Type
REMARK                         _______ _______ _______ _____ _____    ______ ____
ROOT
ATOM      1  C   UNL     1       1.571   4.090  20.237  0.00  0.00    +0.000 A 
ATOM      2  C   UNL     1       1.635   5.401  20.712  0.00  0.00    +0.000 A 
ATOM      3  C   UNL     1       2.203   6.408  19.924  0.00  0.00    +0.000 A 
ATOM      4  C   UNL     1       2.749   6.111  18.668  0.00  0.00    +0.000 A 
ATOM      5  C   UNL     1       2.719   4.796  18.217  0.00  0.00    +0.000 A 
ATOM      6  C   UNL     1       2.117   3.793  18.982  0.00  0.00    +0.000 A 
ATOM      7  O   UNL     1       3.113   4.482  16.943  0.00  0.00    +0.000 OA
ATOM      8  C   UNL     1       4.450   4.617  16.676  0.00  0.00    +0.000 A 
ATOM      9  N   UNL     1       4.936   3.563  15.963  0.00  0.00    +0.000 NA
ATOM     10  C   UNL     1       6.231   3.602  15.587  0.00  0.00    +0.000 A 
ATOM     11  C   UNL     1       7.093   4.626  15.921  0.00  0.00    +0.000 A 
ATOM     12  C   UNL     1       6.580   5.699  16.641  0.00  0.00    +0.000 A 
ATOM     13  C   UNL     1       5.221   5.729  16.994  0.00  0.00    +0.000 A 
ATOM     14  C   UNL     1       4.674   7.024  17.472  0.00  0.00    +0.000 C 
ATOM     15  O   UNL     1       5.400   8.015  17.405  0.00  0.00    +0.000 OA
ATOM     16  N   UNL     1       3.354   7.126  17.888  0.00  0.00    +0.000 N 
ATOM     17  C   UNL     1       2.665   8.391  17.725  0.00  0.00    +0.000 C 
ENDROOT
BRANCH   1  19
ATOM     18  C   UNL     1       1.887   2.376  21.835  0.00  0.00    +0.000 C 
ATOM     19  O   UNL     1       1.027   3.035  20.910  0.00  0.00    +0.000 OA
ENDBRANCH   1  19
TORSDOF 1
ENDMDL
