MODEL 1
REMARK VINA RESULT:      -8.1      0.000      0.000
REMARK  Name = 
REMARK  8 active torsions:
REMARK  status: ('A' for Active; 'I' for Inactive)
REMARK    1  A    between atoms: C_1  and  O_2
REMARK    2  A    between atoms: O_2  and  C_3
REMARK    3  A    between atoms: C_8  and  N_9
REMARK    4  A    between atoms: N_12  and  C_13
REMARK    5  A    between atoms: C_13  and  C_14
REMARK    6  A    between atoms: C_14  and  O_15
REMARK    7  A    between atoms: O_15  and  C_16
REMARK    8  A    between atoms: C_16  and  C_18
REMARK                            x       y       z     vdW  Elec       q    Type
REMARK                         _______ _______ _______ _____ _____    ______ ____
ROOT
ATOM      1  C   UNL     1       2.280   9.819  18.279  0.00  0.00    +0.000 C 
ENDROOT
BRANCH   1   5
ATOM      2  N   UNL     1      -0.285  11.182  20.447  0.00  0.00    +0.000 N 
ATOM      3  C   UNL     1      -0.430   9.905  19.761  0.00  0.00    +0.000 C 
ATOM      4  C   UNL     1      -0.187  10.129  18.259  0.00  0.00    +0.000 C 
ATOM      5  N   UNL     1       1.142  10.730  17.995  0.00  0.00    +0.000 NA
ATOM      6  C   UNL     1       1.248  12.025  18.711  0.00  0.00    +0.000 C 
ATOM      7  C   UNL     1       0.986  11.873  20.224  0.00  0.00    +0.000 C 
BRANCH   2  13
ATOM      8  C   UNL     1      -1.418  11.557  22.657  0.00  0.00    +0.000 A 
ATOM      9  C   UNL     1      -2.494  12.108  23.386  0.00  0.00    +0.000 A 
ATOM     10  C   UNL     1      -3.485  12.843  22.745  0.00  0.00    +0.000 A 
ATOM     11  C   UNL     1      -3.423  13.047  21.372  0.00  0.00    +0.000 A 
ATOM     12  C   UNL     1      -2.372  12.508  20.626  0.00  0.00    +0.000 A 
ATOM     13  C   UNL     1      -1.355  11.743  21.242  0.00  0.00    +0.000 A 
BRANCH   8  15
ATOM     14  C   UNL     1      -0.285   9.522  23.410  0.00  0.00    +0.000 C 
ATOM     15  O   UNL     1      -0.420  10.892  23.300  0.00  0.00    +0.000 OA
ENDBRANCH   8  15
ENDBRANCH   2  13
ENDBRANCH   1   5
BRANCH   1  16
ATOM     16  C   UNL     1       1.972   8.366  17.864  0.00  0.00    +0.000 C 
BRANCH  16  17
ATOM     17  O   UNL     1       2.465   7.475  18.792  0.00  0.00    +0.000 OA
BRANCH  17  18
ATOM     18  C   UNL     1       3.198   6.370  18.477  0.00  0.00    +0.000 C 
ATOM     19  O   UNL     1       4.214   6.474  17.801  0.00  0.00    +0.000 OA
BRANCH  18  20
ATOM     20  C   UNL     1       2.765   5.009  18.973  0.00  0.00    +0.000 C 
ATOM     21  C   UNL     1       1.805   5.154  20.187  0.00  0.00    +0.000 C 
ATOM     22  C   UNL     1       1.352   3.764  20.670  0.00  0.00    +0.000 C 
ATOM     23  C   UNL     1       0.618   3.039  19.522  0.00  0.00    +0.000 C 
ATOM     24  C   UNL     1       1.576   2.870  18.322  0.00  0.00    +0.000 C 
ATOM     25  C   UNL     1       2.030   4.260  17.830  0.00  0.00    +0.000 C 
ATOM     26  C   UNL     1       2.810   2.047  18.757  0.00  0.00    +0.000 C 
ATOM     27  C   UNL     1       3.544   2.781  19.901  0.00  0.00    +0.000 C 
ATOM     28  C   UNL     1       4.001   4.175  19.412  0.00  0.00    +0.000 C 
ATOM     29  C   UNL     1       2.586   2.943  21.101  0.00  0.00    +0.000 C 
ENDBRANCH  18  20
ENDBRANCH  17  18
ENDBRANCH  16  17
ENDBRANCH   1  16
TORSDOF 7
ENDMDL
MODEL 2
REMARK VINA RESULT:      -8.1      6.263     10.122
REMARK  Name = 
REMARK  8 active torsions:
REMARK  status: ('A' for Active; 'I' for Inactive)
REMARK    1  A    between atoms: C_1  and  O_2
REMARK    2  A    between atoms: O_2  and  C_3
REMARK    3  A    between atoms: C_8  and  N_9
REMARK    4  A    between atoms: N_12  and  C_13
REMARK    5  A    between atoms: C_13  and  C_14
REMARK    6  A    between atoms: C_14  and  O_15
REMARK    7  A    between atoms: O_15  and  C_16
REMARK    8  A    between atoms: C_16  and  C_18
REMARK                            x       y       z     vdW  Elec       q    Type
REMARK                         _______ _______ _______ _____ _____    ______ ____
ROOT
ATOM      1  C   UNL     1       7.951   7.189  17.852  0.00  0.00    +0.000 C 
ENDROOT
BRANCH   1   5
ATOM      2  N   UNL     1       4.977   5.145  18.178  0.00  0.00    +0.000 N 
ATOM      3  C   UNL     1       6.302   4.673  18.556  0.00  0.00    +0.000 C 
ATOM      4  C   UNL     1       7.245   4.857  17.356  0.00  0.00    +0.000 C 
ATOM      5  N   UNL     1       7.291   6.265  16.895  0.00  0.00    +0.000 NA
ATOM      6  C   UNL     1       5.924   6.704  16.521  0.00  0.00    +0.000 C 
ATOM      7  C   UNL     1       4.919   6.519  17.677  0.00  0.00    +0.000 C 
BRANCH   2  13
ATOM      8  C   UNL     1       2.642   4.655  18.964  0.00  0.00    +0.000 A 
ATOM      9  C   UNL     1       1.544   3.770  19.012  0.00  0.00    +0.000 A 
ATOM     10  C   UNL     1       1.585   2.546  18.351  0.00  0.00    +0.000 A 
ATOM     11  C   UNL     1       2.715   2.184  17.628  0.00  0.00    +0.000 A 
ATOM     12  C   UNL     1       3.818   3.039  17.568  0.00  0.00    +0.000 A 
ATOM     13  C   UNL     1       3.817   4.283  18.240  0.00  0.00    +0.000 A 
BRANCH   8  15
ATOM     14  C   UNL     1       1.707   6.241  20.577  0.00  0.00    +0.000 C 
ATOM     15  O   UNL     1       2.570   5.874  19.563  0.00  0.00    +0.000 OA
ENDBRANCH   8  15
ENDBRANCH   2  13
ENDBRANCH   1   5
BRANCH   1  16
ATOM     16  C   UNL     1       7.577   8.661  17.583  0.00  0.00    +0.000 C 
BRANCH  16  17
ATOM     17  O   UNL     1       8.470   9.514  18.192  0.00  0.00    +0.000 OA
BRANCH  17  18
ATOM     18  C   UNL     1       8.541  10.852  17.943  0.00  0.00    +0.000 C 
ATOM     19  O   UNL     1       7.721  11.388  17.208  0.00  0.00    +0.000 OA
BRANCH  18  20
ATOM     20  C   UNL     1       9.626  11.685  18.587  0.00  0.00    +0.000 C 
ATOM     21  C   UNL     1       9.902  11.191  20.035  0.00  0.00    +0.000 C 
ATOM     22  C   UNL     1      11.025  12.030  20.673  0.00  0.00    +0.000 C 
ATOM     23  C   UNL     1      12.311  11.888  19.830  0.00  0.00    +0.000 C 
ATOM     24  C   UNL     1      12.048  12.401  18.397  0.00  0.00    +0.000 C 
ATOM     25  C   UNL     1      10.927  11.562  17.750  0.00  0.00    +0.000 C 
ATOM     26  C   UNL     1      11.617  13.884  18.449  0.00  0.00    +0.000 C 
ATOM     27  C   UNL     1      10.327  14.019  19.288  0.00  0.00    +0.000 C 
ATOM     28  C   UNL     1       9.200  13.179  18.643  0.00  0.00    +0.000 C 
ATOM     29  C   UNL     1      10.594  13.511  20.722  0.00  0.00    +0.000 C 
ENDBRANCH  18  20
ENDBRANCH  17  18
ENDBRANCH  16  17
ENDBRANCH   1  16
TORSDOF 7
ENDMDL
MODEL 3
REMARK VINA RESULT:      -8.1      6.379     10.428
REMARK  Name = 
REMARK  8 active torsions:
REMARK  status: ('A' for Active; 'I' for Inactive)
REMARK    1  A    between atoms: C_1  and  O_2
REMARK    2  A    between atoms: O_2  and  C_3
REMARK    3  A    between atoms: C_8  and  N_9
REMARK    4  A    between atoms: N_12  and  C_13
REMARK    5  A    between atoms: C_13  and  C_14
REMARK    6  A    between atoms: C_14  and  O_15
REMARK    7  A    between atoms: O_15  and  C_16
REMARK    8  A    between atoms: C_16  and  C_18
REMARK                            x       y       z     vdW  Elec       q    Type
REMARK                         _______ _______ _______ _____ _____    ______ ____
ROOT
ATOM      1  C   UNL     1       7.501   7.798  17.339  0.00  0.00    +0.000 C 
ENDROOT
BRANCH   1   5
ATOM      2  N   UNL     1       5.034   5.250  18.085  0.00  0.00    +0.000 N 
ATOM      3  C   UNL     1       5.992   5.730  19.071  0.00  0.00    +0.000 C 
ATOM      4  C   UNL     1       7.406   5.591  18.483  0.00  0.00    +0.000 C 
ATOM      5  N   UNL     1       7.548   6.320  17.200  0.00  0.00    +0.000 NA
ATOM      6  C   UNL     1       6.556   5.801  16.227  0.00  0.00    +0.000 C 
ATOM      7  C   UNL     1       5.114   5.886  16.770  0.00  0.00    +0.000 C 
BRANCH   2  13
ATOM      8  C   UNL     1       3.068   4.324  19.346  0.00  0.00    +0.000 A 
ATOM      9  C   UNL     1       2.207   3.239  19.615  0.00  0.00    +0.000 A 
ATOM     10  C   UNL     1       2.353   2.030  18.942  0.00  0.00    +0.000 A 
ATOM     11  C   UNL     1       3.354   1.880  17.989  0.00  0.00    +0.000 A 
ATOM     12  C   UNL     1       4.222   2.937  17.707  0.00  0.00    +0.000 A 
ATOM     13  C   UNL     1       4.112   4.175  18.382  0.00  0.00    +0.000 A 
BRANCH   8  15
ATOM     14  C   UNL     1       1.749   5.922  20.650  0.00  0.00    +0.000 C 
ATOM     15  O   UNL     1       2.879   5.521  19.964  0.00  0.00    +0.000 OA
ENDBRANCH   8  15
ENDBRANCH   2  13
ENDBRANCH   1   5
BRANCH   1  16
ATOM     16  C   UNL     1       8.448   8.302  18.446  0.00  0.00    +0.000 C 
BRANCH  16  17
ATOM     17  O   UNL     1       8.657   9.659  18.334  0.00  0.00    +0.000 OA
BRANCH  17  18
ATOM     18  C   UNL     1       9.223  10.428  19.305  0.00  0.00    +0.000 C 
ATOM     19  O   UNL     1       9.162  10.087  20.480  0.00  0.00    +0.000 OA
BRANCH  18  20
ATOM     20  C   UNL     1       9.945  11.704  18.934  0.00  0.00    +0.000 C 
ATOM     21  C   UNL     1      11.241  11.383  18.139  0.00  0.00    +0.000 C 
ATOM     22  C   UNL     1      11.956  12.689  17.746  0.00  0.00    +0.000 C 
ATOM     23  C   UNL     1      11.015  13.542  16.867  0.00  0.00    +0.000 C 
ATOM     24  C   UNL     1       9.736  13.885  17.663  0.00  0.00    +0.000 C 
ATOM     25  C   UNL     1       9.012  12.580  18.056  0.00  0.00    +0.000 C 
ATOM     26  C   UNL     1      10.115  14.670  18.939  0.00  0.00    +0.000 C 
ATOM     27  C   UNL     1      11.051  13.809  19.817  0.00  0.00    +0.000 C 
ATOM     28  C   UNL     1      10.329  12.500  20.213  0.00  0.00    +0.000 C 
ATOM     29  C   UNL     1      12.331  13.473  19.022  0.00  0.00    +0.000 C 
ENDBRANCH  18  20
ENDBRANCH  17  18
ENDBRANCH  16  17
ENDBRANCH   1  16
TORSDOF 7
ENDMDL
MODEL 4
REMARK VINA RESULT:      -8.1      0.678      1.603
REMARK  Name = 
REMARK  8 active torsions:
REMARK  status: ('A' for Active; 'I' for Inactive)
REMARK    1  A    between atoms: C_1  and  O_2
REMARK    2  A    between atoms: O_2  and  C_3
REMARK    3  A    between atoms: C_8  and  N_9
REMARK    4  A    between atoms: N_12  and  C_13
REMARK    5  A    between atoms: C_13  and  C_14
REMARK    6  A    between atoms: C_14  and  O_15
REMARK    7  A    between atoms: O_15  and  C_16
REMARK    8  A    between atoms: C_16  and  C_18
REMARK                            x       y       z     vdW  Elec       q    Type
REMARK                         _______ _______ _______ _____ _____    ______ ____
ROOT
ATOM      1  C   UNL     1       2.238  10.028  18.175  0.00  0.00    +0.000 C 
ENDROOT
BRANCH   1   5
ATOM      2  N   UNL     1      -0.293  11.243  20.467  0.00  0.00    +0.000 N 
ATOM      3  C   UNL     1      -0.410   9.971  19.767  0.00  0.00    +0.000 C 
ATOM      4  C   UNL     1      -0.240  10.226  18.261  0.00  0.00    +0.000 C 
ATOM      5  N   UNL     1       1.049  10.890  17.951  0.00  0.00    +0.000 NA
ATOM      6  C   UNL     1       1.126  12.179  18.682  0.00  0.00    +0.000 C 
ATOM      7  C   UNL     1       0.934  11.995  20.203  0.00  0.00    +0.000 C 
BRANCH   2  13
ATOM      8  C   UNL     1      -1.370  11.502  22.722  0.00  0.00    +0.000 A 
ATOM      9  C   UNL     1      -2.438  11.995  23.502  0.00  0.00    +0.000 A 
ATOM     10  C   UNL     1      -3.467  12.727  22.919  0.00  0.00    +0.000 A 
ATOM     11  C   UNL     1      -3.450  12.986  21.554  0.00  0.00    +0.000 A 
ATOM     12  C   UNL     1      -2.409  12.505  20.757  0.00  0.00    +0.000 A 
ATOM     13  C   UNL     1      -1.354  11.744  21.314  0.00  0.00    +0.000 A 
BRANCH   8  15
ATOM     14  C   UNL     1      -0.161   9.470  23.356  0.00  0.00    +0.000 C 
ATOM     15  O   UNL     1      -0.338  10.839  23.309  0.00  0.00    +0.000 OA
ENDBRANCH   8  15
ENDBRANCH   2  13
ENDBRANCH   1   5
BRANCH   1  16
ATOM     16  C   UNL     1       1.965   8.561  17.789  0.00  0.00    +0.000 C 
BRANCH  16  17
ATOM     17  O   UNL     1       2.745   7.704  18.534  0.00  0.00    +0.000 OA
BRANCH  17  18
ATOM     18  C   UNL     1       2.269   6.914  19.537  0.00  0.00    +0.000 C 
ATOM     19  O   UNL     1       1.768   7.415  20.536  0.00  0.00    +0.000 OA
BRANCH  18  20
ATOM     20  C   UNL     1       2.345   5.408  19.414  0.00  0.00    +0.000 C 
ATOM     21  C   UNL     1       3.791   4.913  19.698  0.00  0.00    +0.000 C 
ATOM     22  C   UNL     1       3.853   3.378  19.594  0.00  0.00    +0.000 C 
ATOM     23  C   UNL     1       2.887   2.756  20.626  0.00  0.00    +0.000 C 
ATOM     24  C   UNL     1       1.445   3.226  20.331  0.00  0.00    +0.000 C 
ATOM     25  C   UNL     1       1.375   4.763  20.439  0.00  0.00    +0.000 C 
ATOM     26  C   UNL     1       1.040   2.789  18.905  0.00  0.00    +0.000 C 
ATOM     27  C   UNL     1       2.005   3.420  17.877  0.00  0.00    +0.000 C 
ATOM     28  C   UNL     1       1.938   4.961  17.982  0.00  0.00    +0.000 C 
ATOM     29  C   UNL     1       3.445   2.944  18.170  0.00  0.00    +0.000 C 
ENDBRANCH  18  20
ENDBRANCH  17  18
ENDBRANCH  16  17
ENDBRANCH   1  16
TORSDOF 7
ENDMDL
MODEL 5
REMARK VINA RESULT:      -8.0      6.347     10.347
REMARK  Name = 
REMARK  8 active torsions:
REMARK  status: ('A' for Active; 'I' for Inactive)
REMARK    1  A    between atoms: C_1  and  O_2
REMARK    2  A    between atoms: O_2  and  C_3
REMARK    3  A    between atoms: C_8  and  N_9
REMARK    4  A    between atoms: N_12  and  C_13
REMARK    5  A    between atoms: C_13  and  C_14
REMARK    6  A    between atoms: C_14  and  O_15
REMARK    7  A    between atoms: O_15  and  C_16
REMARK    8  A    between atoms: C_16  and  C_18
REMARK                            x       y       z     vdW  Elec       q    Type
REMARK                         _______ _______ _______ _____ _____    ______ ____
ROOT
ATOM      1  C   UNL     1       7.145   8.034  17.571  0.00  0.00    +0.000 C 
ENDROOT
BRANCH   1   5
ATOM      2  N   UNL     1       4.662   5.437  18.040  0.00  0.00    +0.000 N 
ATOM      3  C   UNL     1       5.734   5.683  18.995  0.00  0.00    +0.000 C 
ATOM      4  C   UNL     1       7.075   5.641  18.243  0.00  0.00    +0.000 C 
ATOM      5  N   UNL     1       7.117   6.617  17.128  0.00  0.00    +0.000 NA
ATOM      6  C   UNL     1       6.011   6.330  16.182  0.00  0.00    +0.000 C 
ATOM      7  C   UNL     1       4.636   6.330  16.881  0.00  0.00    +0.000 C 
BRANCH   2  13
ATOM      8  C   UNL     1       2.494   4.507  18.904  0.00  0.00    +0.000 A 
ATOM      9  C   UNL     1       1.629   3.402  19.059  0.00  0.00    +0.000 A 
ATOM     10  C   UNL     1       1.960   2.159  18.530  0.00  0.00    +0.000 A 
ATOM     11  C   UNL     1       3.151   1.993  17.835  0.00  0.00    +0.000 A 
ATOM     12  C   UNL     1       4.028   3.068  17.671  0.00  0.00    +0.000 A 
ATOM     13  C   UNL     1       3.731   4.342  18.208  0.00  0.00    +0.000 A 
BRANCH   8  15
ATOM     14  C   UNL     1       1.754   6.040  20.663  0.00  0.00    +0.000 C 
ATOM     15  O   UNL     1       2.135   5.733  19.371  0.00  0.00    +0.000 OA
ENDBRANCH   8  15
ENDBRANCH   2  13
ENDBRANCH   1   5
BRANCH   1  16
ATOM     16  C   UNL     1       8.490   8.407  18.225  0.00  0.00    +0.000 C 
BRANCH  16  17
ATOM     17  O   UNL     1       8.717   9.763  18.145  0.00  0.00    +0.000 OA
BRANCH  17  18
ATOM     18  C   UNL     1       9.242  10.511  19.155  0.00  0.00    +0.000 C 
ATOM     19  O   UNL     1       9.150  10.135  20.317  0.00  0.00    +0.000 OA
BRANCH  18  20
ATOM     20  C   UNL     1       9.956  11.808  18.844  0.00  0.00    +0.000 C 
ATOM     21  C   UNL     1      10.255  12.590  20.154  0.00  0.00    +0.000 C 
ATOM     22  C   UNL     1      11.003  13.897  19.828  0.00  0.00    +0.000 C 
ATOM     23  C   UNL     1      12.332  13.561  19.118  0.00  0.00    +0.000 C 
ATOM     24  C   UNL     1      12.038  12.806  17.803  0.00  0.00    +0.000 C 
ATOM     25  C   UNL     1      11.293  11.493  18.122  0.00  0.00    +0.000 C 
ATOM     26  C   UNL     1      11.161  13.687  16.885  0.00  0.00    +0.000 C 
ATOM     27  C   UNL     1       9.830  14.013  17.598  0.00  0.00    +0.000 C 
ATOM     28  C   UNL     1       9.080  12.700  17.920  0.00  0.00    +0.000 C 
ATOM     29  C   UNL     1      10.126  14.774  18.909  0.00  0.00    +0.000 C 
ENDBRANCH  18  20
ENDBRANCH  17  18
ENDBRANCH  16  17
ENDBRANCH   1  16
TORSDOF 7
ENDMDL
MODEL 6
REMARK VINA RESULT:      -7.9      0.722      1.632
REMARK  Name = 
REMARK  8 active torsions:
REMARK  status: ('A' for Active; 'I' for Inactive)
REMARK    1  A    between atoms: C_1  and  O_2
REMARK    2  A    between atoms: O_2  and  C_3
REMARK    3  A    between atoms: C_8  and  N_9
REMARK    4  A    between atoms: N_12  and  C_13
REMARK    5  A    between atoms: C_13  and  C_14
REMARK    6  A    between atoms: C_14  and  O_15
REMARK    7  A    between atoms: O_15  and  C_16
REMARK    8  A    between atoms: C_16  and  C_18
REMARK                            x       y       z     vdW  Elec       q    Type
REMARK                         _______ _______ _______ _____ _____    ______ ____
ROOT
ATOM      1  C   UNL     1       2.266  10.042  18.250  0.00  0.00    +0.000 C 
ENDROOT
BRANCH   1   5
ATOM      2  N   UNL     1      -0.321  11.212  20.501  0.00  0.00    +0.000 N 
ATOM      3  C   UNL     1      -0.421   9.955  19.772  0.00  0.00    +0.000 C 
ATOM      4  C   UNL     1      -0.213  10.242  18.276  0.00  0.00    +0.000 C 
ATOM      5  N   UNL     1       1.085  10.910  18.014  0.00  0.00    +0.000 NA
ATOM      6  C   UNL     1       1.144  12.183  18.774  0.00  0.00    +0.000 C 
ATOM      7  C   UNL     1       0.913  11.967  20.285  0.00  0.00    +0.000 C 
BRANCH   2  13
ATOM      8  C   UNL     1      -1.419  11.486  22.745  0.00  0.00    +0.000 A 
ATOM      9  C   UNL     1      -2.506  11.960  23.508  0.00  0.00    +0.000 A 
ATOM     10  C   UNL     1      -3.556  12.645  22.903  0.00  0.00    +0.000 A 
ATOM     11  C   UNL     1      -3.541  12.872  21.533  0.00  0.00    +0.000 A 
ATOM     12  C   UNL     1      -2.479  12.408  20.753  0.00  0.00    +0.000 A 
ATOM     13  C   UNL     1      -1.402  11.697  21.331  0.00  0.00    +0.000 A 
BRANCH   8  15
ATOM     14  C   UNL     1      -0.134   9.512  23.413  0.00  0.00    +0.000 C 
ATOM     15  O   UNL     1      -0.368  10.872  23.352  0.00  0.00    +0.000 OA
ENDBRANCH   8  15
ENDBRANCH   2  13
ENDBRANCH   1   5
BRANCH   1  16
ATOM     16  C   UNL     1       1.980   8.571  17.889  0.00  0.00    +0.000 C 
BRANCH  16  17
ATOM     17  O   UNL     1       2.718   7.719  18.681  0.00  0.00    +0.000 OA
BRANCH  17  18
ATOM     18  C   UNL     1       2.179   6.878  19.609  0.00  0.00    +0.000 C 
ATOM     19  O   UNL     1       1.605   7.329  20.592  0.00  0.00    +0.000 OA
BRANCH  18  20
ATOM     20  C   UNL     1       2.275   5.381  19.419  0.00  0.00    +0.000 C 
ATOM     21  C   UNL     1       1.710   4.973  18.030  0.00  0.00    +0.000 C 
ATOM     22  C   UNL     1       1.834   3.450  17.837  0.00  0.00    +0.000 C 
ATOM     23  C   UNL     1       3.321   3.044  17.923  0.00  0.00    +0.000 C 
ATOM     24  C   UNL     1       3.880   3.425  19.312  0.00  0.00    +0.000 C 
ATOM     25  C   UNL     1       3.763   4.950  19.510  0.00  0.00    +0.000 C 
ATOM     26  C   UNL     1       3.073   2.698  20.412  0.00  0.00    +0.000 C 
ATOM     27  C   UNL     1       1.588   3.114  20.324  0.00  0.00    +0.000 C 
ATOM     28  C   UNL     1       1.466   4.643  20.522  0.00  0.00    +0.000 C 
ATOM     29  C   UNL     1       1.030   2.726  18.938  0.00  0.00    +0.000 C 
ENDBRANCH  18  20
ENDBRANCH  17  18
ENDBRANCH  16  17
ENDBRANCH   1  16
TORSDOF 7
ENDMDL
MODEL 7
REMARK VINA RESULT:      -7.9      1.422      2.270
REMARK  Name = 
REMARK  8 active torsions:
REMARK  status: ('A' for Active; 'I' for Inactive)
REMARK    1  A    between atoms: C_1  and  O_2
REMARK    2  A    between atoms: O_2  and  C_3
REMARK    3  A    between atoms: C_8  and  N_9
REMARK    4  A    between atoms: N_12  and  C_13
REMARK    5  A    between atoms: C_13  and  C_14
REMARK    6  A    between atoms: C_14  and  O_15
REMARK    7  A    between atoms: O_15  and  C_16
REMARK    8  A    between atoms: C_16  and  C_18
REMARK                            x       y       z     vdW  Elec       q    Type
REMARK                         _______ _______ _______ _____ _____    ______ ____
ROOT
ATOM      1  C   UNL     1       1.519   9.798  18.662  0.00  0.00    +0.000 C 
ENDROOT
BRANCH   1   5
ATOM      2  N   UNL     1      -0.285  11.817  21.071  0.00  0.00    +0.000 N 
ATOM      3  C   UNL     1       0.490  10.643  21.451  0.00  0.00    +0.000 C 
ATOM      4  C   UNL     1       0.010   9.450  20.608  0.00  0.00    +0.000 C 
ATOM      5  N   UNL     1       0.120   9.717  19.154  0.00  0.00    +0.000 NA
ATOM      6  C   UNL     1      -0.682  10.917  18.812  0.00  0.00    +0.000 C 
ATOM      7  C   UNL     1      -0.268  12.147  19.646  0.00  0.00    +0.000 C 
BRANCH   2  13
ATOM      8  C   UNL     1      -0.533  13.706  22.710  0.00  0.00    +0.000 A 
ATOM      9  C   UNL     1      -1.324  14.383  23.661  0.00  0.00    +0.000 A 
ATOM     10  C   UNL     1      -2.618  13.959  23.944  0.00  0.00    +0.000 A 
ATOM     11  C   UNL     1      -3.149  12.857  23.284  0.00  0.00    +0.000 A 
ATOM     12  C   UNL     1      -2.386  12.165  22.342  0.00  0.00    +0.000 A 
ATOM     13  C   UNL     1      -1.062  12.559  22.040  0.00  0.00    +0.000 A 
BRANCH   8  15
ATOM     14  C   UNL     1       1.006  15.344  21.741  0.00  0.00    +0.000 C 
ATOM     15  O   UNL     1       0.708  14.164  22.395  0.00  0.00    +0.000 OA
ENDBRANCH   8  15
ENDBRANCH   2  13
ENDBRANCH   1   5
BRANCH   1  16
ATOM     16  C   UNL     1       1.947   8.511  17.929  0.00  0.00    +0.000 C 
BRANCH  16  17
ATOM     17  O   UNL     1       2.259   7.515  18.828  0.00  0.00    +0.000 OA
BRANCH  17  18
ATOM     18  C   UNL     1       3.058   6.449  18.541  0.00  0.00    +0.000 C 
ATOM     19  O   UNL     1       4.105   6.608  17.927  0.00  0.00    +0.000 OA
BRANCH  18  20
ATOM     20  C   UNL     1       2.658   5.062  18.992  0.00  0.00    +0.000 C 
ATOM     21  C   UNL     1       1.754   4.384  17.924  0.00  0.00    +0.000 C 
ATOM     22  C   UNL     1       1.372   2.964  18.382  0.00  0.00    +0.000 C 
ATOM     23  C   UNL     1       2.655   2.126  18.572  0.00  0.00    +0.000 C 
ATOM     24  C   UNL     1       3.545   2.783  19.650  0.00  0.00    +0.000 C 
ATOM     25  C   UNL     1       3.935   4.205  19.196  0.00  0.00    +0.000 C 
ATOM     26  C   UNL     1       2.769   2.862  20.984  0.00  0.00    +0.000 C 
ATOM     27  C   UNL     1       1.490   3.707  20.789  0.00  0.00    +0.000 C 
ATOM     28  C   UNL     1       1.877   5.133  20.334  0.00  0.00    +0.000 C 
ATOM     29  C   UNL     1       0.600   3.045  19.716  0.00  0.00    +0.000 C 
ENDBRANCH  18  20
ENDBRANCH  17  18
ENDBRANCH  16  17
ENDBRANCH   1  16
TORSDOF 7
ENDMDL
MODEL 8
REMARK VINA RESULT:      -7.9      1.440      2.364
REMARK  Name = 
REMARK  8 active torsions:
REMARK  status: ('A' for Active; 'I' for Inactive)
REMARK    1  A    between atoms: C_1  and  O_2
REMARK    2  A    between atoms: O_2  and  C_3
REMARK    3  A    between atoms: C_8  and  N_9
REMARK    4  A    between atoms: N_12  and  C_13
REMARK    5  A    between atoms: C_13  and  C_14
REMARK    6  A    between atoms: C_14  and  O_15
REMARK    7  A    between atoms: O_15  and  C_16
REMARK    8  A    between atoms: C_16  and  C_18
REMARK                            x       y       z     vdW  Elec       q    Type
REMARK                         _______ _______ _______ _____ _____    ______ ____
ROOT
ATOM      1  C   UNL     1       1.438   9.776  18.593  0.00  0.00    +0.000 C 
ENDROOT
BRANCH   1   5
ATOM      2  N   UNL     1      -0.324  11.795  21.033  0.00  0.00    +0.000 N 
ATOM      3  C   UNL     1       0.646  10.776  21.408  0.00  0.00    +0.000 C 
ATOM      4  C   UNL     1       0.238   9.449  20.747  0.00  0.00    +0.000 C 
ATOM      5  N   UNL     1       0.134   9.571  19.273  0.00  0.00    +0.000 NA
ATOM      6  C   UNL     1      -0.862  10.617  18.936  0.00  0.00    +0.000 C 
ATOM      7  C   UNL     1      -0.525  11.972  19.595  0.00  0.00    +0.000 C 
BRANCH   2  13
ATOM      8  C   UNL     1      -0.526  13.673  22.690  0.00  0.00    +0.000 A 
ATOM      9  C   UNL     1      -1.291  14.346  23.666  0.00  0.00    +0.000 A 
ATOM     10  C   UNL     1      -2.578  13.921  23.981  0.00  0.00    +0.000 A 
ATOM     11  C   UNL     1      -3.127  12.824  23.328  0.00  0.00    +0.000 A 
ATOM     12  C   UNL     1      -2.390  12.137  22.361  0.00  0.00    +0.000 A 
ATOM     13  C   UNL     1      -1.074  12.532  22.026  0.00  0.00    +0.000 A 
BRANCH   8  15
ATOM     14  C   UNL     1       1.006  15.384  21.844  0.00  0.00    +0.000 C 
ATOM     15  O   UNL     1       0.707  14.132  22.345  0.00  0.00    +0.000 OA
ENDBRANCH   8  15
ENDBRANCH   2  13
ENDBRANCH   1   5
BRANCH   1  16
ATOM     16  C   UNL     1       1.933   8.492  17.897  0.00  0.00    +0.000 C 
BRANCH  16  17
ATOM     17  O   UNL     1       2.440   7.600  18.816  0.00  0.00    +0.000 OA
BRANCH  17  18
ATOM     18  C   UNL     1       3.140   6.479  18.486  0.00  0.00    +0.000 C 
ATOM     19  O   UNL     1       4.140   6.558  17.782  0.00  0.00    +0.000 OA
BRANCH  18  20
ATOM     20  C   UNL     1       2.693   5.129  19.000  0.00  0.00    +0.000 C 
ATOM     21  C   UNL     1       3.923   4.234  19.319  0.00  0.00    +0.000 C 
ATOM     22  C   UNL     1       3.458   2.871  19.863  0.00  0.00    +0.000 C 
ATOM     23  C   UNL     1       2.636   3.090  21.153  0.00  0.00    +0.000 C 
ATOM     24  C   UNL     1       1.399   3.957  20.835  0.00  0.00    +0.000 C 
ATOM     25  C   UNL     1       1.858   5.327  20.293  0.00  0.00    +0.000 C 
ATOM     26  C   UNL     1       0.528   3.248  19.773  0.00  0.00    +0.000 C 
ATOM     27  C   UNL     1       1.353   3.038  18.484  0.00  0.00    +0.000 C 
ATOM     28  C   UNL     1       1.816   4.409  17.937  0.00  0.00    +0.000 C 
ATOM     29  C   UNL     1       2.586   2.166  18.803  0.00  0.00    +0.000 C 
ENDBRANCH  18  20
ENDBRANCH  17  18
ENDBRANCH  16  17
ENDBRANCH   1  16
TORSDOF 7
ENDMDL
MODEL 9
REMARK VINA RESULT:      -7.8      6.299     10.322
REMARK  Name = 
REMARK  8 active torsions:
REMARK  status: ('A' for Active; 'I' for Inactive)
REMARK    1  A    between atoms: C_1  and  O_2
REMARK    2  A    between atoms: O_2  and  C_3
REMARK    3  A    between atoms: C_8  and  N_9
REMARK    4  A    between atoms: N_12  and  C_13
REMARK    5  A    between atoms: C_13  and  C_14
REMARK    6  A    between atoms: C_14  and  O_15
REMARK    7  A    between atoms: O_15  and  C_16
REMARK    8  A    between atoms: C_16  and  C_18
REMARK                            x       y       z     vdW  Elec       q    Type
REMARK                         _______ _______ _______ _____ _____    ______ ____
ROOT
ATOM      1  C   UNL     1       6.961   7.974  17.904  0.00  0.00    +0.000 C 
ENDROOT
BRANCH   1   5
ATOM      2  N   UNL     1       4.623   5.258  18.439  0.00  0.00    +0.000 N 
ATOM      3  C   UNL     1       5.823   5.433  19.245  0.00  0.00    +0.000 C 
ATOM      4  C   UNL     1       7.035   5.520  18.302  0.00  0.00    +0.000 C 
ATOM      5  N   UNL     1       6.890   6.615  17.311  0.00  0.00    +0.000 NA
ATOM      6  C   UNL     1       5.658   6.397  16.514  0.00  0.00    +0.000 C 
ATOM      7  C   UNL     1       4.406   6.272  17.407  0.00  0.00    +0.000 C 
BRANCH   2  13
ATOM      8  C   UNL     1       2.802   4.059  19.688  0.00  0.00    +0.000 A 
ATOM      9  C   UNL     1       1.985   2.918  19.831  0.00  0.00    +0.000 A 
ATOM     10  C   UNL     1       2.077   1.858  18.935  0.00  0.00    +0.000 A 
ATOM     11  C   UNL     1       2.979   1.916  17.880  0.00  0.00    +0.000 A 
ATOM     12  C   UNL     1       3.804   3.031  17.717  0.00  0.00    +0.000 A 
ATOM     13  C   UNL     1       3.747   4.120  18.617  0.00  0.00    +0.000 A 
BRANCH   8  15
ATOM     14  C   UNL     1       1.758   6.152  20.408  0.00  0.00    +0.000 C 
ATOM     15  O   UNL     1       2.663   5.117  20.532  0.00  0.00    +0.000 OA
ENDBRANCH   8  15
ENDBRANCH   2  13
ENDBRANCH   1   5
BRANCH   1  16
ATOM     16  C   UNL     1       8.404   8.519  17.925  0.00  0.00    +0.000 C 
BRANCH  16  17
ATOM     17  O   UNL     1       8.414   9.874  18.169  0.00  0.00    +0.000 OA
BRANCH  17  18
ATOM     18  C   UNL     1       9.199  10.476  19.106  0.00  0.00    +0.000 C 
ATOM     19  O   UNL     1       9.335   9.975  20.215  0.00  0.00    +0.000 OA
BRANCH  18  20
ATOM     20  C   UNL     1       9.919  11.764  18.774  0.00  0.00    +0.000 C 
ATOM     21  C   UNL     1       8.989  12.712  17.966  0.00  0.00    +0.000 C 
ATOM     22  C   UNL     1       9.723  14.030  17.653  0.00  0.00    +0.000 C 
ATOM     23  C   UNL     1      10.127  14.716  18.977  0.00  0.00    +0.000 C 
ATOM     24  C   UNL     1      11.071  13.787  19.772  0.00  0.00    +0.000 C 
ATOM     25  C   UNL     1      10.340  12.467  20.092  0.00  0.00    +0.000 C 
ATOM     26  C   UNL     1      12.332  13.488  18.931  0.00  0.00    +0.000 C 
ATOM     27  C   UNL     1      11.923  12.796  17.612  0.00  0.00    +0.000 C 
ATOM     28  C   UNL     1      11.189  11.472  17.929  0.00  0.00    +0.000 C 
ATOM     29  C   UNL     1      10.984  13.729  16.816  0.00  0.00    +0.000 C 
ENDBRANCH  18  20
ENDBRANCH  17  18
ENDBRANCH  16  17
ENDBRANCH   1  16
TORSDOF 7
ENDMDL
