MODEL 1
REMARK VINA RESULT:      -7.5      0.000      0.000
REMARK  Name = 
REMARK  7 active torsions:
REMARK  status: ('A' for Active; 'I' for Inactive)
REMARK    1  A    between atoms: C_1  and  O_2
REMARK    2  A    between atoms: O_2  and  C_3
REMARK    3  A    between atoms: C_6  and  C_7
REMARK    4  A    between atoms: C_8  and  C_9
REMARK    5  A    between atoms: C_14  and  O_15
REMARK    6  A    between atoms: O_15  and  C_16
REMARK    7  A    between atoms: C_22  and  O_23
REMARK                            x       y       z     vdW  Elec       q    Type
REMARK                         _______ _______ _______ _____ _____    ______ ____
ROOT
ATOM      1  C   UNL     1       7.961   8.262  18.264  0.00  0.00    +0.000 C 
ATOM      2  C   UNL     1       7.591   7.589  17.151  0.00  0.00    +0.000 C 
ENDROOT
BRANCH   2   3
ATOM      3  C   UNL     1       6.749   6.378  17.271  0.00  0.00    +0.000 A 
ATOM      4  C   UNL     1       5.952   6.145  18.407  0.00  0.00    +0.000 A 
ATOM      5  C   UNL     1       5.076   5.050  18.437  0.00  0.00    +0.000 A 
ATOM      6  C   UNL     1       4.930   4.260  17.301  0.00  0.00    +0.000 A 
ATOM      7  C   UNL     1       5.742   4.451  16.193  0.00  0.00    +0.000 A 
ATOM      8  C   UNL     1       6.692   5.473  16.191  0.00  0.00    +0.000 A 
ATOM      9  O   UNL     1       3.999   3.262  17.209  0.00  0.00    +0.000 OA
ATOM     10  C   UNL     1       3.905   2.611  18.469  0.00  0.00    +0.000 C 
ATOM     11  C   UNL     1       3.619   3.595  19.598  0.00  0.00    +0.000 C 
ATOM     12  O   UNL     1       4.415   4.791  19.606  0.00  0.00    +0.000 OA
BRANCH   8  13
ATOM     13  O   UNL     1       7.620   5.648  15.193  0.00  0.00    +0.000 OA
ATOM     14  C   UNL     1       7.336   5.021  13.950  0.00  0.00    +0.000 C 
ENDBRANCH   8  13
ENDBRANCH   2   3
BRANCH   1  18
ATOM     15  C   UNL     1       9.564  12.238  18.736  0.00  0.00    +0.000 A 
ATOM     16  C   UNL     1      10.000  11.167  19.526  0.00  0.00    +0.000 A 
ATOM     17  C   UNL     1       9.502   9.872  19.335  0.00  0.00    +0.000 A 
ATOM     18  C   UNL     1       8.562   9.603  18.334  0.00  0.00    +0.000 A 
ATOM     19  C   UNL     1       8.117  10.674  17.546  0.00  0.00    +0.000 A 
ATOM     20  C   UNL     1       8.615  11.978  17.746  0.00  0.00    +0.000 A 
BRANCH  15  22
ATOM     21  C   UNL     1      11.436  13.404  19.683  0.00  0.00    +0.000 C 
ATOM     22  O   UNL     1      10.150  13.426  19.076  0.00  0.00    +0.000 OA
ENDBRANCH  15  22
BRANCH  20  23
ATOM     23  O   UNL     1       8.126  12.987  16.961  0.00  0.00    +0.000 OA
ATOM     24  H   UNL     1       8.788  13.211  16.289  0.00  0.00    +0.000 HD
ENDBRANCH  20  23
ENDBRANCH   1  18
TORSDOF 5
ENDMDL
MODEL 2
REMARK VINA RESULT:      -7.4      5.012      6.762
REMARK  Name = 
REMARK  7 active torsions:
REMARK  status: ('A' for Active; 'I' for Inactive)
REMARK    1  A    between atoms: C_1  and  O_2
REMARK    2  A    between atoms: O_2  and  C_3
REMARK    3  A    between atoms: C_6  and  C_7
REMARK    4  A    between atoms: C_8  and  C_9
REMARK    5  A    between atoms: C_14  and  O_15
REMARK    6  A    between atoms: O_15  and  C_16
REMARK    7  A    between atoms: C_22  and  O_23
REMARK                            x       y       z     vdW  Elec       q    Type
REMARK                         _______ _______ _______ _____ _____    ______ ____
ROOT
ATOM      1  C   UNL     1       2.109   8.111  18.061  0.00  0.00    +0.000 C 
ATOM      2  C   UNL     1       2.700   7.010  18.580  0.00  0.00    +0.000 C 
ENDROOT
BRANCH   2   3
ATOM      3  C   UNL     1       3.458   6.098  17.696  0.00  0.00    +0.000 A 
ATOM      4  C   UNL     1       4.545   6.553  16.927  0.00  0.00    +0.000 A 
ATOM      5  C   UNL     1       5.317   5.641  16.193  0.00  0.00    +0.000 A 
ATOM      6  C   UNL     1       5.061   4.278  16.312  0.00  0.00    +0.000 A 
ATOM      7  C   UNL     1       3.966   3.820  17.029  0.00  0.00    +0.000 A 
ATOM      8  C   UNL     1       3.128   4.727  17.679  0.00  0.00    +0.000 A 
ATOM      9  O   UNL     1       5.854   3.323  15.736  0.00  0.00    +0.000 OA
ATOM     10  C   UNL     1       6.283   3.794  14.467  0.00  0.00    +0.000 C 
ATOM     11  C   UNL     1       6.960   5.157  14.563  0.00  0.00    +0.000 C 
ATOM     12  O   UNL     1       6.283   6.140  15.363  0.00  0.00    +0.000 OA
BRANCH   8  13
ATOM     13  O   UNL     1       1.954   4.370  18.299  0.00  0.00    +0.000 OA
ATOM     14  C   UNL     1       1.632   2.987  18.292  0.00  0.00    +0.000 C 
ENDBRANCH   8  13
ENDBRANCH   2   3
BRANCH   1  18
ATOM     15  C   UNL     1       0.178  11.318  20.201  0.00  0.00    +0.000 A 
ATOM     16  C   UNL     1       0.386  10.062  20.783  0.00  0.00    +0.000 A 
ATOM     17  C   UNL     1       1.052   9.042  20.093  0.00  0.00    +0.000 A 
ATOM     18  C   UNL     1       1.546   9.251  18.801  0.00  0.00    +0.000 A 
ATOM     19  C   UNL     1       1.334  10.505  18.211  0.00  0.00    +0.000 A 
ATOM     20  C   UNL     1       0.657  11.528  18.906  0.00  0.00    +0.000 A 
BRANCH  15  22
ATOM     21  C   UNL     1      -0.837  11.754  22.332  0.00  0.00    +0.000 C 
ATOM     22  O   UNL     1      -0.500  12.181  21.018  0.00  0.00    +0.000 OA
ENDBRANCH  15  22
BRANCH  20  23
ATOM     23  O   UNL     1       0.458  12.724  18.270  0.00  0.00    +0.000 OA
ATOM     24  H   UNL     1      -0.469  12.986  18.377  0.00  0.00    +0.000 HD
ENDBRANCH  20  23
ENDBRANCH   1  18
TORSDOF 5
ENDMDL
MODEL 3
REMARK VINA RESULT:      -7.4      5.011      6.755
REMARK  Name = 
REMARK  7 active torsions:
REMARK  status: ('A' for Active; 'I' for Inactive)
REMARK    1  A    between atoms: C_1  and  O_2
REMARK    2  A    between atoms: O_2  and  C_3
REMARK    3  A    between atoms: C_6  and  C_7
REMARK    4  A    between atoms: C_8  and  C_9
REMARK    5  A    between atoms: C_14  and  O_15
REMARK    6  A    between atoms: O_15  and  C_16
REMARK    7  A    between atoms: C_22  and  O_23
REMARK                            x       y       z     vdW  Elec       q    Type
REMARK                         _______ _______ _______ _____ _____    ______ ____
ROOT
ATOM      1  C   UNL     1       2.064   7.861  18.551  0.00  0.00    +0.000 C 
ATOM      2  C   UNL     1       2.562   6.660  18.925  0.00  0.00    +0.000 C 
ENDROOT
BRANCH   2   3
ATOM      3  C   UNL     1       3.338   5.854  17.958  0.00  0.00    +0.000 A 
ATOM      4  C   UNL     1       4.414   6.404  17.236  0.00  0.00    +0.000 A 
ATOM      5  C   UNL     1       5.203   5.584  16.418  0.00  0.00    +0.000 A 
ATOM      6  C   UNL     1       4.978   4.211  16.405  0.00  0.00    +0.000 A 
ATOM      7  C   UNL     1       3.893   3.663  17.074  0.00  0.00    +0.000 A 
ATOM      8  C   UNL     1       3.037   4.484  17.808  0.00  0.00    +0.000 A 
ATOM      9  O   UNL     1       5.789   3.333  15.740  0.00  0.00    +0.000 OA
ATOM     10  C   UNL     1       6.206   3.934  14.523  0.00  0.00    +0.000 C 
ATOM     11  C   UNL     1       6.854   5.295  14.750  0.00  0.00    +0.000 C 
ATOM     12  O   UNL     1       6.157   6.181  15.641  0.00  0.00    +0.000 OA
BRANCH   8  13
ATOM     13  O   UNL     1       1.872   4.044  18.390  0.00  0.00    +0.000 OA
ATOM     14  C   UNL     1       1.639   2.644  18.354  0.00  0.00    +0.000 C 
ENDBRANCH   8  13
ENDBRANCH   2   3
BRANCH   1  18
ATOM     15  C   UNL     1       0.700  11.060  21.101  0.00  0.00    +0.000 A 
ATOM     16  C   UNL     1       0.874  11.237  19.723  0.00  0.00    +0.000 A 
ATOM     17  C   UNL     1       1.278  10.179  18.899  0.00  0.00    +0.000 A 
ATOM     18  C   UNL     1       1.504   8.903  19.426  0.00  0.00    +0.000 A 
ATOM     19  C   UNL     1       1.337   8.723  20.806  0.00  0.00    +0.000 A 
ATOM     20  C   UNL     1       0.938   9.792  21.634  0.00  0.00    +0.000 A 
BRANCH  15  22
ATOM     21  C   UNL     1       0.625  13.459  21.146  0.00  0.00    +0.000 C 
ATOM     22  O   UNL     1       0.317  12.206  21.743  0.00  0.00    +0.000 OA
ENDBRANCH  15  22
BRANCH  20  23
ATOM     23  O   UNL     1       0.815   9.563  22.978  0.00  0.00    +0.000 OA
ATOM     24  H   UNL     1       1.443  10.129  23.452  0.00  0.00    +0.000 HD
ENDBRANCH  20  23
ENDBRANCH   1  18
TORSDOF 5
ENDMDL
MODEL 4
REMARK VINA RESULT:      -7.4      1.884      8.997
REMARK  Name = 
REMARK  7 active torsions:
REMARK  status: ('A' for Active; 'I' for Inactive)
REMARK    1  A    between atoms: C_1  and  O_2
REMARK    2  A    between atoms: O_2  and  C_3
REMARK    3  A    between atoms: C_6  and  C_7
REMARK    4  A    between atoms: C_8  and  C_9
REMARK    5  A    between atoms: C_14  and  O_15
REMARK    6  A    between atoms: O_15  and  C_16
REMARK    7  A    between atoms: C_22  and  O_23
REMARK                            x       y       z     vdW  Elec       q    Type
REMARK                         _______ _______ _______ _____ _____    ______ ____
ROOT
ATOM      1  C   UNL     1       8.481   9.097  18.025  0.00  0.00    +0.000 C 
ATOM      2  C   UNL     1       9.077   9.628  19.117  0.00  0.00    +0.000 C 
ENDROOT
BRANCH   2   3
ATOM      3  C   UNL     1       9.605  11.009  19.066  0.00  0.00    +0.000 A 
ATOM      4  C   UNL     1      10.179  11.536  17.894  0.00  0.00    +0.000 A 
ATOM      5  C   UNL     1      10.559  12.884  17.843  0.00  0.00    +0.000 A 
ATOM      6  C   UNL     1      10.274  13.716  18.921  0.00  0.00    +0.000 A 
ATOM      7  C   UNL     1       9.752  13.200  20.099  0.00  0.00    +0.000 A 
ATOM      8  C   UNL     1       9.466  11.838  20.198  0.00  0.00    +0.000 A 
ATOM      9  O   UNL     1      10.491  15.067  18.892  0.00  0.00    +0.000 OA
ATOM     10  C   UNL     1      11.694  15.318  18.180  0.00  0.00    +0.000 C 
ATOM     11  C   UNL     1      11.678  14.683  16.793  0.00  0.00    +0.000 C 
ATOM     12  O   UNL     1      11.225  13.321  16.731  0.00  0.00    +0.000 OA
BRANCH   8  13
ATOM     13  O   UNL     1       9.072  11.226  21.364  0.00  0.00    +0.000 OA
ATOM     14  C   UNL     1       8.465  12.060  22.341  0.00  0.00    +0.000 C 
ENDBRANCH   8  13
ENDBRANCH   2   3
BRANCH   1  18
ATOM     15  C   UNL     1       6.368   5.353  17.682  0.00  0.00    +0.000 A 
ATOM     16  C   UNL     1       7.430   5.522  18.579  0.00  0.00    +0.000 A 
ATOM     17  C   UNL     1       8.081   6.755  18.711  0.00  0.00    +0.000 A 
ATOM     18  C   UNL     1       7.679   7.865  17.960  0.00  0.00    +0.000 A 
ATOM     19  C   UNL     1       6.620   7.698  17.056  0.00  0.00    +0.000 A 
ATOM     20  C   UNL     1       5.972   6.454  16.920  0.00  0.00    +0.000 A 
BRANCH  15  22
ATOM     21  C   UNL     1       4.920   3.719  18.680  0.00  0.00    +0.000 C 
ATOM     22  O   UNL     1       5.866   4.080  17.682  0.00  0.00    +0.000 OA
ENDBRANCH  15  22
BRANCH  20  23
ATOM     23  O   UNL     1       4.960   6.344  16.004  0.00  0.00    +0.000 OA
ATOM     24  H   UNL     1       4.978   7.120  15.423  0.00  0.00    +0.000 HD
ENDBRANCH  20  23
ENDBRANCH   1  18
TORSDOF 5
ENDMDL
MODEL 5
REMARK VINA RESULT:      -7.3      2.096      9.176
REMARK  Name = 
REMARK  7 active torsions:
REMARK  status: ('A' for Active; 'I' for Inactive)
REMARK    1  A    between atoms: C_1  and  O_2
REMARK    2  A    between atoms: O_2  and  C_3
REMARK    3  A    between atoms: C_6  and  C_7
REMARK    4  A    between atoms: C_8  and  C_9
REMARK    5  A    between atoms: C_14  and  O_15
REMARK    6  A    between atoms: O_15  and  C_16
REMARK    7  A    between atoms: C_22  and  O_23
REMARK                            x       y       z     vdW  Elec       q    Type
REMARK                         _______ _______ _______ _____ _____    ______ ____
ROOT
ATOM      1  C   UNL     1       8.597   9.494  18.124  0.00  0.00    +0.000 C 
ATOM      2  C   UNL     1       9.568  10.060  18.876  0.00  0.00    +0.000 C 
ENDROOT
BRANCH   2   3
ATOM      3  C   UNL     1       9.720  11.531  18.893  0.00  0.00    +0.000 A 
ATOM      4  C   UNL     1      10.280  12.227  17.805  0.00  0.00    +0.000 A 
ATOM      5  C   UNL     1      10.300  13.628  17.802  0.00  0.00    +0.000 A 
ATOM      6  C   UNL     1       9.674  14.322  18.833  0.00  0.00    +0.000 A 
ATOM      7  C   UNL     1       9.161  13.651  19.933  0.00  0.00    +0.000 A 
ATOM      8  C   UNL     1       9.229  12.259  19.996  0.00  0.00    +0.000 A 
ATOM      9  O   UNL     1       9.534  15.683  18.831  0.00  0.00    +0.000 OA
ATOM     10  C   UNL     1      10.710  16.260  18.281  0.00  0.00    +0.000 C 
ATOM     11  C   UNL     1      11.035  15.688  16.905  0.00  0.00    +0.000 C 
ATOM     12  O   UNL     1      10.963  14.258  16.786  0.00  0.00    +0.000 OA
BRANCH   8  13
ATOM     13  O   UNL     1       8.864  11.528  21.101  0.00  0.00    +0.000 OA
ATOM     14  C   UNL     1       8.458  12.270  22.243  0.00  0.00    +0.000 C 
ENDBRANCH   8  13
ENDBRANCH   2   3
BRANCH   1  18
ATOM     15  C   UNL     1       6.944   5.518  18.364  0.00  0.00    +0.000 A 
ATOM     16  C   UNL     1       6.635   6.384  17.307  0.00  0.00    +0.000 A 
ATOM     17  C   UNL     1       7.212   7.657  17.218  0.00  0.00    +0.000 A 
ATOM     18  C   UNL     1       8.129   8.100  18.177  0.00  0.00    +0.000 A 
ATOM     19  C   UNL     1       8.435   7.239  19.240  0.00  0.00    +0.000 A 
ATOM     20  C   UNL     1       7.848   5.961  19.331  0.00  0.00    +0.000 A 
BRANCH  15  22
ATOM     21  C   UNL     1       5.035   4.195  18.970  0.00  0.00    +0.000 C 
ATOM     22  O   UNL     1       6.277   4.326  18.290  0.00  0.00    +0.000 OA
ENDBRANCH  15  22
BRANCH  20  23
ATOM     23  O   UNL     1       8.167   5.173  20.405  0.00  0.00    +0.000 OA
ATOM     24  H   UNL     1       7.453   5.229  21.058  0.00  0.00    +0.000 HD
ENDBRANCH  20  23
ENDBRANCH   1  18
TORSDOF 5
ENDMDL
MODEL 6
REMARK VINA RESULT:      -7.2      5.246      7.450
REMARK  Name = 
REMARK  7 active torsions:
REMARK  status: ('A' for Active; 'I' for Inactive)
REMARK    1  A    between atoms: C_1  and  O_2
REMARK    2  A    between atoms: O_2  and  C_3
REMARK    3  A    between atoms: C_6  and  C_7
REMARK    4  A    between atoms: C_8  and  C_9
REMARK    5  A    between atoms: C_14  and  O_15
REMARK    6  A    between atoms: O_15  and  C_16
REMARK    7  A    between atoms: C_22  and  O_23
REMARK                            x       y       z     vdW  Elec       q    Type
REMARK                         _______ _______ _______ _____ _____    ______ ____
ROOT
ATOM      1  C   UNL     1       1.861   7.918  19.523  0.00  0.00    +0.000 C 
ATOM      2  C   UNL     1       2.216   6.653  19.842  0.00  0.00    +0.000 C 
ENDROOT
BRANCH   2   3
ATOM      3  C   UNL     1       3.207   5.936  19.009  0.00  0.00    +0.000 A 
ATOM      4  C   UNL     1       3.661   6.464  17.786  0.00  0.00    +0.000 A 
ATOM      5  C   UNL     1       4.687   5.820  17.081  0.00  0.00    +0.000 A 
ATOM      6  C   UNL     1       5.318   4.718  17.648  0.00  0.00    +0.000 A 
ATOM      7  C   UNL     1       4.851   4.160  18.829  0.00  0.00    +0.000 A 
ATOM      8  C   UNL     1       3.762   4.731  19.488  0.00  0.00    +0.000 A 
ATOM      9  O   UNL     1       6.413   4.121  17.084  0.00  0.00    +0.000 OA
ATOM     10  C   UNL     1       6.256   4.124  15.673  0.00  0.00    +0.000 C 
ATOM     11  C   UNL     1       5.992   5.525  15.131  0.00  0.00    +0.000 C 
ATOM     12  O   UNL     1       5.009   6.297  15.840  0.00  0.00    +0.000 OA
BRANCH   8  13
ATOM     13  O   UNL     1       3.157   4.170  20.587  0.00  0.00    +0.000 OA
ATOM     14  C   UNL     1       2.751   2.815  20.460  0.00  0.00    +0.000 C 
ENDBRANCH   8  13
ENDBRANCH   2   3
BRANCH   1  18
ATOM     15  C   UNL     1      -0.110  10.903  21.932  0.00  0.00    +0.000 A 
ATOM     16  C   UNL     1      -0.021  11.018  20.539  0.00  0.00    +0.000 A 
ATOM     17  C   UNL     1       0.584  10.022  19.764  0.00  0.00    +0.000 A 
ATOM     18  C   UNL     1       1.107   8.868  20.357  0.00  0.00    +0.000 A 
ATOM     19  C   UNL     1       1.028   8.752  21.752  0.00  0.00    +0.000 A 
ATOM     20  C   UNL     1       0.424   9.760  22.530  0.00  0.00    +0.000 A 
BRANCH  15  22
ATOM     21  C   UNL     1      -2.056  11.830  22.986  0.00  0.00    +0.000 C 
ATOM     22  O   UNL     1      -0.721  11.977  22.520  0.00  0.00    +0.000 OA
ENDBRANCH  15  22
BRANCH  20  23
ATOM     23  O   UNL     1       0.396   9.603  23.890  0.00  0.00    +0.000 OA
ATOM     24  H   UNL     1       0.270  10.470  24.304  0.00  0.00    +0.000 HD
ENDBRANCH  20  23
ENDBRANCH   1  18
TORSDOF 5
ENDMDL
MODEL 7
REMARK VINA RESULT:      -7.2      1.872      9.011
REMARK  Name = 
REMARK  7 active torsions:
REMARK  status: ('A' for Active; 'I' for Inactive)
REMARK    1  A    between atoms: C_1  and  O_2
REMARK    2  A    between atoms: O_2  and  C_3
REMARK    3  A    between atoms: C_6  and  C_7
REMARK    4  A    between atoms: C_8  and  C_9
REMARK    5  A    between atoms: C_14  and  O_15
REMARK    6  A    between atoms: O_15  and  C_16
REMARK    7  A    between atoms: C_22  and  O_23
REMARK                            x       y       z     vdW  Elec       q    Type
REMARK                         _______ _______ _______ _____ _____    ______ ____
ROOT
ATOM      1  C   UNL     1       8.283   9.015  17.808  0.00  0.00    +0.000 C 
ATOM      2  C   UNL     1       8.903   9.440  18.932  0.00  0.00    +0.000 C 
ENDROOT
BRANCH   2   3
ATOM      3  C   UNL     1       9.467  10.807  18.987  0.00  0.00    +0.000 A 
ATOM      4  C   UNL     1      10.048  11.410  17.856  0.00  0.00    +0.000 A 
ATOM      5  C   UNL     1      10.464  12.748  17.910  0.00  0.00    +0.000 A 
ATOM      6  C   UNL     1      10.207  13.499  19.052  0.00  0.00    +0.000 A 
ATOM      7  C   UNL     1       9.678  12.904  20.189  0.00  0.00    +0.000 A 
ATOM      8  C   UNL     1       9.356  11.547  20.182  0.00  0.00    +0.000 A 
ATOM      9  O   UNL     1      10.460  14.841  19.129  0.00  0.00    +0.000 OA
ATOM     10  C   UNL     1      11.665  15.116  18.429  0.00  0.00    +0.000 C 
ATOM     11  C   UNL     1      11.624  14.594  16.997  0.00  0.00    +0.000 C 
ATOM     12  O   UNL     1      11.134  13.254  16.830  0.00  0.00    +0.000 OA
BRANCH   8  13
ATOM     13  O   UNL     1       8.953  10.854  21.299  0.00  0.00    +0.000 OA
ATOM     14  C   UNL     1       8.377  11.624  22.345  0.00  0.00    +0.000 C 
ENDBRANCH   8  13
ENDBRANCH   2   3
BRANCH   1  18
ATOM     15  C   UNL     1       5.669   5.591  17.603  0.00  0.00    +0.000 A 
ATOM     16  C   UNL     1       5.248   6.866  17.207  0.00  0.00    +0.000 A 
ATOM     17  C   UNL     1       6.119   7.962  17.239  0.00  0.00    +0.000 A 
ATOM     18  C   UNL     1       7.447   7.814  17.653  0.00  0.00    +0.000 A 
ATOM     19  C   UNL     1       7.871   6.540  18.057  0.00  0.00    +0.000 A 
ATOM     20  C   UNL     1       6.990   5.440  18.031  0.00  0.00    +0.000 A 
BRANCH  15  22
ATOM     21  C   UNL     1       3.812   4.469  18.627  0.00  0.00    +0.000 C 
ATOM     22  O   UNL     1       4.680   4.649  17.516  0.00  0.00    +0.000 OA
ENDBRANCH  15  22
BRANCH  20  23
ATOM     23  O   UNL     1       7.454   4.225  18.459  0.00  0.00    +0.000 OA
ATOM     24  H   UNL     1       7.942   3.803  17.736  0.00  0.00    +0.000 HD
ENDBRANCH  20  23
ENDBRANCH   1  18
TORSDOF 5
ENDMDL
MODEL 8
REMARK VINA RESULT:      -7.2      5.907      7.831
REMARK  Name = 
REMARK  7 active torsions:
REMARK  status: ('A' for Active; 'I' for Inactive)
REMARK    1  A    between atoms: C_1  and  O_2
REMARK    2  A    between atoms: O_2  and  C_3
REMARK    3  A    between atoms: C_6  and  C_7
REMARK    4  A    between atoms: C_8  and  C_9
REMARK    5  A    between atoms: C_14  and  O_15
REMARK    6  A    between atoms: O_15  and  C_16
REMARK    7  A    between atoms: C_22  and  O_23
REMARK                            x       y       z     vdW  Elec       q    Type
REMARK                         _______ _______ _______ _____ _____    ______ ____
ROOT
ATOM      1  C   UNL     1       1.389   8.432  20.288  0.00  0.00    +0.000 C 
ATOM      2  C   UNL     1       1.580   7.130  20.598  0.00  0.00    +0.000 C 
ENDROOT
BRANCH   2   3
ATOM      3  C   UNL     1       2.471   6.299  19.758  0.00  0.00    +0.000 A 
ATOM      4  C   UNL     1       3.060   6.804  18.584  0.00  0.00    +0.000 A 
ATOM      5  C   UNL     1       3.992   6.032  17.877  0.00  0.00    +0.000 A 
ATOM      6  C   UNL     1       4.403   4.809  18.399  0.00  0.00    +0.000 A 
ATOM      7  C   UNL     1       3.796   4.279  19.528  0.00  0.00    +0.000 A 
ATOM      8  C   UNL     1       2.792   4.993  20.182  0.00  0.00    +0.000 A 
ATOM      9  O   UNL     1       5.404   4.064  17.839  0.00  0.00    +0.000 OA
ATOM     10  C   UNL     1       5.312   4.169  16.425  0.00  0.00    +0.000 C 
ATOM     11  C   UNL     1       5.312   5.621  15.960  0.00  0.00    +0.000 C 
ATOM     12  O   UNL     1       4.444   6.511  16.679  0.00  0.00    +0.000 OA
BRANCH   8  13
ATOM     13  O   UNL     1       2.053   4.486  21.225  0.00  0.00    +0.000 OA
ATOM     14  C   UNL     1       2.233   3.107  21.515  0.00  0.00    +0.000 C 
ENDBRANCH   8  13
ENDBRANCH   2   3
BRANCH   1  18
ATOM     15  C   UNL     1      -0.722  11.345  22.667  0.00  0.00    +0.000 A 
ATOM     16  C   UNL     1      -0.641  10.000  23.047  0.00  0.00    +0.000 A 
ATOM     17  C   UNL     1       0.083   9.072  22.288  0.00  0.00    +0.000 A 
ATOM     18  C   UNL     1       0.763   9.464  21.130  0.00  0.00    +0.000 A 
ATOM     19  C   UNL     1       0.679  10.808  20.742  0.00  0.00    +0.000 A 
ATOM     20  C   UNL     1      -0.057  11.739  21.504  0.00  0.00    +0.000 A 
BRANCH  15  22
ATOM     21  C   UNL     1      -2.881  12.187  23.291  0.00  0.00    +0.000 C 
ATOM     22  O   UNL     1      -1.481  12.097  23.521  0.00  0.00    +0.000 OA
ENDBRANCH  15  22
BRANCH  20  23
ATOM     23  O   UNL     1      -0.123  13.033  21.063  0.00  0.00    +0.000 OA
ATOM     24  H   UNL     1       0.359  13.104  20.225  0.00  0.00    +0.000 HD
ENDBRANCH  20  23
ENDBRANCH   1  18
TORSDOF 5
ENDMDL
MODEL 9
REMARK VINA RESULT:      -7.2      5.209      7.376
REMARK  Name = 
REMARK  7 active torsions:
REMARK  status: ('A' for Active; 'I' for Inactive)
REMARK    1  A    between atoms: C_1  and  O_2
REMARK    2  A    between atoms: O_2  and  C_3
REMARK    3  A    between atoms: C_6  and  C_7
REMARK    4  A    between atoms: C_8  and  C_9
REMARK    5  A    between atoms: C_14  and  O_15
REMARK    6  A    between atoms: O_15  and  C_16
REMARK    7  A    between atoms: C_22  and  O_23
REMARK                            x       y       z     vdW  Elec       q    Type
REMARK                         _______ _______ _______ _____ _____    ______ ____
ROOT
ATOM      1  C   UNL     1       2.200   7.829  19.677  0.00  0.00    +0.000 C 
ATOM      2  C   UNL     1       2.301   7.729  18.332  0.00  0.00    +0.000 C 
ENDROOT
BRANCH   2   3
ATOM      3  C   UNL     1       3.129   6.657  17.736  0.00  0.00    +0.000 A 
ATOM      4  C   UNL     1       4.291   6.948  16.997  0.00  0.00    +0.000 A 
ATOM      5  C   UNL     1       5.116   5.908  16.548  0.00  0.00    +0.000 A 
ATOM      6  C   UNL     1       4.833   4.599  16.925  0.00  0.00    +0.000 A 
ATOM      7  C   UNL     1       3.667   4.294  17.613  0.00  0.00    +0.000 A 
ATOM      8  C   UNL     1       2.783   5.311  17.975  0.00  0.00    +0.000 A 
ATOM      9  O   UNL     1       5.664   3.550  16.640  0.00  0.00    +0.000 OA
ATOM     10  C   UNL     1       6.218   3.748  15.348  0.00  0.00    +0.000 C 
ATOM     11  C   UNL     1       6.901   5.106  15.222  0.00  0.00    +0.000 C 
ATOM     12  O   UNL     1       6.164   6.229  15.729  0.00  0.00    +0.000 OA
BRANCH   8  13
ATOM     13  O   UNL     1       1.551   5.084  18.540  0.00  0.00    +0.000 OA
ATOM     14  C   UNL     1       1.324   3.779  19.054  0.00  0.00    +0.000 C 
ENDBRANCH   8  13
ENDBRANCH   2   3
BRANCH   1  18
ATOM     15  C   UNL     1      -0.437  10.468  21.841  0.00  0.00    +0.000 A 
ATOM     16  C   UNL     1      -0.405  10.440  20.442  0.00  0.00    +0.000 A 
ATOM     17  C   UNL     1       0.425   9.549  19.750  0.00  0.00    +0.000 A 
ATOM     18  C   UNL     1       1.240   8.644  20.439  0.00  0.00    +0.000 A 
ATOM     19  C   UNL     1       1.217   8.673  21.840  0.00  0.00    +0.000 A 
ATOM     20  C   UNL     1       0.385   9.576  22.533  0.00  0.00    +0.000 A 
BRANCH  15  22
ATOM     21  C   UNL     1      -0.839  12.749  22.469  0.00  0.00    +0.000 C 
ATOM     22  O   UNL     1      -1.296  11.409  22.338  0.00  0.00    +0.000 OA
ENDBRANCH  15  22
BRANCH  20  23
ATOM     23  O   UNL     1       0.422   9.575  23.902  0.00  0.00    +0.000 OA
ATOM     24  H   UNL     1       1.255   9.175  24.193  0.00  0.00    +0.000 HD
ENDBRANCH  20  23
ENDBRANCH   1  18
TORSDOF 5
ENDMDL
