MODEL 1
REMARK VINA RESULT:      -8.1      0.000      0.000
REMARK  Name = 
REMARK  15 active torsions:
REMARK  status: ('A' for Active; 'I' for Inactive)
REMARK    1  A    between atoms: C_1  and  C_2
REMARK    2  A    between atoms: N_4  and  C_5
REMARK    3  A    between atoms: C_5  and  C_6
REMARK    4  A    between atoms: C_5  and  C_13
REMARK    5  A    between atoms: C_6  and  C_7
REMARK    6  A    between atoms: N_15  and  C_16
REMARK    7  A    between atoms: C_16  and  C_17
REMARK    8  A    between atoms: C_17  and  C_18
REMARK    9  A    between atoms: C_17  and  C_19
REMARK   10  A    between atoms: C_17  and  N_20
REMARK   11  A    between atoms: C_21  and  C_23
REMARK   12  A    between atoms: C_23  and  N_24
REMARK   13  A    between atoms: C_23  and  C_25
REMARK   14  A    between atoms: C_25  and  C_26
REMARK   15  A    between atoms: C_29  and  O_30
REMARK                            x       y       z     vdW  Elec       q    Type
REMARK                         _______ _______ _______ _____ _____    ______ ____
ROOT
ATOM      1  C   UNL     1       2.220   5.282  19.978  0.00  0.00    +0.000 C 
ATOM      2  C   UNL     1       1.673   5.006  18.564  0.00  0.00    +0.000 C 
ATOM      3  C   UNL     1       1.877   4.050  20.842  0.00  0.00    +0.000 C 
ENDROOT
BRANCH   1   4
ATOM      4  N   UNL     1       1.545   6.472  20.532  0.00  0.00    +0.000 N 
ATOM      5  C   UNL     1       1.683   7.746  19.992  0.00  0.00    +0.000 C 
ATOM      6  O   UNL     1       2.317   7.993  18.973  0.00  0.00    +0.000 OA
ATOM      7  H   UNL     1       0.917   6.350  21.321  0.00  0.00    +0.000 HD
BRANCH   5   8
ATOM      8  C   UNL     1       0.949   8.847  20.802  0.00  0.00    +0.000 C 
BRANCH   8   9
ATOM      9  N   UNL     1       1.566   8.904  22.132  0.00  0.00    +0.000 NA
ATOM     10  H   UNL     1       1.705   7.935  22.439  0.00  0.00    +0.000 HD
ATOM     11  H   UNL     1       0.897   9.287  22.793  0.00  0.00    +0.000 HD
ENDBRANCH   8   9
BRANCH   8  12
ATOM     12  C   UNL     1       1.060  10.235  20.145  0.00  0.00    +0.000 C 
BRANCH  12  13
ATOM     13  C   UNL     1      -0.223  10.661  19.454  0.00  0.00    +0.000 A 
ATOM     14  C   UNL     1      -0.593  10.097  18.222  0.00  0.00    +0.000 A 
ATOM     15  C   UNL     1      -1.727  10.546  17.541  0.00  0.00    +0.000 A 
ATOM     16  C   UNL     1      -2.500  11.558  18.096  0.00  0.00    +0.000 A 
ATOM     17  C   UNL     1      -2.156  12.120  19.324  0.00  0.00    +0.000 A 
ATOM     18  C   UNL     1      -1.017  11.677  19.996  0.00  0.00    +0.000 A 
BRANCH  16  19
ATOM     19  O   UNL     1      -3.612  12.035  17.468  0.00  0.00    +0.000 OA
ATOM     20  H   UNL     1      -4.192  12.434  18.137  0.00  0.00    +0.000 HD
ENDBRANCH  16  19
ENDBRANCH  12  13
ENDBRANCH   8  12
ENDBRANCH   5   8
ENDBRANCH   1   4
BRANCH   1  21
ATOM     21  C   UNL     1       3.778   5.449  19.924  0.00  0.00    +0.000 C 
BRANCH  21  24
ATOM     22  C   UNL     1       5.416   5.073  18.065  0.00  0.00    +0.000 C 
ATOM     23  O   UNL     1       6.028   4.190  18.669  0.00  0.00    +0.000 OA
ATOM     24  N   UNL     1       4.323   5.728  18.590  0.00  0.00    +0.000 N 
ATOM     25  H   UNL     1       3.914   6.497  18.074  0.00  0.00    +0.000 HD
BRANCH  22  26
ATOM     26  C   UNL     1       5.860   5.522  16.644  0.00  0.00    +0.000 C 
BRANCH  26  30
ATOM     27  C   UNL     1       7.740   8.651  17.745  0.00  0.00    +0.000 C 
ATOM     28  C   UNL     1       7.478   7.172  17.620  0.00  0.00    +0.000 C 
ATOM     29  O   UNL     1       8.128   6.335  18.234  0.00  0.00    +0.000 OA
ATOM     30  N   UNL     1       6.452   6.860  16.768  0.00  0.00    +0.000 N 
ATOM     31  H   UNL     1       6.024   7.589  16.203  0.00  0.00    +0.000 HD
ENDBRANCH  26  30
BRANCH  26  32
ATOM     32  C   UNL     1       6.786   4.475  15.971  0.00  0.00    +0.000 C 
BRANCH  32  33
ATOM     33  C   UNL     1       6.887   4.428  14.457  0.00  0.00    +0.000 A 
ATOM     34  C   UNL     1       7.700   5.283  13.713  0.00  0.00    +0.000 A 
ATOM     35  C   UNL     1       7.762   5.216  12.319  0.00  0.00    +0.000 A 
ATOM     36  C   UNL     1       7.010   4.280  11.633  0.00  0.00    +0.000 A 
ATOM     37  C   UNL     1       6.162   3.437  12.345  0.00  0.00    +0.000 A 
ATOM     38  C   UNL     1       6.098   3.513  13.744  0.00  0.00    +0.000 A 
ENDBRANCH  32  33
ENDBRANCH  26  32
ENDBRANCH  22  26
ENDBRANCH  21  24
ENDBRANCH   1  21
TORSDOF 12
ENDMDL
MODEL 2
REMARK VINA RESULT:      -7.7      1.681      3.566
REMARK  Name = 
REMARK  15 active torsions:
REMARK  status: ('A' for Active; 'I' for Inactive)
REMARK    1  A    between atoms: C_1  and  C_2
REMARK    2  A    between atoms: N_4  and  C_5
REMARK    3  A    between atoms: C_5  and  C_6
REMARK    4  A    between atoms: C_5  and  C_13
REMARK    5  A    between atoms: C_6  and  C_7
REMARK    6  A    between atoms: N_15  and  C_16
REMARK    7  A    between atoms: C_16  and  C_17
REMARK    8  A    between atoms: C_17  and  C_18
REMARK    9  A    between atoms: C_17  and  C_19
REMARK   10  A    between atoms: C_17  and  N_20
REMARK   11  A    between atoms: C_21  and  C_23
REMARK   12  A    between atoms: C_23  and  N_24
REMARK   13  A    between atoms: C_23  and  C_25
REMARK   14  A    between atoms: C_25  and  C_26
REMARK   15  A    between atoms: C_29  and  O_30
REMARK                            x       y       z     vdW  Elec       q    Type
REMARK                         _______ _______ _______ _____ _____    ______ ____
ROOT
ATOM      1  C   UNL     1       1.785   4.299  20.039  0.00  0.00    +0.000 C 
ATOM      2  C   UNL     1       0.960   3.233  20.786  0.00  0.00    +0.000 C 
ATOM      3  C   UNL     1       3.239   4.176  20.542  0.00  0.00    +0.000 C 
ENDROOT
BRANCH   1   4
ATOM      4  N   UNL     1       1.261   5.637  20.376  0.00  0.00    +0.000 N 
ATOM      5  C   UNL     1       1.916   6.817  20.041  0.00  0.00    +0.000 C 
ATOM      6  O   UNL     1       2.947   6.865  19.382  0.00  0.00    +0.000 OA
ATOM      7  H   UNL     1       0.358   5.702  20.837  0.00  0.00    +0.000 HD
BRANCH   5   8
ATOM      8  C   UNL     1       1.214   8.091  20.581  0.00  0.00    +0.000 C 
BRANCH   8   9
ATOM      9  N   UNL     1       1.852   8.443  21.854  0.00  0.00    +0.000 NA
ATOM     10  H   UNL     1       2.611   7.769  22.004  0.00  0.00    +0.000 HD
ATOM     11  H   UNL     1       1.200   8.267  22.612  0.00  0.00    +0.000 HD
ENDBRANCH   8   9
BRANCH   8  12
ATOM     12  C   UNL     1       1.339   9.286  19.618  0.00  0.00    +0.000 C 
BRANCH  12  13
ATOM     13  C   UNL     1       0.084  10.139  19.575  0.00  0.00    +0.000 A 
ATOM     14  C   UNL     1      -0.612  10.330  18.370  0.00  0.00    +0.000 A 
ATOM     15  C   UNL     1      -1.717  11.181  18.309  0.00  0.00    +0.000 A 
ATOM     16  C   UNL     1      -2.135  11.840  19.458  0.00  0.00    +0.000 A 
ATOM     17  C   UNL     1      -1.466  11.654  20.665  0.00  0.00    +0.000 A 
ATOM     18  C   UNL     1      -0.355  10.812  20.721  0.00  0.00    +0.000 A 
BRANCH  16  19
ATOM     19  O   UNL     1      -3.204  12.687  19.448  0.00  0.00    +0.000 OA
ATOM     20  H   UNL     1      -3.012  13.427  20.047  0.00  0.00    +0.000 HD
ENDBRANCH  16  19
ENDBRANCH  12  13
ENDBRANCH   8  12
ENDBRANCH   5   8
ENDBRANCH   1   4
BRANCH   1  21
ATOM     21  C   UNL     1       1.753   4.014  18.498  0.00  0.00    +0.000 C 
BRANCH  21  24
ATOM     22  C   UNL     1       3.890   3.528  17.284  0.00  0.00    +0.000 C 
ATOM     23  O   UNL     1       3.788   2.307  17.417  0.00  0.00    +0.000 OA
ATOM     24  N   UNL     1       2.959   4.421  17.768  0.00  0.00    +0.000 N 
ATOM     25  H   UNL     1       3.142   5.414  17.693  0.00  0.00    +0.000 HD
BRANCH  22  26
ATOM     26  C   UNL     1       5.114   4.151  16.555  0.00  0.00    +0.000 C 
BRANCH  26  30
ATOM     27  C   UNL     1       5.695   3.566  12.832  0.00  0.00    +0.000 C 
ATOM     28  C   UNL     1       6.067   3.940  14.243  0.00  0.00    +0.000 C 
ATOM     29  O   UNL     1       7.151   4.438  14.528  0.00  0.00    +0.000 OA
ATOM     30  N   UNL     1       5.088   3.680  15.164  0.00  0.00    +0.000 N 
ATOM     31  H   UNL     1       4.256   3.165  14.886  0.00  0.00    +0.000 HD
ENDBRANCH  26  30
BRANCH  26  32
ATOM     32  C   UNL     1       5.151   5.695  16.704  0.00  0.00    +0.000 C 
BRANCH  32  33
ATOM     33  C   UNL     1       6.315   6.350  17.427  0.00  0.00    +0.000 A 
ATOM     34  C   UNL     1       7.021   5.737  18.462  0.00  0.00    +0.000 A 
ATOM     35  C   UNL     1       8.082   6.374  19.110  0.00  0.00    +0.000 A 
ATOM     36  C   UNL     1       8.468   7.646  18.729  0.00  0.00    +0.000 A 
ATOM     37  C   UNL     1       7.760   8.297  17.724  0.00  0.00    +0.000 A 
ATOM     38  C   UNL     1       6.690   7.656  17.081  0.00  0.00    +0.000 A 
ENDBRANCH  32  33
ENDBRANCH  26  32
ENDBRANCH  22  26
ENDBRANCH  21  24
ENDBRANCH   1  21
TORSDOF 12
ENDMDL
MODEL 3
REMARK VINA RESULT:      -7.6      4.559      8.358
REMARK  Name = 
REMARK  15 active torsions:
REMARK  status: ('A' for Active; 'I' for Inactive)
REMARK    1  A    between atoms: C_1  and  C_2
REMARK    2  A    between atoms: N_4  and  C_5
REMARK    3  A    between atoms: C_5  and  C_6
REMARK    4  A    between atoms: C_5  and  C_13
REMARK    5  A    between atoms: C_6  and  C_7
REMARK    6  A    between atoms: N_15  and  C_16
REMARK    7  A    between atoms: C_16  and  C_17
REMARK    8  A    between atoms: C_17  and  C_18
REMARK    9  A    between atoms: C_17  and  C_19
REMARK   10  A    between atoms: C_17  and  N_20
REMARK   11  A    between atoms: C_21  and  C_23
REMARK   12  A    between atoms: C_23  and  N_24
REMARK   13  A    between atoms: C_23  and  C_25
REMARK   14  A    between atoms: C_25  and  C_26
REMARK   15  A    between atoms: C_29  and  O_30
REMARK                            x       y       z     vdW  Elec       q    Type
REMARK                         _______ _______ _______ _____ _____    ______ ____
ROOT
ATOM      1  C   UNL     1       7.796   5.745  19.186  0.00  0.00    +0.000 C 
ATOM      2  C   UNL     1       8.489   5.153  20.429  0.00  0.00    +0.000 C 
ATOM      3  C   UNL     1       8.229   4.885  17.979  0.00  0.00    +0.000 C 
ENDROOT
BRANCH   1   4
ATOM      4  N   UNL     1       8.259   7.133  18.991  0.00  0.00    +0.000 N 
ATOM      5  C   UNL     1       7.831   7.937  17.941  0.00  0.00    +0.000 C 
ATOM      6  O   UNL     1       6.985   7.600  17.121  0.00  0.00    +0.000 OA
ATOM      7  H   UNL     1       8.887   7.535  19.679  0.00  0.00    +0.000 HD
BRANCH   5   8
ATOM      8  C   UNL     1       8.525   9.323  17.897  0.00  0.00    +0.000 C 
BRANCH   8   9
ATOM      9  N   UNL     1       7.501  10.323  17.572  0.00  0.00    +0.000 NA
ATOM     10  H   UNL     1       7.781  11.197  18.031  0.00  0.00    +0.000 HD
ATOM     11  H   UNL     1       6.630  10.064  18.023  0.00  0.00    +0.000 HD
ENDBRANCH   8   9
BRANCH   8  12
ATOM     12  C   UNL     1       9.175   9.700  19.241  0.00  0.00    +0.000 C 
BRANCH  12  13
ATOM     13  C   UNL     1      10.048  10.938  19.144  0.00  0.00    +0.000 A 
ATOM     14  C   UNL     1      10.189  11.803  20.242  0.00  0.00    +0.000 A 
ATOM     15  C   UNL     1      10.922  12.986  20.131  0.00  0.00    +0.000 A 
ATOM     16  C   UNL     1      11.525  13.305  18.922  0.00  0.00    +0.000 A 
ATOM     17  C   UNL     1      11.408  12.453  17.825  0.00  0.00    +0.000 A 
ATOM     18  C   UNL     1      10.665  11.278  17.935  0.00  0.00    +0.000 A 
BRANCH  16  19
ATOM     19  O   UNL     1      12.246  14.451  18.761  0.00  0.00    +0.000 OA
ATOM     20  H   UNL     1      12.654  14.676  19.613  0.00  0.00    +0.000 HD
ENDBRANCH  16  19
ENDBRANCH  12  13
ENDBRANCH   8  12
ENDBRANCH   5   8
ENDBRANCH   1   4
BRANCH   1  21
ATOM     21  C   UNL     1       6.240   5.650  19.347  0.00  0.00    +0.000 C 
BRANCH  21  24
ATOM     22  C   UNL     1       4.343   5.246  17.760  0.00  0.00    +0.000 C 
ATOM     23  O   UNL     1       3.729   6.259  18.102  0.00  0.00    +0.000 OA
ATOM     24  N   UNL     1       5.555   4.879  18.303  0.00  0.00    +0.000 N 
ATOM     25  H   UNL     1       5.969   3.995  18.033  0.00  0.00    +0.000 HD
BRANCH  22  26
ATOM     26  C   UNL     1       3.764   4.291  16.679  0.00  0.00    +0.000 C 
BRANCH  26  30
ATOM     27  C   UNL     1       6.437   4.114  13.965  0.00  0.00    +0.000 C 
ATOM     28  C   UNL     1       5.518   4.784  14.954  0.00  0.00    +0.000 C 
ATOM     29  O   UNL     1       5.370   6.000  14.995  0.00  0.00    +0.000 OA
ATOM     30  N   UNL     1       4.868   3.913  15.787  0.00  0.00    +0.000 N 
ATOM     31  H   UNL     1       5.115   2.927  15.779  0.00  0.00    +0.000 HD
ENDBRANCH  26  30
BRANCH  26  32
ATOM     32  C   UNL     1       3.016   3.088  17.312  0.00  0.00    +0.000 C 
BRANCH  32  33
ATOM     33  C   UNL     1       2.546   3.174  18.754  0.00  0.00    +0.000 A 
ATOM     34  C   UNL     1       3.207   2.558  19.816  0.00  0.00    +0.000 A 
ATOM     35  C   UNL     1       2.740   2.651  21.130  0.00  0.00    +0.000 A 
ATOM     36  C   UNL     1       1.596   3.375  21.412  0.00  0.00    +0.000 A 
ATOM     37  C   UNL     1       0.895   3.970  20.368  0.00  0.00    +0.000 A 
ATOM     38  C   UNL     1       1.363   3.867  19.050  0.00  0.00    +0.000 A 
ENDBRANCH  32  33
ENDBRANCH  26  32
ENDBRANCH  22  26
ENDBRANCH  21  24
ENDBRANCH   1  21
TORSDOF 12
ENDMDL
MODEL 4
REMARK VINA RESULT:      -7.6      1.812      2.615
REMARK  Name = 
REMARK  15 active torsions:
REMARK  status: ('A' for Active; 'I' for Inactive)
REMARK    1  A    between atoms: C_1  and  C_2
REMARK    2  A    between atoms: N_4  and  C_5
REMARK    3  A    between atoms: C_5  and  C_6
REMARK    4  A    between atoms: C_5  and  C_13
REMARK    5  A    between atoms: C_6  and  C_7
REMARK    6  A    between atoms: N_15  and  C_16
REMARK    7  A    between atoms: C_16  and  C_17
REMARK    8  A    between atoms: C_17  and  C_18
REMARK    9  A    between atoms: C_17  and  C_19
REMARK   10  A    between atoms: C_17  and  N_20
REMARK   11  A    between atoms: C_21  and  C_23
REMARK   12  A    between atoms: C_23  and  N_24
REMARK   13  A    between atoms: C_23  and  C_25
REMARK   14  A    between atoms: C_25  and  C_26
REMARK   15  A    between atoms: C_29  and  O_30
REMARK                            x       y       z     vdW  Elec       q    Type
REMARK                         _______ _______ _______ _____ _____    ______ ____
ROOT
ATOM      1  C   UNL     1       2.086   2.847  19.982  0.00  0.00    +0.000 C 
ATOM      2  C   UNL     1       0.737   2.673  19.257  0.00  0.00    +0.000 C 
ATOM      3  C   UNL     1       1.928   2.217  21.382  0.00  0.00    +0.000 C 
ENDROOT
BRANCH   1   4
ATOM      4  N   UNL     1       2.376   4.288  20.123  0.00  0.00    +0.000 N 
ATOM      5  C   UNL     1       2.125   5.216  19.119  0.00  0.00    +0.000 C 
ATOM      6  O   UNL     1       1.582   4.944  18.055  0.00  0.00    +0.000 OA
ATOM      7  H   UNL     1       2.737   4.624  21.010  0.00  0.00    +0.000 HD
BRANCH   5   8
ATOM      8  C   UNL     1       2.597   6.652  19.469  0.00  0.00    +0.000 C 
BRANCH   8   9
ATOM      9  N   UNL     1       4.062   6.629  19.552  0.00  0.00    +0.000 NA
ATOM     10  H   UNL     1       4.310   6.848  20.523  0.00  0.00    +0.000 HD
ATOM     11  H   UNL     1       4.438   7.402  19.012  0.00  0.00    +0.000 HD
ENDBRANCH   8   9
BRANCH   8  12
ATOM     12  C   UNL     1       2.178   7.685  18.407  0.00  0.00    +0.000 C 
BRANCH  12  13
ATOM     13  C   UNL     1       1.365   8.828  18.990  0.00  0.00    +0.000 A 
ATOM     14  C   UNL     1       1.091   8.883  20.366  0.00  0.00    +0.000 A 
ATOM     15  C   UNL     1       0.274   9.884  20.894  0.00  0.00    +0.000 A 
ATOM     16  C   UNL     1      -0.268  10.841  20.045  0.00  0.00    +0.000 A 
ATOM     17  C   UNL     1       0.003  10.811  18.679  0.00  0.00    +0.000 A 
ATOM     18  C   UNL     1       0.811   9.802  18.153  0.00  0.00    +0.000 A 
BRANCH  16  19
ATOM     19  O   UNL     1      -1.077  11.835  20.510  0.00  0.00    +0.000 OA
ATOM     20  H   UNL     1      -1.321  11.625  21.426  0.00  0.00    +0.000 HD
ENDBRANCH  16  19
ENDBRANCH  12  13
ENDBRANCH   8  12
ENDBRANCH   5   8
ENDBRANCH   1   4
BRANCH   1  21
ATOM     21  C   UNL     1       3.212   2.084  19.204  0.00  0.00    +0.000 C 
BRANCH  21  24
ATOM     22  C   UNL     1       4.901   3.665  18.240  0.00  0.00    +0.000 C 
ATOM     23  O   UNL     1       5.469   3.850  19.319  0.00  0.00    +0.000 OA
ATOM     24  N   UNL     1       3.813   2.832  18.093  0.00  0.00    +0.000 N 
ATOM     25  H   UNL     1       3.346   2.785  17.196  0.00  0.00    +0.000 HD
BRANCH  22  26
ATOM     26  C   UNL     1       5.382   4.389  16.951  0.00  0.00    +0.000 C 
BRANCH  26  30
ATOM     27  C   UNL     1       7.651   7.411  17.461  0.00  0.00    +0.000 C 
ATOM     28  C   UNL     1       6.349   6.687  17.236  0.00  0.00    +0.000 C 
ATOM     29  O   UNL     1       5.305   7.276  16.979  0.00  0.00    +0.000 OA
ATOM     30  N   UNL     1       6.445   5.325  17.340  0.00  0.00    +0.000 N 
ATOM     31  H   UNL     1       7.311   4.903  17.665  0.00  0.00    +0.000 HD
ENDBRANCH  26  30
BRANCH  26  32
ATOM     32  C   UNL     1       5.792   3.384  15.843  0.00  0.00    +0.000 C 
BRANCH  32  33
ATOM     33  C   UNL     1       6.341   3.903  14.526  0.00  0.00    +0.000 A 
ATOM     34  C   UNL     1       5.955   3.405  13.281  0.00  0.00    +0.000 A 
ATOM     35  C   UNL     1       6.488   3.902  12.089  0.00  0.00    +0.000 A 
ATOM     36  C   UNL     1       7.422   4.922  12.117  0.00  0.00    +0.000 A 
ATOM     37  C   UNL     1       7.854   5.414  13.345  0.00  0.00    +0.000 A 
ATOM     38  C   UNL     1       7.321   4.907  14.538  0.00  0.00    +0.000 A 
ENDBRANCH  32  33
ENDBRANCH  26  32
ENDBRANCH  22  26
ENDBRANCH  21  24
ENDBRANCH   1  21
TORSDOF 12
ENDMDL
MODEL 5
REMARK VINA RESULT:      -7.6      3.248      5.745
REMARK  Name = 
REMARK  15 active torsions:
REMARK  status: ('A' for Active; 'I' for Inactive)
REMARK    1  A    between atoms: C_1  and  C_2
REMARK    2  A    between atoms: N_4  and  C_5
REMARK    3  A    between atoms: C_5  and  C_6
REMARK    4  A    between atoms: C_5  and  C_13
REMARK    5  A    between atoms: C_6  and  C_7
REMARK    6  A    between atoms: N_15  and  C_16
REMARK    7  A    between atoms: C_16  and  C_17
REMARK    8  A    between atoms: C_17  and  C_18
REMARK    9  A    between atoms: C_17  and  C_19
REMARK   10  A    between atoms: C_17  and  N_20
REMARK   11  A    between atoms: C_21  and  C_23
REMARK   12  A    between atoms: C_23  and  N_24
REMARK   13  A    between atoms: C_23  and  C_25
REMARK   14  A    between atoms: C_25  and  C_26
REMARK   15  A    between atoms: C_29  and  O_30
REMARK                            x       y       z     vdW  Elec       q    Type
REMARK                         _______ _______ _______ _____ _____    ______ ____
ROOT
ATOM      1  C   UNL     1       0.352   9.360  21.265  0.00  0.00    +0.000 C 
ATOM      2  C   UNL     1      -0.493   8.073  21.357  0.00  0.00    +0.000 C 
ATOM      3  C   UNL     1       1.454   9.252  22.340  0.00  0.00    +0.000 C 
ENDROOT
BRANCH   1   4
ATOM      4  N   UNL     1      -0.508  10.523  21.559  0.00  0.00    +0.000 N 
ATOM      5  C   UNL     1      -0.033  11.829  21.599  0.00  0.00    +0.000 C 
ATOM      6  O   UNL     1       1.119  12.148  21.330  0.00  0.00    +0.000 OA
ATOM      7  H   UNL     1      -1.502  10.368  21.698  0.00  0.00    +0.000 HD
BRANCH   5   8
ATOM      8  C   UNL     1      -1.108  12.868  22.016  0.00  0.00    +0.000 C 
BRANCH   8   9
ATOM      9  N   UNL     1      -0.570  14.202  21.729  0.00  0.00    +0.000 NA
ATOM     10  H   UNL     1       0.391  14.220  22.088  0.00  0.00    +0.000 HD
ATOM     11  H   UNL     1      -1.065  14.888  22.290  0.00  0.00    +0.000 HD
ENDBRANCH   8   9
BRANCH   8  12
ATOM     12  C   UNL     1      -2.429  12.691  21.247  0.00  0.00    +0.000 C 
BRANCH  12  13
ATOM     13  C   UNL     1      -3.647  12.751  22.152  0.00  0.00    +0.000 A 
ATOM     14  C   UNL     1      -4.912  13.066  21.630  0.00  0.00    +0.000 A 
ATOM     15  C   UNL     1      -6.019  13.205  22.470  0.00  0.00    +0.000 A 
ATOM     16  C   UNL     1      -5.865  13.023  23.838  0.00  0.00    +0.000 A 
ATOM     17  C   UNL     1      -4.620  12.698  24.374  0.00  0.00    +0.000 A 
ATOM     18  C   UNL     1      -3.514  12.570  23.533  0.00  0.00    +0.000 A 
BRANCH  16  19
ATOM     19  O   UNL     1      -6.912  13.155  24.701  0.00  0.00    +0.000 OA
ATOM     20  H   UNL     1      -7.464  12.359  24.632  0.00  0.00    +0.000 HD
ENDBRANCH  16  19
ENDBRANCH  12  13
ENDBRANCH   8  12
ENDBRANCH   5   8
ENDBRANCH   1   4
BRANCH   1  21
ATOM     21  C   UNL     1       1.024   9.455  19.852  0.00  0.00    +0.000 C 
BRANCH  21  24
ATOM     22  C   UNL     1       2.421   8.138  18.241  0.00  0.00    +0.000 C 
ATOM     23  O   UNL     1       2.243   8.926  17.310  0.00  0.00    +0.000 OA
ATOM     24  N   UNL     1       1.877   8.315  19.495  0.00  0.00    +0.000 N 
ATOM     25  H   UNL     1       1.999   7.591  20.192  0.00  0.00    +0.000 HD
BRANCH  22  26
ATOM     26  C   UNL     1       3.281   6.857  18.048  0.00  0.00    +0.000 C 
BRANCH  26  30
ATOM     27  C   UNL     1       6.973   7.069  17.120  0.00  0.00    +0.000 C 
ATOM     28  C   UNL     1       5.587   6.479  17.135  0.00  0.00    +0.000 C 
ATOM     29  O   UNL     1       5.339   5.371  16.671  0.00  0.00    +0.000 OA
ATOM     30  N   UNL     1       4.645   7.287  17.713  0.00  0.00    +0.000 N 
ATOM     31  H   UNL     1       4.889   8.237  17.978  0.00  0.00    +0.000 HD
ENDBRANCH  26  30
BRANCH  26  32
ATOM     32  C   UNL     1       3.193   5.913  19.276  0.00  0.00    +0.000 C 
BRANCH  32  33
ATOM     33  C   UNL     1       2.394   4.626  19.174  0.00  0.00    +0.000 A 
ATOM     34  C   UNL     1       1.458   4.224  20.128  0.00  0.00    +0.000 A 
ATOM     35  C   UNL     1       0.746   3.028  20.006  0.00  0.00    +0.000 A 
ATOM     36  C   UNL     1       0.952   2.204  18.915  0.00  0.00    +0.000 A 
ATOM     37  C   UNL     1       1.906   2.560  17.966  0.00  0.00    +0.000 A 
ATOM     38  C   UNL     1       2.623   3.758  18.097  0.00  0.00    +0.000 A 
ENDBRANCH  32  33
ENDBRANCH  26  32
ENDBRANCH  22  26
ENDBRANCH  21  24
ENDBRANCH   1  21
TORSDOF 12
ENDMDL
MODEL 6
REMARK VINA RESULT:      -7.5      3.235      5.270
REMARK  Name = 
REMARK  15 active torsions:
REMARK  status: ('A' for Active; 'I' for Inactive)
REMARK    1  A    between atoms: C_1  and  C_2
REMARK    2  A    between atoms: N_4  and  C_5
REMARK    3  A    between atoms: C_5  and  C_6
REMARK    4  A    between atoms: C_5  and  C_13
REMARK    5  A    between atoms: C_6  and  C_7
REMARK    6  A    between atoms: N_15  and  C_16
REMARK    7  A    between atoms: C_16  and  C_17
REMARK    8  A    between atoms: C_17  and  C_18
REMARK    9  A    between atoms: C_17  and  C_19
REMARK   10  A    between atoms: C_17  and  N_20
REMARK   11  A    between atoms: C_21  and  C_23
REMARK   12  A    between atoms: C_23  and  N_24
REMARK   13  A    between atoms: C_23  and  C_25
REMARK   14  A    between atoms: C_25  and  C_26
REMARK   15  A    between atoms: C_29  and  O_30
REMARK                            x       y       z     vdW  Elec       q    Type
REMARK                         _______ _______ _______ _____ _____    ______ ____
ROOT
ATOM      1  C   UNL     1       0.581   9.287  21.407  0.00  0.00    +0.000 C 
ATOM      2  C   UNL     1      -0.575   8.324  21.740  0.00  0.00    +0.000 C 
ATOM      3  C   UNL     1       1.572   9.225  22.588  0.00  0.00    +0.000 C 
ENDROOT
BRANCH   1   4
ATOM      4  N   UNL     1       0.048  10.657  21.285  0.00  0.00    +0.000 N 
ATOM      5  C   UNL     1      -0.539  11.342  22.343  0.00  0.00    +0.000 C 
ATOM      6  O   UNL     1      -0.611  10.906  23.486  0.00  0.00    +0.000 OA
ATOM      7  H   UNL     1       0.152  11.140  20.398  0.00  0.00    +0.000 HD
BRANCH   5   8
ATOM      8  C   UNL     1      -1.104  12.732  21.946  0.00  0.00    +0.000 C 
BRANCH   8   9
ATOM      9  N   UNL     1      -0.106  13.390  21.095  0.00  0.00    +0.000 NA
ATOM     10  H   UNL     1      -0.468  13.364  20.136  0.00  0.00    +0.000 HD
ATOM     11  H   UNL     1       0.734  12.820  21.067  0.00  0.00    +0.000 HD
ENDBRANCH   8   9
BRANCH   8  12
ATOM     12  C   UNL     1      -2.428  12.630  21.167  0.00  0.00    +0.000 C 
BRANCH  12  13
ATOM     13  C   UNL     1      -3.647  12.717  22.068  0.00  0.00    +0.000 A 
ATOM     14  C   UNL     1      -4.940  12.759  21.522  0.00  0.00    +0.000 A 
ATOM     15  C   UNL     1      -6.058  12.924  22.341  0.00  0.00    +0.000 A 
ATOM     16  C   UNL     1      -5.887  13.041  23.714  0.00  0.00    +0.000 A 
ATOM     17  C   UNL     1      -4.614  12.988  24.276  0.00  0.00    +0.000 A 
ATOM     18  C   UNL     1      -3.497  12.835  23.454  0.00  0.00    +0.000 A 
BRANCH  16  19
ATOM     19  O   UNL     1      -6.946  13.210  24.556  0.00  0.00    +0.000 OA
ATOM     20  H   UNL     1      -6.962  12.466  25.179  0.00  0.00    +0.000 HD
ENDBRANCH  16  19
ENDBRANCH  12  13
ENDBRANCH   8  12
ENDBRANCH   5   8
ENDBRANCH   1   4
BRANCH   1  21
ATOM     21  C   UNL     1       1.311   8.811  20.103  0.00  0.00    +0.000 C 
BRANCH  21  24
ATOM     22  C   UNL     1       2.513   6.826  19.158  0.00  0.00    +0.000 C 
ATOM     23  O   UNL     1       2.335   7.168  17.988  0.00  0.00    +0.000 OA
ATOM     24  N   UNL     1       2.058   7.555  20.236  0.00  0.00    +0.000 N 
ATOM     25  H   UNL     1       2.171   7.179  21.169  0.00  0.00    +0.000 HD
BRANCH  22  26
ATOM     26  C   UNL     1       3.268   5.509  19.499  0.00  0.00    +0.000 C 
BRANCH  26  30
ATOM     27  C   UNL     1       0.910   2.574  18.895  0.00  0.00    +0.000 C 
ATOM     28  C   UNL     1       1.380   3.857  19.530  0.00  0.00    +0.000 C 
ATOM     29  O   UNL     1       0.813   4.360  20.494  0.00  0.00    +0.000 OA
ATOM     30  N   UNL     1       2.491   4.397  18.938  0.00  0.00    +0.000 N 
ATOM     31  H   UNL     1       2.849   3.995  18.076  0.00  0.00    +0.000 HD
ENDBRANCH  26  30
BRANCH  26  32
ATOM     32  C   UNL     1       4.746   5.555  19.031  0.00  0.00    +0.000 C 
BRANCH  32  33
ATOM     33  C   UNL     1       5.075   5.326  17.566  0.00  0.00    +0.000 A 
ATOM     34  C   UNL     1       5.100   6.345  16.614  0.00  0.00    +0.000 A 
ATOM     35  C   UNL     1       5.400   6.096  15.273  0.00  0.00    +0.000 A 
ATOM     36  C   UNL     1       5.690   4.811  14.852  0.00  0.00    +0.000 A 
ATOM     37  C   UNL     1       5.638   3.768  15.771  0.00  0.00    +0.000 A 
ATOM     38  C   UNL     1       5.329   4.022  17.115  0.00  0.00    +0.000 A 
ENDBRANCH  32  33
ENDBRANCH  26  32
ENDBRANCH  22  26
ENDBRANCH  21  24
ENDBRANCH   1  21
TORSDOF 12
ENDMDL
MODEL 7
REMARK VINA RESULT:      -7.4      2.282      2.843
REMARK  Name = 
REMARK  15 active torsions:
REMARK  status: ('A' for Active; 'I' for Inactive)
REMARK    1  A    between atoms: C_1  and  C_2
REMARK    2  A    between atoms: N_4  and  C_5
REMARK    3  A    between atoms: C_5  and  C_6
REMARK    4  A    between atoms: C_5  and  C_13
REMARK    5  A    between atoms: C_6  and  C_7
REMARK    6  A    between atoms: N_15  and  C_16
REMARK    7  A    between atoms: C_16  and  C_17
REMARK    8  A    between atoms: C_17  and  C_18
REMARK    9  A    between atoms: C_17  and  C_19
REMARK   10  A    between atoms: C_17  and  N_20
REMARK   11  A    between atoms: C_21  and  C_23
REMARK   12  A    between atoms: C_23  and  N_24
REMARK   13  A    between atoms: C_23  and  C_25
REMARK   14  A    between atoms: C_25  and  C_26
REMARK   15  A    between atoms: C_29  and  O_30
REMARK                            x       y       z     vdW  Elec       q    Type
REMARK                         _______ _______ _______ _____ _____    ______ ____
ROOT
ATOM      1  C   UNL     1       2.811   4.322  18.539  0.00  0.00    +0.000 C 
ATOM      2  C   UNL     1       1.367   3.800  18.676  0.00  0.00    +0.000 C 
ATOM      3  C   UNL     1       3.563   3.904  19.820  0.00  0.00    +0.000 C 
ENDROOT
BRANCH   1   4
ATOM      4  N   UNL     1       2.785   5.794  18.443  0.00  0.00    +0.000 N 
ATOM      5  C   UNL     1       2.238   6.611  19.426  0.00  0.00    +0.000 C 
ATOM      6  O   UNL     1       1.789   6.198  20.488  0.00  0.00    +0.000 OA
ATOM      7  H   UNL     1       3.225   6.235  17.641  0.00  0.00    +0.000 HD
BRANCH   5   8
ATOM      8  C   UNL     1       2.248   8.118  19.057  0.00  0.00    +0.000 C 
BRANCH   8   9
ATOM      9  N   UNL     1       2.933   8.254  17.766  0.00  0.00    +0.000 NA
ATOM     10  H   UNL     1       2.434   7.656  17.099  0.00  0.00    +0.000 HD
ATOM     11  H   UNL     1       3.858   7.843  17.836  0.00  0.00    +0.000 HD
ENDBRANCH   8   9
BRANCH   8  12
ATOM     12  C   UNL     1       0.830   8.703  18.928  0.00  0.00    +0.000 C 
BRANCH  12  13
ATOM     13  C   UNL     1       0.430   9.542  20.128  0.00  0.00    +0.000 A 
ATOM     14  C   UNL     1       0.036   8.932  21.330  0.00  0.00    +0.000 A 
ATOM     15  C   UNL     1      -0.413   9.697  22.408  0.00  0.00    +0.000 A 
ATOM     16  C   UNL     1      -0.462  11.080  22.291  0.00  0.00    +0.000 A 
ATOM     17  C   UNL     1      -0.063  11.705  21.111  0.00  0.00    +0.000 A 
ATOM     18  C   UNL     1       0.375  10.937  20.031  0.00  0.00    +0.000 A 
BRANCH  16  19
ATOM     19  O   UNL     1      -0.898  11.870  23.312  0.00  0.00    +0.000 OA
ATOM     20  H   UNL     1      -1.865  11.938  23.252  0.00  0.00    +0.000 HD
ENDBRANCH  16  19
ENDBRANCH  12  13
ENDBRANCH   8  12
ENDBRANCH   5   8
ENDBRANCH   1   4
BRANCH   1  21
ATOM     21  C   UNL     1       3.503   3.654  17.300  0.00  0.00    +0.000 C 
BRANCH  21  24
ATOM     22  C   UNL     1       5.527   4.168  15.916  0.00  0.00    +0.000 C 
ATOM     23  O   UNL     1       5.987   3.028  16.011  0.00  0.00    +0.000 OA
ATOM     24  N   UNL     1       4.341   4.555  16.500  0.00  0.00    +0.000 N 
ATOM     25  H   UNL     1       4.059   5.526  16.448  0.00  0.00    +0.000 HD
BRANCH  22  26
ATOM     26  C   UNL     1       6.286   5.270  15.123  0.00  0.00    +0.000 C 
BRANCH  26  30
ATOM     27  C   UNL     1       7.778   7.675  17.678  0.00  0.00    +0.000 C 
ATOM     28  C   UNL     1       6.686   6.894  16.992  0.00  0.00    +0.000 C 
ATOM     29  O   UNL     1       5.498   7.069  17.239  0.00  0.00    +0.000 OA
ATOM     30  N   UNL     1       7.144   5.987  16.074  0.00  0.00    +0.000 N 
ATOM     31  H   UNL     1       8.141   5.809  15.994  0.00  0.00    +0.000 HD
ENDBRANCH  26  30
BRANCH  26  32
ATOM     32  C   UNL     1       7.039   4.685  13.899  0.00  0.00    +0.000 C 
BRANCH  32  33
ATOM     33  C   UNL     1       6.288   3.826  12.897  0.00  0.00    +0.000 A 
ATOM     34  C   UNL     1       6.871   2.765  12.204  0.00  0.00    +0.000 A 
ATOM     35  C   UNL     1       6.150   2.001  11.282  0.00  0.00    +0.000 A 
ATOM     36  C   UNL     1       4.819   2.279  11.038  0.00  0.00    +0.000 A 
ATOM     37  C   UNL     1       4.219   3.354  11.688  0.00  0.00    +0.000 A 
ATOM     38  C   UNL     1       4.949   4.123  12.606  0.00  0.00    +0.000 A 
ENDBRANCH  32  33
ENDBRANCH  26  32
ENDBRANCH  22  26
ENDBRANCH  21  24
ENDBRANCH   1  21
TORSDOF 12
ENDMDL
MODEL 8
REMARK VINA RESULT:      -7.3      2.714      9.414
REMARK  Name = 
REMARK  15 active torsions:
REMARK  status: ('A' for Active; 'I' for Inactive)
REMARK    1  A    between atoms: C_1  and  C_2
REMARK    2  A    between atoms: N_4  and  C_5
REMARK    3  A    between atoms: C_5  and  C_6
REMARK    4  A    between atoms: C_5  and  C_13
REMARK    5  A    between atoms: C_6  and  C_7
REMARK    6  A    between atoms: N_15  and  C_16
REMARK    7  A    between atoms: C_16  and  C_17
REMARK    8  A    between atoms: C_17  and  C_18
REMARK    9  A    between atoms: C_17  and  C_19
REMARK   10  A    between atoms: C_17  and  N_20
REMARK   11  A    between atoms: C_21  and  C_23
REMARK   12  A    between atoms: C_23  and  N_24
REMARK   13  A    between atoms: C_23  and  C_25
REMARK   14  A    between atoms: C_25  and  C_26
REMARK   15  A    between atoms: C_29  and  O_30
REMARK                            x       y       z     vdW  Elec       q    Type
REMARK                         _______ _______ _______ _____ _____    ______ ____
ROOT
ATOM      1  C   UNL     1       0.637   9.343  21.405  0.00  0.00    +0.000 C 
ATOM      2  C   UNL     1       1.448  10.618  21.102  0.00  0.00    +0.000 C 
ATOM      3  C   UNL     1       0.308   9.368  22.913  0.00  0.00    +0.000 C 
ENDROOT
BRANCH   1   4
ATOM      4  N   UNL     1       1.467   8.160  21.105  0.00  0.00    +0.000 N 
ATOM      5  C   UNL     1       1.920   7.853  19.827  0.00  0.00    +0.000 C 
ATOM      6  O   UNL     1       1.733   8.562  18.845  0.00  0.00    +0.000 OA
ATOM      7  H   UNL     1       1.758   7.564  21.874  0.00  0.00    +0.000 HD
BRANCH   5   8
ATOM      8  C   UNL     1       2.698   6.513  19.749  0.00  0.00    +0.000 C 
BRANCH   8   9
ATOM      9  N   UNL     1       2.223   5.660  20.844  0.00  0.00    +0.000 NA
ATOM     10  H   UNL     1       2.320   4.688  20.529  0.00  0.00    +0.000 HD
ATOM     11  H   UNL     1       1.223   5.793  20.959  0.00  0.00    +0.000 HD
ENDBRANCH   8   9
BRANCH   8  12
ATOM     12  C   UNL     1       2.473   5.777  18.415  0.00  0.00    +0.000 C 
BRANCH  12  13
ATOM     13  C   UNL     1       3.731   5.695  17.570  0.00  0.00    +0.000 A 
ATOM     14  C   UNL     1       4.178   4.461  17.069  0.00  0.00    +0.000 A 
ATOM     15  C   UNL     1       5.380   4.368  16.363  0.00  0.00    +0.000 A 
ATOM     16  C   UNL     1       6.136   5.513  16.150  0.00  0.00    +0.000 A 
ATOM     17  C   UNL     1       5.703   6.748  16.629  0.00  0.00    +0.000 A 
ATOM     18  C   UNL     1       4.508   6.836  17.343  0.00  0.00    +0.000 A 
BRANCH  16  19
ATOM     19  O   UNL     1       7.319   5.474  15.473  0.00  0.00    +0.000 OA
ATOM     20  H   UNL     1       7.477   6.350  15.086  0.00  0.00    +0.000 HD
ENDBRANCH  16  19
ENDBRANCH  12  13
ENDBRANCH   8  12
ENDBRANCH   5   8
ENDBRANCH   1   4
BRANCH   1  21
ATOM     21  C   UNL     1      -0.702   9.356  20.590  0.00  0.00    +0.000 C 
BRANCH  21  24
ATOM     22  C   UNL     1      -1.122  10.563  18.434  0.00  0.00    +0.000 C 
ATOM     23  O   UNL     1      -1.121   9.532  17.758  0.00  0.00    +0.000 OA
ATOM     24  N   UNL     1      -0.932  10.571  19.799  0.00  0.00    +0.000 N 
ATOM     25  H   UNL     1      -0.867  11.458  20.283  0.00  0.00    +0.000 HD
BRANCH  22  26
ATOM     26  C   UNL     1      -1.331  11.953  17.768  0.00  0.00    +0.000 C 
BRANCH  26  30
ATOM     27  C   UNL     1      -5.063  11.586  17.081  0.00  0.00    +0.000 C 
ATOM     28  C   UNL     1      -3.827  11.764  17.925  0.00  0.00    +0.000 C 
ATOM     29  O   UNL     1      -3.855  11.720  19.149  0.00  0.00    +0.000 OA
ATOM     30  N   UNL     1      -2.684  11.972  17.200  0.00  0.00    +0.000 N 
ATOM     31  H   UNL     1      -2.742  12.110  16.194  0.00  0.00    +0.000 HD
ENDBRANCH  26  30
BRANCH  26  32
ATOM     32  C   UNL     1      -1.036  13.114  18.754  0.00  0.00    +0.000 C 
BRANCH  32  33
ATOM     33  C   UNL     1       0.347  13.742  18.780  0.00  0.00    +0.000 A 
ATOM     34  C   UNL     1       0.601  15.024  19.268  0.00  0.00    +0.000 A 
ATOM     35  C   UNL     1       1.886  15.572  19.269  0.00  0.00    +0.000 A 
ATOM     36  C   UNL     1       2.954  14.841  18.784  0.00  0.00    +0.000 A 
ATOM     37  C   UNL     1       2.727  13.573  18.258  0.00  0.00    +0.000 A 
ATOM     38  C   UNL     1       1.434  13.030  18.252  0.00  0.00    +0.000 A 
ENDBRANCH  32  33
ENDBRANCH  26  32
ENDBRANCH  22  26
ENDBRANCH  21  24
ENDBRANCH   1  21
TORSDOF 12
ENDMDL
MODEL 9
REMARK VINA RESULT:      -7.2      2.496      4.801
REMARK  Name = 
REMARK  15 active torsions:
REMARK  status: ('A' for Active; 'I' for Inactive)
REMARK    1  A    between atoms: C_1  and  C_2
REMARK    2  A    between atoms: N_4  and  C_5
REMARK    3  A    between atoms: C_5  and  C_6
REMARK    4  A    between atoms: C_5  and  C_13
REMARK    5  A    between atoms: C_6  and  C_7
REMARK    6  A    between atoms: N_15  and  C_16
REMARK    7  A    between atoms: C_16  and  C_17
REMARK    8  A    between atoms: C_17  and  C_18
REMARK    9  A    between atoms: C_17  and  C_19
REMARK   10  A    between atoms: C_17  and  N_20
REMARK   11  A    between atoms: C_21  and  C_23
REMARK   12  A    between atoms: C_23  and  N_24
REMARK   13  A    between atoms: C_23  and  C_25
REMARK   14  A    between atoms: C_25  and  C_26
REMARK   15  A    between atoms: C_29  and  O_30
REMARK                            x       y       z     vdW  Elec       q    Type
REMARK                         _______ _______ _______ _____ _____    ______ ____
ROOT
ATOM      1  C   UNL     1       0.587   9.227  21.378  0.00  0.00    +0.000 C 
ATOM      2  C   UNL     1      -0.527   8.198  21.655  0.00  0.00    +0.000 C 
ATOM      3  C   UNL     1       1.461   9.296  22.648  0.00  0.00    +0.000 C 
ENDROOT
BRANCH   1   4
ATOM      4  N   UNL     1      -0.025  10.547  21.132  0.00  0.00    +0.000 N 
ATOM      5  C   UNL     1      -0.842  11.191  22.053  0.00  0.00    +0.000 C 
ATOM      6  O   UNL     1      -1.079  10.762  23.176  0.00  0.00    +0.000 OA
ATOM      7  H   UNL     1       0.195  11.028  20.265  0.00  0.00    +0.000 HD
BRANCH   5   8
ATOM      8  C   UNL     1      -1.438  12.524  21.530  0.00  0.00    +0.000 C 
BRANCH   8   9
ATOM      9  N   UNL     1      -0.635  13.618  22.089  0.00  0.00    +0.000 NA
ATOM     10  H   UNL     1      -1.290  14.357  22.368  0.00  0.00    +0.000 HD
ATOM     11  H   UNL     1      -0.081  14.035  21.348  0.00  0.00    +0.000 HD
ENDBRANCH   8   9
BRANCH   8  12
ATOM     12  C   UNL     1      -1.406  12.622  19.994  0.00  0.00    +0.000 C 
BRANCH  12  13
ATOM     13  C   UNL     1      -2.742  12.284  19.357  0.00  0.00    +0.000 A 
ATOM     14  C   UNL     1      -3.946  12.606  20.004  0.00  0.00    +0.000 A 
ATOM     15  C   UNL     1      -5.175  12.222  19.463  0.00  0.00    +0.000 A 
ATOM     16  C   UNL     1      -5.204  11.518  18.266  0.00  0.00    +0.000 A 
ATOM     17  C   UNL     1      -4.020  11.201  17.603  0.00  0.00    +0.000 A 
ATOM     18  C   UNL     1      -2.794  11.576  18.151  0.00  0.00    +0.000 A 
BRANCH  16  19
ATOM     19  O   UNL     1      -6.377  11.115  17.701  0.00  0.00    +0.000 OA
ATOM     20  H   UNL     1      -6.838  10.540  18.333  0.00  0.00    +0.000 HD
ENDBRANCH  16  19
ENDBRANCH  12  13
ENDBRANCH   8  12
ENDBRANCH   5   8
ENDBRANCH   1   4
BRANCH   1  21
ATOM     21  C   UNL     1       1.471   8.744  20.176  0.00  0.00    +0.000 C 
BRANCH  21  24
ATOM     22  C   UNL     1       2.523   6.643  19.305  0.00  0.00    +0.000 C 
ATOM     23  O   UNL     1       2.434   6.986  18.125  0.00  0.00    +0.000 OA
ATOM     24  N   UNL     1       2.089   7.425  20.354  0.00  0.00    +0.000 N 
ATOM     25  H   UNL     1       2.120   7.051  21.294  0.00  0.00    +0.000 HD
BRANCH  22  26
ATOM     26  C   UNL     1       3.132   5.265  19.691  0.00  0.00    +0.000 C 
BRANCH  26  30
ATOM     27  C   UNL     1       0.844   2.360  18.764  0.00  0.00    +0.000 C 
ATOM     28  C   UNL     1       1.319   3.535  19.579  0.00  0.00    +0.000 C 
ATOM     29  O   UNL     1       0.822   3.830  20.660  0.00  0.00    +0.000 OA
ATOM     30  N   UNL     1       2.351   4.228  19.005  0.00  0.00    +0.000 N 
ATOM     31  H   UNL     1       2.646   4.004  18.059  0.00  0.00    +0.000 HD
ENDBRANCH  26  30
BRANCH  26  32
ATOM     32  C   UNL     1       4.657   5.209  19.407  0.00  0.00    +0.000 C 
BRANCH  32  33
ATOM     33  C   UNL     1       5.150   5.183  17.971  0.00  0.00    +0.000 A 
ATOM     34  C   UNL     1       4.766   4.215  17.043  0.00  0.00    +0.000 A 
ATOM     35  C   UNL     1       5.246   4.218  15.731  0.00  0.00    +0.000 A 
ATOM     36  C   UNL     1       6.125   5.201  15.314  0.00  0.00    +0.000 A 
ATOM     37  C   UNL     1       6.555   6.158  16.227  0.00  0.00    +0.000 A 
ATOM     38  C   UNL     1       6.075   6.147  17.545  0.00  0.00    +0.000 A 
ENDBRANCH  32  33
ENDBRANCH  26  32
ENDBRANCH  22  26
ENDBRANCH  21  24
ENDBRANCH   1  21
TORSDOF 12
ENDMDL
