MODEL 1
REMARK VINA RESULT:      -8.2      0.000      0.000
REMARK  Name = 
REMARK  5 active torsions:
REMARK  status: ('A' for Active; 'I' for Inactive)
REMARK    1  A    between atoms: C_1  and  C_2
REMARK    2  A    between atoms: C_6  and  C_8
REMARK    3  A    between atoms: C_8  and  S_9
REMARK    4  A    between atoms: S_9  and  C_10
REMARK    5  A    between atoms: C_12  and  C_13
REMARK                            x       y       z     vdW  Elec       q    Type
REMARK                         _______ _______ _______ _____ _____    ______ ____
ROOT
ATOM      1  S   UNL     1       4.876   3.917  19.164  0.00  0.00    +0.000 S 
ENDROOT
BRANCH   1   2
ATOM      2  C   UNL     1       3.493   4.867  19.662  0.00  0.00    +0.000 A 
ATOM      3  N   UNL     1       3.313   6.076  19.182  0.00  0.00    +0.000 NA
ATOM      4  C   UNL     1       2.227   6.678  19.806  0.00  0.00    +0.000 A 
ATOM      5  C   UNL     1       1.564   5.871  20.712  0.00  0.00    +0.000 A 
ATOM      6  S   UNL     1       2.352   4.355  20.835  0.00  0.00    +0.000 S 
BRANCH   4   7
ATOM      7  C   UNL     1       1.828   8.046  19.492  0.00  0.00    +0.000 A 
ATOM      8  C   UNL     1       2.141   8.591  18.235  0.00  0.00    +0.000 A 
ATOM      9  C   UNL     1       1.752   9.892  17.906  0.00  0.00    +0.000 A 
ATOM     10  C   UNL     1       1.058  10.656  18.836  0.00  0.00    +0.000 A 
ATOM     11  F   UNL     1       0.679  11.899  18.518  0.00  0.00    +0.000 F 
ATOM     12  C   UNL     1       0.755  10.147  20.092  0.00  0.00    +0.000 A 
ATOM     13  C   UNL     1       1.141   8.845  20.422  0.00  0.00    +0.000 A 
ENDBRANCH   4   7
ENDBRANCH   1   2
BRANCH   1  14
ATOM     14  C   UNL     1       6.203   5.150  19.264  0.00  0.00    +0.000 C 
BRANCH  14  20
ATOM     15  C   UNL     1       6.703   3.805  11.988  0.00  0.00    +0.000 C 
ATOM     16  C   UNL     1       6.753   4.217  13.400  0.00  0.00    +0.000 A 
ATOM     17  C   UNL     1       6.162   3.782  14.563  0.00  0.00    +0.000 A 
ATOM     18  C   UNL     1       6.663   4.650  15.568  0.00  0.00    +0.000 A 
ATOM     19  N   UNL     1       6.311   4.570  16.903  0.00  0.00    +0.000 N 
ATOM     20  C   UNL     1       6.766   5.439  17.881  0.00  0.00    +0.000 C 
ATOM     21  O   UNL     1       7.587   6.340  17.734  0.00  0.00    +0.000 OA
ATOM     22  N   UNL     1       7.503   5.540  15.035  0.00  0.00    +0.000 NA
ATOM     23  O   UNL     1       7.555   5.276  13.684  0.00  0.00    +0.000 OA
ATOM     24  H   UNL     1       5.617   3.879  17.150  0.00  0.00    +0.000 HD
ENDBRANCH  14  20
ENDBRANCH   1  14
TORSDOF 4
ENDMDL
MODEL 2
REMARK VINA RESULT:      -8.2      0.126      1.016
REMARK  Name = 
REMARK  5 active torsions:
REMARK  status: ('A' for Active; 'I' for Inactive)
REMARK    1  A    between atoms: C_1  and  C_2
REMARK    2  A    between atoms: C_6  and  C_8
REMARK    3  A    between atoms: C_8  and  S_9
REMARK    4  A    between atoms: S_9  and  C_10
REMARK    5  A    between atoms: C_12  and  C_13
REMARK                            x       y       z     vdW  Elec       q    Type
REMARK                         _______ _______ _______ _____ _____    ______ ____
ROOT
ATOM      1  S   UNL     1       4.793   3.922  19.136  0.00  0.00    +0.000 S 
ENDROOT
BRANCH   1   2
ATOM      2  C   UNL     1       3.446   4.915  19.651  0.00  0.00    +0.000 A 
ATOM      3  N   UNL     1       3.271   6.110  19.138  0.00  0.00    +0.000 NA
ATOM      4  C   UNL     1       2.219   6.752  19.780  0.00  0.00    +0.000 A 
ATOM      5  C   UNL     1       1.574   5.988  20.734  0.00  0.00    +0.000 A 
ATOM      6  S   UNL     1       2.339   4.462  20.879  0.00  0.00    +0.000 S 
BRANCH   4   7
ATOM      7  C   UNL     1       1.834   8.118  19.435  0.00  0.00    +0.000 A 
ATOM      8  C   UNL     1       1.142   8.903  20.371  0.00  0.00    +0.000 A 
ATOM      9  C   UNL     1       0.781  10.219  20.069  0.00  0.00    +0.000 A 
ATOM     10  C   UNL     1       1.103  10.750  18.827  0.00  0.00    +0.000 A 
ATOM     11  F   UNL     1       0.764  12.012  18.540  0.00  0.00    +0.000 F 
ATOM     12  C   UNL     1       1.770   9.986  17.877  0.00  0.00    +0.000 A 
ATOM     13  C   UNL     1       2.133   8.671  18.178  0.00  0.00    +0.000 A 
ENDBRANCH   4   7
ENDBRANCH   1   2
BRANCH   1  14
ATOM     14  C   UNL     1       6.176   5.083  19.325  0.00  0.00    +0.000 C 
BRANCH  14  20
ATOM     15  C   UNL     1       6.876   3.970  12.026  0.00  0.00    +0.000 C 
ATOM     16  C   UNL     1       6.890   4.334  13.453  0.00  0.00    +0.000 A 
ATOM     17  C   UNL     1       6.254   3.873  14.581  0.00  0.00    +0.000 A 
ATOM     18  C   UNL     1       6.741   4.696  15.630  0.00  0.00    +0.000 A 
ATOM     19  N   UNL     1       6.346   4.580  16.950  0.00  0.00    +0.000 N 
ATOM     20  C   UNL     1       6.788   5.405  17.970  0.00  0.00    +0.000 C 
ATOM     21  O   UNL     1       7.632   6.292  17.879  0.00  0.00    +0.000 OA
ATOM     22  N   UNL     1       7.616   5.585  15.154  0.00  0.00    +0.000 NA
ATOM     23  O   UNL     1       7.705   5.364  13.797  0.00  0.00    +0.000 OA
ATOM     24  H   UNL     1       5.630   3.896  17.152  0.00  0.00    +0.000 HD
ENDBRANCH  14  20
ENDBRANCH   1  14
TORSDOF 4
ENDMDL
MODEL 3
REMARK VINA RESULT:      -7.8      1.899      2.559
REMARK  Name = 
REMARK  5 active torsions:
REMARK  status: ('A' for Active; 'I' for Inactive)
REMARK    1  A    between atoms: C_1  and  C_2
REMARK    2  A    between atoms: C_6  and  C_8
REMARK    3  A    between atoms: C_8  and  S_9
REMARK    4  A    between atoms: S_9  and  C_10
REMARK    5  A    between atoms: C_12  and  C_13
REMARK                            x       y       z     vdW  Elec       q    Type
REMARK                         _______ _______ _______ _____ _____    ______ ____
ROOT
ATOM      1  S   UNL     1       3.224   4.780  18.984  0.00  0.00    +0.000 S 
ENDROOT
BRANCH   1   2
ATOM      2  C   UNL     1       2.759   6.468  18.985  0.00  0.00    +0.000 A 
ATOM      3  N   UNL     1       2.072   6.964  19.988  0.00  0.00    +0.000 NA
ATOM      4  C   UNL     1       1.718   8.279  19.716  0.00  0.00    +0.000 A 
ATOM      5  C   UNL     1       2.209   8.772  18.522  0.00  0.00    +0.000 A 
ATOM      6  S   UNL     1       3.074   7.548  17.692  0.00  0.00    +0.000 S 
BRANCH   4   7
ATOM      7  C   UNL     1       0.909   9.061  20.647  0.00  0.00    +0.000 A 
ATOM      8  C   UNL     1       0.976   8.788  22.023  0.00  0.00    +0.000 A 
ATOM      9  C   UNL     1       0.226   9.537  22.935  0.00  0.00    +0.000 A 
ATOM     10  C   UNL     1      -0.600  10.553  22.472  0.00  0.00    +0.000 A 
ATOM     11  F   UNL     1      -1.312  11.275  23.345  0.00  0.00    +0.000 F 
ATOM     12  C   UNL     1      -0.698  10.828  21.114  0.00  0.00    +0.000 A 
ATOM     13  C   UNL     1       0.054  10.082  20.201  0.00  0.00    +0.000 A 
ENDBRANCH   4   7
ENDBRANCH   1   2
BRANCH   1  14
ATOM     14  C   UNL     1       4.961   4.895  19.495  0.00  0.00    +0.000 C 
BRANCH  14  20
ATOM     15  C   UNL     1       7.009   4.148  12.406  0.00  0.00    +0.000 C 
ATOM     16  C   UNL     1       6.764   4.430  13.830  0.00  0.00    +0.000 A 
ATOM     17  C   UNL     1       5.897   3.950  14.782  0.00  0.00    +0.000 A 
ATOM     18  C   UNL     1       6.213   4.679  15.958  0.00  0.00    +0.000 A 
ATOM     19  N   UNL     1       5.563   4.515  17.167  0.00  0.00    +0.000 N 
ATOM     20  C   UNL     1       5.842   5.251  18.307  0.00  0.00    +0.000 C 
ATOM     21  O   UNL     1       6.734   6.085  18.439  0.00  0.00    +0.000 OA
ATOM     22  N   UNL     1       7.211   5.533  15.719  0.00  0.00    +0.000 NA
ATOM     23  O   UNL     1       7.551   5.384  14.392  0.00  0.00    +0.000 OA
ATOM     24  H   UNL     1       4.786   3.869  17.182  0.00  0.00    +0.000 HD
ENDBRANCH  14  20
ENDBRANCH   1  14
TORSDOF 4
ENDMDL
MODEL 4
REMARK VINA RESULT:      -7.8      4.490      6.515
REMARK  Name = 
REMARK  5 active torsions:
REMARK  status: ('A' for Active; 'I' for Inactive)
REMARK    1  A    between atoms: C_1  and  C_2
REMARK    2  A    between atoms: C_6  and  C_8
REMARK    3  A    between atoms: C_8  and  S_9
REMARK    4  A    between atoms: S_9  and  C_10
REMARK    5  A    between atoms: C_12  and  C_13
REMARK                            x       y       z     vdW  Elec       q    Type
REMARK                         _______ _______ _______ _____ _____    ______ ____
ROOT
ATOM      1  S   UNL     1       7.608   4.980  17.271  0.00  0.00    +0.000 S 
ENDROOT
BRANCH   1   2
ATOM      2  C   UNL     1       5.912   4.550  17.310  0.00  0.00    +0.000 A 
ATOM      3  N   UNL     1       5.313   4.324  18.456  0.00  0.00    +0.000 NA
ATOM      4  C   UNL     1       4.013   3.886  18.233  0.00  0.00    +0.000 A 
ATOM      5  C   UNL     1       3.636   3.853  16.904  0.00  0.00    +0.000 A 
ATOM      6  S   UNL     1       4.953   4.315  15.909  0.00  0.00    +0.000 S 
BRANCH   4   7
ATOM      7  C   UNL     1       3.132   3.519  19.338  0.00  0.00    +0.000 A 
ATOM      8  C   UNL     1       3.619   2.710  20.377  0.00  0.00    +0.000 A 
ATOM      9  C   UNL     1       2.799   2.364  21.454  0.00  0.00    +0.000 A 
ATOM     10  C   UNL     1       1.486   2.816  21.489  0.00  0.00    +0.000 A 
ATOM     11  F   UNL     1       0.702   2.491  22.524  0.00  0.00    +0.000 F 
ATOM     12  C   UNL     1       0.975   3.601  20.463  0.00  0.00    +0.000 A 
ATOM     13  C   UNL     1       1.795   3.951  19.387  0.00  0.00    +0.000 A 
ENDBRANCH   4   7
ENDBRANCH   1   2
BRANCH   1  14
ATOM     14  C   UNL     1       7.709   6.135  18.667  0.00  0.00    +0.000 C 
BRANCH  14  20
ATOM     15  C   UNL     1      10.424  13.006  19.313  0.00  0.00    +0.000 C 
ATOM     16  C   UNL     1       9.790  11.713  19.010  0.00  0.00    +0.000 A 
ATOM     17  C   UNL     1       9.713  10.495  19.643  0.00  0.00    +0.000 A 
ATOM     18  C   UNL     1       8.934   9.687  18.775  0.00  0.00    +0.000 A 
ATOM     19  N   UNL     1       8.618   8.364  19.027  0.00  0.00    +0.000 N 
ATOM     20  C   UNL     1       7.891   7.560  18.165  0.00  0.00    +0.000 C 
ATOM     21  O   UNL     1       7.365   7.906  17.111  0.00  0.00    +0.000 OA
ATOM     22  N   UNL     1       8.566  10.384  17.697  0.00  0.00    +0.000 NA
ATOM     23  O   UNL     1       9.104  11.644  17.840  0.00  0.00    +0.000 OA
ATOM     24  H   UNL     1       9.016   7.952  19.859  0.00  0.00    +0.000 HD
ENDBRANCH  14  20
ENDBRANCH   1  14
TORSDOF 4
ENDMDL
MODEL 5
REMARK VINA RESULT:      -7.6      3.833      5.130
REMARK  Name = 
REMARK  5 active torsions:
REMARK  status: ('A' for Active; 'I' for Inactive)
REMARK    1  A    between atoms: C_1  and  C_2
REMARK    2  A    between atoms: C_6  and  C_8
REMARK    3  A    between atoms: C_8  and  S_9
REMARK    4  A    between atoms: S_9  and  C_10
REMARK    5  A    between atoms: C_12  and  C_13
REMARK                            x       y       z     vdW  Elec       q    Type
REMARK                         _______ _______ _______ _____ _____    ______ ____
ROOT
ATOM      1  S   UNL     1       7.117   5.347  17.135  0.00  0.00    +0.000 S 
ENDROOT
BRANCH   1   2
ATOM      2  C   UNL     1       5.392   5.409  17.430  0.00  0.00    +0.000 A 
ATOM      3  N   UNL     1       4.827   6.529  17.815  0.00  0.00    +0.000 NA
ATOM      4  C   UNL     1       3.485   6.309  18.101  0.00  0.00    +0.000 A 
ATOM      5  C   UNL     1       3.049   5.020  17.859  0.00  0.00    +0.000 A 
ATOM      6  S   UNL     1       4.356   4.048  17.328  0.00  0.00    +0.000 S 
BRANCH   4   7
ATOM      7  C   UNL     1       2.624   7.381  18.593  0.00  0.00    +0.000 A 
ATOM      8  C   UNL     1       2.275   8.440  17.740  0.00  0.00    +0.000 A 
ATOM      9  C   UNL     1       1.436   9.466  18.184  0.00  0.00    +0.000 A 
ATOM     10  C   UNL     1       0.953   9.441  19.487  0.00  0.00    +0.000 A 
ATOM     11  F   UNL     1       0.144  10.418  19.910  0.00  0.00    +0.000 F 
ATOM     12  C   UNL     1       1.301   8.414  20.355  0.00  0.00    +0.000 A 
ATOM     13  C   UNL     1       2.137   7.386  19.911  0.00  0.00    +0.000 A 
ENDBRANCH   4   7
ENDBRANCH   1   2
BRANCH   1  14
ATOM     14  C   UNL     1       7.746   6.323  18.529  0.00  0.00    +0.000 C 
BRANCH  14  20
ATOM     15  C   UNL     1      10.556  13.093  19.657  0.00  0.00    +0.000 C 
ATOM     16  C   UNL     1       9.919  11.829  19.255  0.00  0.00    +0.000 A 
ATOM     17  C   UNL     1       9.763  10.591  19.832  0.00  0.00    +0.000 A 
ATOM     18  C   UNL     1       9.039   9.835  18.873  0.00  0.00    +0.000 A 
ATOM     19  N   UNL     1       8.673   8.513  19.047  0.00  0.00    +0.000 N 
ATOM     20  C   UNL     1       8.001   7.760  18.099  0.00  0.00    +0.000 C 
ATOM     21  O   UNL     1       7.570   8.158  17.021  0.00  0.00    +0.000 OA
ATOM     22  N   UNL     1       8.776  10.582  17.798  0.00  0.00    +0.000 NA
ATOM     23  O   UNL     1       9.329  11.821  18.032  0.00  0.00    +0.000 OA
ATOM     24  H   UNL     1       8.993   8.060  19.892  0.00  0.00    +0.000 HD
ENDBRANCH  14  20
ENDBRANCH   1  14
TORSDOF 4
ENDMDL
MODEL 6
REMARK VINA RESULT:      -7.5      1.049      1.447
REMARK  Name = 
REMARK  5 active torsions:
REMARK  status: ('A' for Active; 'I' for Inactive)
REMARK    1  A    between atoms: C_1  and  C_2
REMARK    2  A    between atoms: C_6  and  C_8
REMARK    3  A    between atoms: C_8  and  S_9
REMARK    4  A    between atoms: S_9  and  C_10
REMARK    5  A    between atoms: C_12  and  C_13
REMARK                            x       y       z     vdW  Elec       q    Type
REMARK                         _______ _______ _______ _____ _____    ______ ____
ROOT
ATOM      1  S   UNL     1       5.739   4.349  19.163  0.00  0.00    +0.000 S 
ENDROOT
BRANCH   1   2
ATOM      2  C   UNL     1       4.168   5.007  18.757  0.00  0.00    +0.000 A 
ATOM      3  N   UNL     1       3.887   6.261  19.024  0.00  0.00    +0.000 NA
ATOM      4  C   UNL     1       2.555   6.522  18.726  0.00  0.00    +0.000 A 
ATOM      5  C   UNL     1       1.870   5.458  18.171  0.00  0.00    +0.000 A 
ATOM      6  S   UNL     1       2.891   4.084  18.082  0.00  0.00    +0.000 S 
BRANCH   4   7
ATOM      7  C   UNL     1       1.963   7.834  18.968  0.00  0.00    +0.000 A 
ATOM      8  C   UNL     1       1.500   8.161  20.253  0.00  0.00    +0.000 A 
ATOM      9  C   UNL     1       0.948   9.419  20.513  0.00  0.00    +0.000 A 
ATOM     10  C   UNL     1       0.846  10.348  19.485  0.00  0.00    +0.000 A 
ATOM     11  F   UNL     1       0.324  11.554  19.734  0.00  0.00    +0.000 F 
ATOM     12  C   UNL     1       1.278  10.040  18.201  0.00  0.00    +0.000 A 
ATOM     13  C   UNL     1       1.834   8.784  17.941  0.00  0.00    +0.000 A 
ENDBRANCH   4   7
ENDBRANCH   1   2
BRANCH   1  14
ATOM     14  C   UNL     1       6.812   5.774  18.832  0.00  0.00    +0.000 C 
BRANCH  14  20
ATOM     15  C   UNL     1       6.368   3.249  11.873  0.00  0.00    +0.000 C 
ATOM     16  C   UNL     1       6.591   3.893  13.178  0.00  0.00    +0.000 A 
ATOM     17  C   UNL     1       6.194   3.639  14.469  0.00  0.00    +0.000 A 
ATOM     18  C   UNL     1       6.779   4.678  15.237  0.00  0.00    +0.000 A 
ATOM     19  N   UNL     1       6.623   4.812  16.605  0.00  0.00    +0.000 N 
ATOM     20  C   UNL     1       7.159   5.846  17.353  0.00  0.00    +0.000 C 
ATOM     21  O   UNL     1       7.899   6.737  16.944  0.00  0.00    +0.000 OA
ATOM     22  N   UNL     1       7.485   5.495  14.451  0.00  0.00    +0.000 NA
ATOM     23  O   UNL     1       7.363   5.010  13.167  0.00  0.00    +0.000 OA
ATOM     24  H   UNL     1       6.010   4.148  17.059  0.00  0.00    +0.000 HD
ENDBRANCH  14  20
ENDBRANCH   1  14
TORSDOF 4
ENDMDL
MODEL 7
REMARK VINA RESULT:      -7.4      3.559      4.847
REMARK  Name = 
REMARK  5 active torsions:
REMARK  status: ('A' for Active; 'I' for Inactive)
REMARK    1  A    between atoms: C_1  and  C_2
REMARK    2  A    between atoms: C_6  and  C_8
REMARK    3  A    between atoms: C_8  and  S_9
REMARK    4  A    between atoms: S_9  and  C_10
REMARK    5  A    between atoms: C_12  and  C_13
REMARK                            x       y       z     vdW  Elec       q    Type
REMARK                         _______ _______ _______ _____ _____    ______ ____
ROOT
ATOM      1  S   UNL     1       6.703   4.949  17.488  0.00  0.00    +0.000 S 
ENDROOT
BRANCH   1   2
ATOM      2  C   UNL     1       5.000   5.149  17.841  0.00  0.00    +0.000 A 
ATOM      3  N   UNL     1       4.506   6.345  18.063  0.00  0.00    +0.000 NA
ATOM      4  C   UNL     1       3.172   6.246  18.437  0.00  0.00    +0.000 A 
ATOM      5  C   UNL     1       2.665   4.960  18.426  0.00  0.00    +0.000 A 
ATOM      6  S   UNL     1       3.898   3.847  18.005  0.00  0.00    +0.000 S 
BRANCH   4   7
ATOM      7  C   UNL     1       2.387   7.427  18.785  0.00  0.00    +0.000 A 
ATOM      8  C   UNL     1       2.105   8.389  17.802  0.00  0.00    +0.000 A 
ATOM      9  C   UNL     1       1.339   9.517  18.108  0.00  0.00    +0.000 A 
ATOM     10  C   UNL     1       0.862   9.691  19.401  0.00  0.00    +0.000 A 
ATOM     11  F   UNL     1       0.122  10.767  19.693  0.00  0.00    +0.000 F 
ATOM     12  C   UNL     1       1.144   8.763  20.395  0.00  0.00    +0.000 A 
ATOM     13  C   UNL     1       1.908   7.633  20.089  0.00  0.00    +0.000 A 
ENDBRANCH   4   7
ENDBRANCH   1   2
BRANCH   1  14
ATOM     14  C   UNL     1       7.109   6.573  16.789  0.00  0.00    +0.000 C 
BRANCH  14  20
ATOM     15  C   UNL     1       9.757  13.067  19.202  0.00  0.00    +0.000 C 
ATOM     16  C   UNL     1       9.318  11.696  18.897  0.00  0.00    +0.000 A 
ATOM     17  C   UNL     1       8.681  11.090  17.839  0.00  0.00    +0.000 A 
ATOM     18  C   UNL     1       8.570   9.728  18.218  0.00  0.00    +0.000 A 
ATOM     19  N   UNL     1       7.974   8.754  17.438  0.00  0.00    +0.000 N 
ATOM     20  C   UNL     1       7.828   7.431  17.819  0.00  0.00    +0.000 C 
ATOM     21  O   UNL     1       8.261   6.914  18.846  0.00  0.00    +0.000 OA
ATOM     22  N   UNL     1       9.114   9.535  19.422  0.00  0.00    +0.000 NA
ATOM     23  O   UNL     1       9.575  10.762  19.848  0.00  0.00    +0.000 OA
ATOM     24  H   UNL     1       7.552   9.061  16.571  0.00  0.00    +0.000 HD
ENDBRANCH  14  20
ENDBRANCH   1  14
TORSDOF 4
ENDMDL
MODEL 8
REMARK VINA RESULT:      -7.3      2.217      2.897
REMARK  Name = 
REMARK  5 active torsions:
REMARK  status: ('A' for Active; 'I' for Inactive)
REMARK    1  A    between atoms: C_1  and  C_2
REMARK    2  A    between atoms: C_6  and  C_8
REMARK    3  A    between atoms: C_8  and  S_9
REMARK    4  A    between atoms: S_9  and  C_10
REMARK    5  A    between atoms: C_12  and  C_13
REMARK                            x       y       z     vdW  Elec       q    Type
REMARK                         _______ _______ _______ _____ _____    ______ ____
ROOT
ATOM      1  S   UNL     1       2.827   4.704  20.254  0.00  0.00    +0.000 S 
ENDROOT
BRANCH   1   2
ATOM      2  C   UNL     1       2.369   6.361  19.921  0.00  0.00    +0.000 A 
ATOM      3  N   UNL     1       1.775   7.081  20.844  0.00  0.00    +0.000 NA
ATOM      4  C   UNL     1       1.402   8.312  20.318  0.00  0.00    +0.000 A 
ATOM      5  C   UNL     1       1.787   8.518  19.007  0.00  0.00    +0.000 A 
ATOM      6  S   UNL     1       2.573   7.122  18.399  0.00  0.00    +0.000 S 
BRANCH   4   7
ATOM      7  C   UNL     1       0.682   9.297  21.119  0.00  0.00    +0.000 A 
ATOM      8  C   UNL     1       0.599  10.627  20.676  0.00  0.00    +0.000 A 
ATOM      9  C   UNL     1      -0.102  11.582  21.417  0.00  0.00    +0.000 A 
ATOM     10  C   UNL     1      -0.714  11.212  22.608  0.00  0.00    +0.000 A 
ATOM     11  F   UNL     1      -1.392  12.125  23.314  0.00  0.00    +0.000 F 
ATOM     12  C   UNL     1      -0.630   9.907  23.077  0.00  0.00    +0.000 A 
ATOM     13  C   UNL     1       0.069   8.950  22.335  0.00  0.00    +0.000 A 
ENDBRANCH   4   7
ENDBRANCH   1   2
BRANCH   1  14
ATOM     14  C   UNL     1       2.935   4.026  18.575  0.00  0.00    +0.000 C 
BRANCH  14  20
ATOM     15  C   UNL     1       7.900   5.193  13.190  0.00  0.00    +0.000 C 
ATOM     16  C   UNL     1       7.080   4.913  14.380  0.00  0.00    +0.000 A 
ATOM     17  C   UNL     1       5.732   4.857  14.642  0.00  0.00    +0.000 A 
ATOM     18  C   UNL     1       5.645   4.531  16.020  0.00  0.00    +0.000 A 
ATOM     19  N   UNL     1       4.454   4.385  16.707  0.00  0.00    +0.000 N 
ATOM     20  C   UNL     1       4.365   4.105  18.060  0.00  0.00    +0.000 C 
ATOM     21  O   UNL     1       5.299   3.875  18.822  0.00  0.00    +0.000 OA
ATOM     22  N   UNL     1       6.867   4.396  16.542  0.00  0.00    +0.000 NA
ATOM     23  O   UNL     1       7.761   4.640  15.523  0.00  0.00    +0.000 OA
ATOM     24  H   UNL     1       3.606   4.575  16.192  0.00  0.00    +0.000 HD
ENDBRANCH  14  20
ENDBRANCH   1  14
TORSDOF 4
ENDMDL
MODEL 9
REMARK VINA RESULT:      -7.3      0.922      1.015
REMARK  Name = 
REMARK  5 active torsions:
REMARK  status: ('A' for Active; 'I' for Inactive)
REMARK    1  A    between atoms: C_1  and  C_2
REMARK    2  A    between atoms: C_6  and  C_8
REMARK    3  A    between atoms: C_8  and  S_9
REMARK    4  A    between atoms: S_9  and  C_10
REMARK    5  A    between atoms: C_12  and  C_13
REMARK                            x       y       z     vdW  Elec       q    Type
REMARK                         _______ _______ _______ _____ _____    ______ ____
ROOT
ATOM      1  S   UNL     1       4.886   4.459  18.310  0.00  0.00    +0.000 S 
ENDROOT
BRANCH   1   2
ATOM      2  C   UNL     1       3.550   5.100  19.242  0.00  0.00    +0.000 A 
ATOM      3  N   UNL     1       3.175   6.348  19.090  0.00  0.00    +0.000 NA
ATOM      4  C   UNL     1       2.185   6.662  20.012  0.00  0.00    +0.000 A 
ATOM      5  C   UNL     1       1.785   5.607  20.810  0.00  0.00    +0.000 A 
ATOM      6  S   UNL     1       2.711   4.212  20.445  0.00  0.00    +0.000 S 
BRANCH   4   7
ATOM      7  C   UNL     1       1.614   8.004  20.092  0.00  0.00    +0.000 A 
ATOM      8  C   UNL     1       1.628   8.834  18.960  0.00  0.00    +0.000 A 
ATOM      9  C   UNL     1       1.070  10.115  19.009  0.00  0.00    +0.000 A 
ATOM     10  C   UNL     1       0.506  10.572  20.193  0.00  0.00    +0.000 A 
ATOM     11  F   UNL     1      -0.035  11.795  20.238  0.00  0.00    +0.000 F 
ATOM     12  C   UNL     1       0.498   9.776  21.331  0.00  0.00    +0.000 A 
ATOM     13  C   UNL     1       1.053   8.495  21.283  0.00  0.00    +0.000 A 
ENDBRANCH   4   7
ENDBRANCH   1   2
BRANCH   1  14
ATOM     14  C   UNL     1       5.940   5.928  18.153  0.00  0.00    +0.000 C 
BRANCH  14  20
ATOM     15  C   UNL     1       6.967   3.338  11.280  0.00  0.00    +0.000 C 
ATOM     16  C   UNL     1       6.930   3.976  12.606  0.00  0.00    +0.000 A 
ATOM     17  C   UNL     1       6.188   3.799  13.750  0.00  0.00    +0.000 A 
ATOM     18  C   UNL     1       6.686   4.773  14.655  0.00  0.00    +0.000 A 
ATOM     19  N   UNL     1       6.204   4.952  15.939  0.00  0.00    +0.000 N 
ATOM     20  C   UNL     1       6.659   5.926  16.812  0.00  0.00    +0.000 C 
ATOM     21  O   UNL     1       7.585   6.708  16.617  0.00  0.00    +0.000 OA
ATOM     22  N   UNL     1       7.666   5.478  14.085  0.00  0.00    +0.000 NA
ATOM     23  O   UNL     1       7.814   4.987  12.807  0.00  0.00    +0.000 OA
ATOM     24  H   UNL     1       5.417   4.380  16.214  0.00  0.00    +0.000 HD
ENDBRANCH  14  20
ENDBRANCH   1  14
TORSDOF 4
ENDMDL
