MODEL 1
REMARK VINA RESULT:      -8.9      0.000      0.000
REMARK  Name = 
REMARK  7 active torsions:
REMARK  status: ('A' for Active; 'I' for Inactive)
REMARK    1  A    between atoms: C_1  and  C_2
REMARK    2  A    between atoms: N_5  and  C_6
REMARK    3  A    between atoms: C_6  and  C_7
REMARK    4  A    between atoms: C_6  and  C_8
REMARK    5  A    between atoms: C_12  and  S_13
REMARK    6  A    between atoms: S_13  and  N_14
REMARK    7  A    between atoms: C_19  and  C_20
REMARK                            x       y       z     vdW  Elec       q    Type
REMARK                         _______ _______ _______ _____ _____    ______ ____
ROOT
ATOM      1  C   UNL     1       0.343   9.360  23.001  0.00  0.00    +0.000 C 
ATOM      2  C   UNL     1       0.675   9.216  21.549  0.00  0.00    +0.000 A 
ATOM      3  N   UNL     1       0.363  10.233  20.728  0.00  0.00    +0.000 NA
ATOM      4  C   UNL     1       0.776  10.141  19.460  0.00  0.00    +0.000 A 
ATOM      5  N   UNL     1       0.488  11.149  18.543  0.00  0.00    +0.000 N 
ATOM      6  C   UNL     1       1.487   9.048  19.005  0.00  0.00    +0.000 A 
ATOM      7  C   UNL     1       1.698   8.006  19.886  0.00  0.00    +0.000 A 
ATOM      8  N   UNL     1       1.302   8.087  21.173  0.00  0.00    +0.000 NA
ATOM      9  H   UNL     1       1.330  11.615  18.225  0.00  0.00    +0.000 HD
ENDROOT
BRANCH   7  10
ATOM     10  C   UNL     1       2.342   6.736  19.486  0.00  0.00    +0.000 A 
ATOM     11  C   UNL     1       3.086   6.656  18.297  0.00  0.00    +0.000 A 
ATOM     12  C   UNL     1       3.705   5.466  17.885  0.00  0.00    +0.000 A 
ATOM     13  C   UNL     1       3.583   4.307  18.672  0.00  0.00    +0.000 A 
ATOM     14  N   UNL     1       4.125   3.065  18.386  0.00  0.00    +0.000 NA
ATOM     15  C   UNL     1       3.804   2.218  19.337  0.00  0.00    +0.000 A 
ATOM     16  S   UNL     1       2.861   2.839  20.624  0.00  0.00    +0.000 S 
ATOM     17  C   UNL     1       2.851   4.383  19.857  0.00  0.00    +0.000 A 
ATOM     18  C   UNL     1       2.232   5.575  20.279  0.00  0.00    +0.000 A 
ENDBRANCH   7  10
BRANCH   5  19
ATOM     19  C   UNL     1      -0.651  12.026  18.788  0.00  0.00    +0.000 C 
ATOM     20  C   UNL     1      -0.437  13.441  18.249  0.00  0.00    +0.000 C 
BRANCH  19  21
ATOM     21  C   UNL     1      -1.860  11.368  18.128  0.00  0.00    +0.000 A 
ATOM     22  C   UNL     1      -1.694  10.463  17.066  0.00  0.00    +0.000 A 
ATOM     23  C   UNL     1      -2.802   9.912  16.413  0.00  0.00    +0.000 A 
ATOM     24  C   UNL     1      -4.094  10.258  16.807  0.00  0.00    +0.000 A 
ATOM     25  C   UNL     1      -4.266  11.138  17.874  0.00  0.00    +0.000 A 
ATOM     26  C   UNL     1      -3.165  11.694  18.529  0.00  0.00    +0.000 A 
BRANCH  25  27
ATOM     27  S   UNL     1      -5.892  11.588  18.394  0.00  0.00    +0.000 S 
ATOM     28  O   UNL     1      -6.650  10.397  18.687  0.00  0.00    +0.000 OA
ATOM     29  O   UNL     1      -5.811  12.701  19.311  0.00  0.00    +0.000 OA
BRANCH  27  30
ATOM     30  N   UNL     1      -6.526  12.204  16.969  0.00  0.00    +0.000 NA
ATOM     31  H   UNL     1      -5.919  11.972  16.184  0.00  0.00    +0.000 HD
ATOM     32  H   UNL     1      -7.495  11.903  16.859  0.00  0.00    +0.000 HD
ENDBRANCH  27  30
ENDBRANCH  25  27
ENDBRANCH  19  21
ENDBRANCH   5  19
TORSDOF 5
ENDMDL
MODEL 2
REMARK VINA RESULT:      -8.7      1.553      1.864
REMARK  Name = 
REMARK  7 active torsions:
REMARK  status: ('A' for Active; 'I' for Inactive)
REMARK    1  A    between atoms: C_1  and  C_2
REMARK    2  A    between atoms: N_5  and  C_6
REMARK    3  A    between atoms: C_6  and  C_7
REMARK    4  A    between atoms: C_6  and  C_8
REMARK    5  A    between atoms: C_12  and  S_13
REMARK    6  A    between atoms: S_13  and  N_14
REMARK    7  A    between atoms: C_19  and  C_20
REMARK                            x       y       z     vdW  Elec       q    Type
REMARK                         _______ _______ _______ _____ _____    ______ ____
ROOT
ATOM      1  C   UNL     1       1.061   8.906  22.396  0.00  0.00    +0.000 C 
ATOM      2  C   UNL     1       1.222   8.960  20.909  0.00  0.00    +0.000 A 
ATOM      3  N   UNL     1       0.785  10.058  20.269  0.00  0.00    +0.000 NA
ATOM      4  C   UNL     1       1.047  10.146  18.961  0.00  0.00    +0.000 A 
ATOM      5  N   UNL     1       0.622  11.247  18.222  0.00  0.00    +0.000 N 
ATOM      6  C   UNL     1       1.730   9.152  18.289  0.00  0.00    +0.000 A 
ATOM      7  C   UNL     1       2.075   8.017  18.997  0.00  0.00    +0.000 A 
ATOM      8  N   UNL     1       1.833   7.917  20.319  0.00  0.00    +0.000 NA
ATOM      9  H   UNL     1       1.405  11.787  17.874  0.00  0.00    +0.000 HD
ENDROOT
BRANCH   7  10
ATOM     10  C   UNL     1       2.704   6.838  18.363  0.00  0.00    +0.000 A 
ATOM     11  C   UNL     1       2.125   5.564  18.493  0.00  0.00    +0.000 A 
ATOM     12  C   UNL     1       2.698   4.423  17.910  0.00  0.00    +0.000 A 
ATOM     13  C   UNL     1       3.890   4.540  17.172  0.00  0.00    +0.000 A 
ATOM     14  N   UNL     1       4.572   3.505  16.555  0.00  0.00    +0.000 NA
ATOM     15  C   UNL     1       5.645   3.980  15.965  0.00  0.00    +0.000 A 
ATOM     16  S   UNL     1       5.901   5.667  16.092  0.00  0.00    +0.000 S 
ATOM     17  C   UNL     1       4.464   5.804  17.034  0.00  0.00    +0.000 A 
ATOM     18  C   UNL     1       3.892   6.953  17.613  0.00  0.00    +0.000 A 
ENDBRANCH   7  10
BRANCH   5  19
ATOM     19  C   UNL     1      -0.506  12.034  18.709  0.00  0.00    +0.000 C 
ATOM     20  C   UNL     1      -0.420  13.507  18.304  0.00  0.00    +0.000 C 
BRANCH  19  21
ATOM     21  C   UNL     1      -1.768  11.387  18.144  0.00  0.00    +0.000 A 
ATOM     22  C   UNL     1      -1.686  10.429  17.119  0.00  0.00    +0.000 A 
ATOM     23  C   UNL     1      -2.845   9.885  16.552  0.00  0.00    +0.000 A 
ATOM     24  C   UNL     1      -4.102  10.291  16.996  0.00  0.00    +0.000 A 
ATOM     25  C   UNL     1      -4.190  11.224  18.028  0.00  0.00    +0.000 A 
ATOM     26  C   UNL     1      -3.039  11.774  18.597  0.00  0.00    +0.000 A 
BRANCH  25  27
ATOM     27  S   UNL     1      -5.771  11.751  18.610  0.00  0.00    +0.000 S 
ATOM     28  O   UNL     1      -6.789  10.864  18.104  0.00  0.00    +0.000 OA
ATOM     29  O   UNL     1      -5.675  12.105  20.006  0.00  0.00    +0.000 OA
BRANCH  27  30
ATOM     30  N   UNL     1      -5.956  13.195  17.775  0.00  0.00    +0.000 NA
ATOM     31  H   UNL     1      -5.104  13.749  17.838  0.00  0.00    +0.000 HD
ATOM     32  H   UNL     1      -6.273  13.010  16.824  0.00  0.00    +0.000 HD
ENDBRANCH  27  30
ENDBRANCH  25  27
ENDBRANCH  19  21
ENDBRANCH   5  19
TORSDOF 5
ENDMDL
MODEL 3
REMARK VINA RESULT:      -8.5      1.063      1.395
REMARK  Name = 
REMARK  7 active torsions:
REMARK  status: ('A' for Active; 'I' for Inactive)
REMARK    1  A    between atoms: C_1  and  C_2
REMARK    2  A    between atoms: N_5  and  C_6
REMARK    3  A    between atoms: C_6  and  C_7
REMARK    4  A    between atoms: C_6  and  C_8
REMARK    5  A    between atoms: C_12  and  S_13
REMARK    6  A    between atoms: S_13  and  N_14
REMARK    7  A    between atoms: C_19  and  C_20
REMARK                            x       y       z     vdW  Elec       q    Type
REMARK                         _______ _______ _______ _____ _____    ______ ____
ROOT
ATOM      1  C   UNL     1       0.014   9.444  23.260  0.00  0.00    +0.000 C 
ATOM      2  C   UNL     1       0.441   9.311  21.831  0.00  0.00    +0.000 A 
ATOM      3  N   UNL     1       0.233  10.358  21.014  0.00  0.00    +0.000 NA
ATOM      4  C   UNL     1       0.730  10.270  19.775  0.00  0.00    +0.000 A 
ATOM      5  N   UNL     1       0.553  11.307  18.863  0.00  0.00    +0.000 N 
ATOM      6  C   UNL     1       1.421   9.154  19.347  0.00  0.00    +0.000 A 
ATOM      7  C   UNL     1       1.522   8.087  20.218  0.00  0.00    +0.000 A 
ATOM      8  N   UNL     1       1.041   8.162  21.475  0.00  0.00    +0.000 NA
ATOM      9  H   UNL     1       1.435  11.740  18.614  0.00  0.00    +0.000 HD
ENDROOT
BRANCH   7  10
ATOM     10  C   UNL     1       2.135   6.796  19.836  0.00  0.00    +0.000 A 
ATOM     11  C   UNL     1       1.954   5.655  20.635  0.00  0.00    +0.000 A 
ATOM     12  C   UNL     1       2.525   4.416  20.305  0.00  0.00    +0.000 A 
ATOM     13  C   UNL     1       3.308   4.297  19.143  0.00  0.00    +0.000 A 
ATOM     14  N   UNL     1       3.943   3.147  18.702  0.00  0.00    +0.000 NA
ATOM     15  C   UNL     1       4.589   3.406  17.588  0.00  0.00    +0.000 A 
ATOM     16  S   UNL     1       4.476   5.007  16.995  0.00  0.00    +0.000 S 
ATOM     17  C   UNL     1       3.485   5.425  18.343  0.00  0.00    +0.000 A 
ATOM     18  C   UNL     1       2.911   6.669  18.666  0.00  0.00    +0.000 A 
ENDBRANCH   7  10
BRANCH   5  19
ATOM     19  C   UNL     1      -0.561  12.231  19.048  0.00  0.00    +0.000 C 
ATOM     20  C   UNL     1      -0.314  13.594  18.397  0.00  0.00    +0.000 C 
BRANCH  19  21
ATOM     21  C   UNL     1      -1.793  11.557  18.450  0.00  0.00    +0.000 A 
ATOM     22  C   UNL     1      -1.661  10.564  17.465  0.00  0.00    +0.000 A 
ATOM     23  C   UNL     1      -2.790   9.993  16.866  0.00  0.00    +0.000 A 
ATOM     24  C   UNL     1      -4.068  10.408  17.237  0.00  0.00    +0.000 A 
ATOM     25  C   UNL     1      -4.207  11.377  18.230  0.00  0.00    +0.000 A 
ATOM     26  C   UNL     1      -3.085  11.952  18.831  0.00  0.00    +0.000 A 
BRANCH  25  27
ATOM     27  S   UNL     1      -5.814  11.915  18.720  0.00  0.00    +0.000 S 
ATOM     28  O   UNL     1      -6.803  10.986  18.229  0.00  0.00    +0.000 OA
ATOM     29  O   UNL     1      -5.776  12.350  20.097  0.00  0.00    +0.000 OA
BRANCH  27  30
ATOM     30  N   UNL     1      -5.984  13.305  17.797  0.00  0.00    +0.000 NA
ATOM     31  H   UNL     1      -5.223  13.375  17.123  0.00  0.00    +0.000 HD
ATOM     32  H   UNL     1      -6.917  13.341  17.388  0.00  0.00    +0.000 HD
ENDBRANCH  27  30
ENDBRANCH  25  27
ENDBRANCH  19  21
ENDBRANCH   5  19
TORSDOF 5
ENDMDL
MODEL 4
REMARK VINA RESULT:      -8.4      1.534      1.915
REMARK  Name = 
REMARK  7 active torsions:
REMARK  status: ('A' for Active; 'I' for Inactive)
REMARK    1  A    between atoms: C_1  and  C_2
REMARK    2  A    between atoms: N_5  and  C_6
REMARK    3  A    between atoms: C_6  and  C_7
REMARK    4  A    between atoms: C_6  and  C_8
REMARK    5  A    between atoms: C_12  and  S_13
REMARK    6  A    between atoms: S_13  and  N_14
REMARK    7  A    between atoms: C_19  and  C_20
REMARK                            x       y       z     vdW  Elec       q    Type
REMARK                         _______ _______ _______ _____ _____    ______ ____
ROOT
ATOM      1  C   UNL     1       0.881   9.253  22.786  0.00  0.00    +0.000 C 
ATOM      2  C   UNL     1       0.972   9.227  21.292  0.00  0.00    +0.000 A 
ATOM      3  N   UNL     1       0.429  10.251  20.612  0.00  0.00    +0.000 NA
ATOM      4  C   UNL     1       0.627  10.276  19.289  0.00  0.00    +0.000 A 
ATOM      5  N   UNL     1       0.092  11.298  18.509  0.00  0.00    +0.000 N 
ATOM      6  C   UNL     1       1.348   9.291  18.644  0.00  0.00    +0.000 A 
ATOM      7  C   UNL     1       1.804   8.228  19.399  0.00  0.00    +0.000 A 
ATOM      8  N   UNL     1       1.629   8.194  20.736  0.00  0.00    +0.000 NA
ATOM      9  H   UNL     1       0.819  11.868  18.092  0.00  0.00    +0.000 HD
ENDROOT
BRANCH   7  10
ATOM     10  C   UNL     1       2.487   7.058  18.806  0.00  0.00    +0.000 A 
ATOM     11  C   UNL     1       2.195   5.759  19.253  0.00  0.00    +0.000 A 
ATOM     12  C   UNL     1       2.827   4.626  18.716  0.00  0.00    +0.000 A 
ATOM     13  C   UNL     1       3.788   4.781  17.701  0.00  0.00    +0.000 A 
ATOM     14  N   UNL     1       4.500   3.761  17.090  0.00  0.00    +0.000 NA
ATOM     15  C   UNL     1       5.313   4.273  16.194  0.00  0.00    +0.000 A 
ATOM     16  S   UNL     1       5.275   5.974  16.013  0.00  0.00    +0.000 S 
ATOM     17  C   UNL     1       4.076   6.068  17.249  0.00  0.00    +0.000 A 
ATOM     18  C   UNL     1       3.442   7.207  17.780  0.00  0.00    +0.000 A 
ENDBRANCH   7  10
BRANCH   5  19
ATOM     19  C   UNL     1      -1.066  12.035  19.003  0.00  0.00    +0.000 C 
ATOM     20  C   UNL     1      -0.873  13.551  18.946  0.00  0.00    +0.000 C 
BRANCH  19  21
ATOM     21  C   UNL     1      -2.255  11.605  18.148  0.00  0.00    +0.000 A 
ATOM     22  C   UNL     1      -2.057  10.975  16.908  0.00  0.00    +0.000 A 
ATOM     23  C   UNL     1      -3.144  10.642  16.091  0.00  0.00    +0.000 A 
ATOM     24  C   UNL     1      -4.444  10.936  16.496  0.00  0.00    +0.000 A 
ATOM     25  C   UNL     1      -4.650  11.541  17.735  0.00  0.00    +0.000 A 
ATOM     26  C   UNL     1      -3.570  11.878  18.555  0.00  0.00    +0.000 A 
BRANCH  25  27
ATOM     27  S   UNL     1      -6.287  11.920  18.273  0.00  0.00    +0.000 S 
ATOM     28  O   UNL     1      -6.236  12.522  19.583  0.00  0.00    +0.000 OA
ATOM     29  O   UNL     1      -7.029  12.504  17.180  0.00  0.00    +0.000 OA
BRANCH  27  30
ATOM     30  N   UNL     1      -6.917  10.381  18.494  0.00  0.00    +0.000 NA
ATOM     31  H   UNL     1      -7.920  10.382  18.315  0.00  0.00    +0.000 HD
ATOM     32  H   UNL     1      -6.388   9.705  17.943  0.00  0.00    +0.000 HD
ENDBRANCH  27  30
ENDBRANCH  25  27
ENDBRANCH  19  21
ENDBRANCH   5  19
TORSDOF 5
ENDMDL
MODEL 5
REMARK VINA RESULT:      -8.1      2.855      4.393
REMARK  Name = 
REMARK  7 active torsions:
REMARK  status: ('A' for Active; 'I' for Inactive)
REMARK    1  A    between atoms: C_1  and  C_2
REMARK    2  A    between atoms: N_5  and  C_6
REMARK    3  A    between atoms: C_6  and  C_7
REMARK    4  A    between atoms: C_6  and  C_8
REMARK    5  A    between atoms: C_12  and  S_13
REMARK    6  A    between atoms: S_13  and  N_14
REMARK    7  A    between atoms: C_19  and  C_20
REMARK                            x       y       z     vdW  Elec       q    Type
REMARK                         _______ _______ _______ _____ _____    ______ ____
ROOT
ATOM      1  C   UNL     1       0.976   3.735  20.218  0.00  0.00    +0.000 C 
ATOM      2  C   UNL     1       1.732   4.971  19.842  0.00  0.00    +0.000 A 
ATOM      3  N   UNL     1       1.367   6.130  20.417  0.00  0.00    +0.000 NA
ATOM      4  C   UNL     1       2.129   7.199  20.166  0.00  0.00    +0.000 A 
ATOM      5  N   UNL     1       1.817   8.440  20.717  0.00  0.00    +0.000 N 
ATOM      6  C   UNL     1       3.238   7.126  19.347  0.00  0.00    +0.000 A 
ATOM      7  C   UNL     1       3.501   5.920  18.727  0.00  0.00    +0.000 A 
ATOM      8  N   UNL     1       2.753   4.826  18.980  0.00  0.00    +0.000 NA
ATOM      9  H   UNL     1       2.529   8.748  21.369  0.00  0.00    +0.000 HD
ENDROOT
BRANCH   7  10
ATOM     10  C   UNL     1       4.588   5.746  17.739  0.00  0.00    +0.000 A 
ATOM     11  C   UNL     1       5.849   6.327  17.956  0.00  0.00    +0.000 A 
ATOM     12  C   UNL     1       6.901   6.187  17.037  0.00  0.00    +0.000 A 
ATOM     13  C   UNL     1       6.702   5.450  15.857  0.00  0.00    +0.000 A 
ATOM     14  N   UNL     1       7.639   5.240  14.858  0.00  0.00    +0.000 NA
ATOM     15  C   UNL     1       7.105   4.513  13.904  0.00  0.00    +0.000 A 
ATOM     16  S   UNL     1       5.480   4.025  14.135  0.00  0.00    +0.000 S 
ATOM     17  C   UNL     1       5.454   4.865  15.641  0.00  0.00    +0.000 A 
ATOM     18  C   UNL     1       4.397   4.997  16.560  0.00  0.00    +0.000 A 
ENDBRANCH   7  10
BRANCH   5  19
ATOM     19  C   UNL     1       0.443   8.708  21.128  0.00  0.00    +0.000 C 
ATOM     20  C   UNL     1       0.326   9.065  22.611  0.00  0.00    +0.000 C 
BRANCH  19  21
ATOM     21  C   UNL     1      -0.060   9.851  20.251  0.00  0.00    +0.000 A 
ATOM     22  C   UNL     1       0.404  11.163  20.446  0.00  0.00    +0.000 A 
ATOM     23  C   UNL     1      -0.107  12.224  19.689  0.00  0.00    +0.000 A 
ATOM     24  C   UNL     1      -1.092  11.994  18.731  0.00  0.00    +0.000 A 
ATOM     25  C   UNL     1      -1.541  10.692  18.517  0.00  0.00    +0.000 A 
ATOM     26  C   UNL     1      -1.038   9.628  19.268  0.00  0.00    +0.000 A 
BRANCH  25  27
ATOM     27  S   UNL     1      -2.785  10.374  17.305  0.00  0.00    +0.000 S 
ATOM     28  O   UNL     1      -2.167  10.219  16.011  0.00  0.00    +0.000 OA
ATOM     29  O   UNL     1      -3.734   9.421  17.830  0.00  0.00    +0.000 OA
BRANCH  27  30
ATOM     30  N   UNL     1      -3.580  11.851  17.266  0.00  0.00    +0.000 NA
ATOM     31  H   UNL     1      -2.939  12.602  17.517  0.00  0.00    +0.000 HD
ATOM     32  H   UNL     1      -4.046  11.973  16.366  0.00  0.00    +0.000 HD
ENDBRANCH  27  30
ENDBRANCH  25  27
ENDBRANCH  19  21
ENDBRANCH   5  19
TORSDOF 5
ENDMDL
MODEL 6
REMARK VINA RESULT:      -7.9      5.338      9.606
REMARK  Name = 
REMARK  7 active torsions:
REMARK  status: ('A' for Active; 'I' for Inactive)
REMARK    1  A    between atoms: C_1  and  C_2
REMARK    2  A    between atoms: N_5  and  C_6
REMARK    3  A    between atoms: C_6  and  C_7
REMARK    4  A    between atoms: C_6  and  C_8
REMARK    5  A    between atoms: C_12  and  S_13
REMARK    6  A    between atoms: S_13  and  N_14
REMARK    7  A    between atoms: C_19  and  C_20
REMARK                            x       y       z     vdW  Elec       q    Type
REMARK                         _______ _______ _______ _____ _____    ______ ____
ROOT
ATOM      1  C   UNL     1       0.058   9.265  23.159  0.00  0.00    +0.000 C 
ATOM      2  C   UNL     1       0.675   9.486  21.814  0.00  0.00    +0.000 A 
ATOM      3  N   UNL     1       1.137   8.412  21.151  0.00  0.00    +0.000 NA
ATOM      4  C   UNL     1       1.573   8.609  19.902  0.00  0.00    +0.000 A 
ATOM      5  N   UNL     1       2.074   7.551  19.148  0.00  0.00    +0.000 N 
ATOM      6  C   UNL     1       1.558   9.859  19.316  0.00  0.00    +0.000 A 
ATOM      7  C   UNL     1       1.145  10.927  20.089  0.00  0.00    +0.000 A 
ATOM      8  N   UNL     1       0.689  10.745  21.345  0.00  0.00    +0.000 NA
ATOM      9  H   UNL     1       1.488   7.353  18.345  0.00  0.00    +0.000 HD
ENDROOT
BRANCH   7  10
ATOM     10  C   UNL     1       1.195  12.326  19.614  0.00  0.00    +0.000 A 
ATOM     11  C   UNL     1       2.239  12.761  18.780  0.00  0.00    +0.000 A 
ATOM     12  C   UNL     1       2.320  14.083  18.315  0.00  0.00    +0.000 A 
ATOM     13  C   UNL     1       1.336  15.015  18.690  0.00  0.00    +0.000 A 
ATOM     14  N   UNL     1       1.294  16.349  18.322  0.00  0.00    +0.000 NA
ATOM     15  C   UNL     1       0.239  16.918  18.860  0.00  0.00    +0.000 A 
ATOM     16  S   UNL     1      -0.765  15.914  19.814  0.00  0.00    +0.000 S 
ATOM     17  C   UNL     1       0.293  14.587  19.512  0.00  0.00    +0.000 A 
ATOM     18  C   UNL     1       0.204  13.261  19.977  0.00  0.00    +0.000 A 
ENDBRANCH   7  10
BRANCH   5  19
ATOM     19  C   UNL     1       2.598   6.375  19.837  0.00  0.00    +0.000 C 
ATOM     20  C   UNL     1       1.496   5.501  20.439  0.00  0.00    +0.000 C 
BRANCH  19  21
ATOM     21  C   UNL     1       3.413   5.594  18.810  0.00  0.00    +0.000 A 
ATOM     22  C   UNL     1       2.800   4.635  17.986  0.00  0.00    +0.000 A 
ATOM     23  C   UNL     1       3.557   3.869  17.092  0.00  0.00    +0.000 A 
ATOM     24  C   UNL     1       4.937   4.044  17.009  0.00  0.00    +0.000 A 
ATOM     25  C   UNL     1       5.548   5.010  17.807  0.00  0.00    +0.000 A 
ATOM     26  C   UNL     1       4.801   5.777  18.703  0.00  0.00    +0.000 A 
BRANCH  25  27
ATOM     27  S   UNL     1       7.294   5.254  17.717  0.00  0.00    +0.000 S 
ATOM     28  O   UNL     1       7.840   5.318  19.051  0.00  0.00    +0.000 OA
ATOM     29  O   UNL     1       7.847   4.398  16.694  0.00  0.00    +0.000 OA
BRANCH  27  30
ATOM     30  N   UNL     1       7.369   6.816  17.109  0.00  0.00    +0.000 NA
ATOM     31  H   UNL     1       8.268   6.975  16.658  0.00  0.00    +0.000 HD
ATOM     32  H   UNL     1       6.558   6.999  16.518  0.00  0.00    +0.000 HD
ENDBRANCH  27  30
ENDBRANCH  25  27
ENDBRANCH  19  21
ENDBRANCH   5  19
TORSDOF 5
ENDMDL
MODEL 7
REMARK VINA RESULT:      -7.9      5.302      9.403
REMARK  Name = 
REMARK  7 active torsions:
REMARK  status: ('A' for Active; 'I' for Inactive)
REMARK    1  A    between atoms: C_1  and  C_2
REMARK    2  A    between atoms: N_5  and  C_6
REMARK    3  A    between atoms: C_6  and  C_7
REMARK    4  A    between atoms: C_6  and  C_8
REMARK    5  A    between atoms: C_12  and  S_13
REMARK    6  A    between atoms: S_13  and  N_14
REMARK    7  A    between atoms: C_19  and  C_20
REMARK                            x       y       z     vdW  Elec       q    Type
REMARK                         _______ _______ _______ _____ _____    ______ ____
ROOT
ATOM      1  C   UNL     1       0.093   9.357  23.170  0.00  0.00    +0.000 C 
ATOM      2  C   UNL     1       0.653   9.623  21.808  0.00  0.00    +0.000 A 
ATOM      3  N   UNL     1       1.124   8.578  21.107  0.00  0.00    +0.000 NA
ATOM      4  C   UNL     1       1.505   8.812  19.847  0.00  0.00    +0.000 A 
ATOM      5  N   UNL     1       2.012   7.786  19.055  0.00  0.00    +0.000 N 
ATOM      6  C   UNL     1       1.428  10.072  19.287  0.00  0.00    +0.000 A 
ATOM      7  C   UNL     1       1.011  11.111  20.096  0.00  0.00    +0.000 A 
ATOM      8  N   UNL     1       0.608  10.892  21.364  0.00  0.00    +0.000 NA
ATOM      9  H   UNL     1       1.402   7.584  18.270  0.00  0.00    +0.000 HD
ENDROOT
BRANCH   7  10
ATOM     10  C   UNL     1       0.998  12.520  19.647  0.00  0.00    +0.000 A 
ATOM     11  C   UNL     1      -0.207  13.240  19.591  0.00  0.00    +0.000 A 
ATOM     12  C   UNL     1      -0.257  14.577  19.165  0.00  0.00    +0.000 A 
ATOM     13  C   UNL     1       0.927  15.229  18.775  0.00  0.00    +0.000 A 
ATOM     14  N   UNL     1       1.028  16.534  18.322  0.00  0.00    +0.000 NA
ATOM     15  C   UNL     1       2.283  16.803  18.043  0.00  0.00    +0.000 A 
ATOM     16  S   UNL     1       3.411  15.544  18.311  0.00  0.00    +0.000 S 
ATOM     17  C   UNL     1       2.127  14.520  18.836  0.00  0.00    +0.000 A 
ATOM     18  C   UNL     1       2.184  13.181  19.267  0.00  0.00    +0.000 A 
ENDBRANCH   7  10
BRANCH   5  19
ATOM     19  C   UNL     1       2.598   6.616  19.700  0.00  0.00    +0.000 C 
ATOM     20  C   UNL     1       1.581   5.816  20.515  0.00  0.00    +0.000 C 
BRANCH  19  21
ATOM     21  C   UNL     1       3.200   5.759  18.589  0.00  0.00    +0.000 A 
ATOM     22  C   UNL     1       2.533   4.613  18.125  0.00  0.00    +0.000 A 
ATOM     23  C   UNL     1       3.114   3.788  17.155  0.00  0.00    +0.000 A 
ATOM     24  C   UNL     1       4.372   4.092  16.636  0.00  0.00    +0.000 A 
ATOM     25  C   UNL     1       5.030   5.240  17.075  0.00  0.00    +0.000 A 
ATOM     26  C   UNL     1       4.457   6.067  18.044  0.00  0.00    +0.000 A 
BRANCH  25  27
ATOM     27  S   UNL     1       6.621   5.648  16.430  0.00  0.00    +0.000 S 
ATOM     28  O   UNL     1       7.622   4.829  17.068  0.00  0.00    +0.000 OA
ATOM     29  O   UNL     1       6.535   5.791  14.996  0.00  0.00    +0.000 OA
BRANCH  27  30
ATOM     30  N   UNL     1       6.828   7.196  17.041  0.00  0.00    +0.000 NA
ATOM     31  H   UNL     1       6.255   7.859  16.522  0.00  0.00    +0.000 HD
ATOM     32  H   UNL     1       6.671   7.197  18.050  0.00  0.00    +0.000 HD
ENDBRANCH  27  30
ENDBRANCH  25  27
ENDBRANCH  19  21
ENDBRANCH   5  19
TORSDOF 5
ENDMDL
MODEL 8
REMARK VINA RESULT:      -7.9      5.260      9.533
REMARK  Name = 
REMARK  7 active torsions:
REMARK  status: ('A' for Active; 'I' for Inactive)
REMARK    1  A    between atoms: C_1  and  C_2
REMARK    2  A    between atoms: N_5  and  C_6
REMARK    3  A    between atoms: C_6  and  C_7
REMARK    4  A    between atoms: C_6  and  C_8
REMARK    5  A    between atoms: C_12  and  S_13
REMARK    6  A    between atoms: S_13  and  N_14
REMARK    7  A    between atoms: C_19  and  C_20
REMARK                            x       y       z     vdW  Elec       q    Type
REMARK                         _______ _______ _______ _____ _____    ______ ____
ROOT
ATOM      1  C   UNL     1       2.659   7.968  17.211  0.00  0.00    +0.000 C 
ATOM      2  C   UNL     1       2.212   7.677  18.609  0.00  0.00    +0.000 A 
ATOM      3  N   UNL     1       2.477   6.460  19.113  0.00  0.00    +0.000 NA
ATOM      4  C   UNL     1       2.183   6.258  20.402  0.00  0.00    +0.000 A 
ATOM      5  N   UNL     1       2.419   5.023  21.001  0.00  0.00    +0.000 N 
ATOM      6  C   UNL     1       1.625   7.250  21.184  0.00  0.00    +0.000 A 
ATOM      7  C   UNL     1       1.306   8.447  20.574  0.00  0.00    +0.000 A 
ATOM      8  N   UNL     1       1.609   8.675  19.280  0.00  0.00    +0.000 NA
ATOM      9  H   UNL     1       3.128   5.087  21.722  0.00  0.00    +0.000 HD
ENDROOT
BRANCH   7  10
ATOM     10  C   UNL     1       0.600   9.541  21.275  0.00  0.00    +0.000 A 
ATOM     11  C   UNL     1      -0.171   9.275  22.419  0.00  0.00    +0.000 A 
ATOM     12  C   UNL     1      -0.858  10.288  23.106  0.00  0.00    +0.000 A 
ATOM     13  C   UNL     1      -0.786  11.615  22.645  0.00  0.00    +0.000 A 
ATOM     14  N   UNL     1      -1.420  12.710  23.210  0.00  0.00    +0.000 NA
ATOM     15  C   UNL     1      -1.134  13.787  22.514  0.00  0.00    +0.000 A 
ATOM     16  S   UNL     1      -0.098  13.573  21.169  0.00  0.00    +0.000 S 
ATOM     17  C   UNL     1      -0.017  11.885  21.514  0.00  0.00    +0.000 A 
ATOM     18  C   UNL     1       0.679  10.874  20.824  0.00  0.00    +0.000 A 
ENDBRANCH   7  10
BRANCH   5  19
ATOM     19  C   UNL     1       2.496   3.832  20.161  0.00  0.00    +0.000 C 
ATOM     20  C   UNL     1       1.137   3.418  19.593  0.00  0.00    +0.000 C 
BRANCH  19  21
ATOM     21  C   UNL     1       3.481   4.150  19.040  0.00  0.00    +0.000 A 
ATOM     22  C   UNL     1       3.129   3.946  17.695  0.00  0.00    +0.000 A 
ATOM     23  C   UNL     1       4.055   4.171  16.670  0.00  0.00    +0.000 A 
ATOM     24  C   UNL     1       5.347   4.599  16.970  0.00  0.00    +0.000 A 
ATOM     25  C   UNL     1       5.696   4.825  18.300  0.00  0.00    +0.000 A 
ATOM     26  C   UNL     1       4.779   4.601  19.330  0.00  0.00    +0.000 A 
BRANCH  25  27
ATOM     27  S   UNL     1       7.325   5.371  18.706  0.00  0.00    +0.000 S 
ATOM     28  O   UNL     1       7.595   6.618  18.033  0.00  0.00    +0.000 OA
ATOM     29  O   UNL     1       7.554   5.188  20.120  0.00  0.00    +0.000 OA
BRANCH  27  30
ATOM     30  N   UNL     1       8.255   4.212  17.928  0.00  0.00    +0.000 NA
ATOM     31  H   UNL     1       8.518   3.476  18.581  0.00  0.00    +0.000 HD
ATOM     32  H   UNL     1       7.776   3.885  17.089  0.00  0.00    +0.000 HD
ENDBRANCH  27  30
ENDBRANCH  25  27
ENDBRANCH  19  21
ENDBRANCH   5  19
TORSDOF 5
ENDMDL
MODEL 9
REMARK VINA RESULT:      -7.8      5.343      9.583
REMARK  Name = 
REMARK  7 active torsions:
REMARK  status: ('A' for Active; 'I' for Inactive)
REMARK    1  A    between atoms: C_1  and  C_2
REMARK    2  A    between atoms: N_5  and  C_6
REMARK    3  A    between atoms: C_6  and  C_7
REMARK    4  A    between atoms: C_6  and  C_8
REMARK    5  A    between atoms: C_12  and  S_13
REMARK    6  A    between atoms: S_13  and  N_14
REMARK    7  A    between atoms: C_19  and  C_20
REMARK                            x       y       z     vdW  Elec       q    Type
REMARK                         _______ _______ _______ _____ _____    ______ ____
ROOT
ATOM      1  C   UNL     1       0.066   9.275  23.489  0.00  0.00    +0.000 C 
ATOM      2  C   UNL     1       0.594   9.483  22.104  0.00  0.00    +0.000 A 
ATOM      3  N   UNL     1       1.009   8.403  21.421  0.00  0.00    +0.000 NA
ATOM      4  C   UNL     1       1.361   8.589  20.144  0.00  0.00    +0.000 A 
ATOM      5  N   UNL     1       1.810   7.524  19.368  0.00  0.00    +0.000 N 
ATOM      6  C   UNL     1       1.309   9.834  19.549  0.00  0.00    +0.000 A 
ATOM      7  C   UNL     1       0.950  10.909  20.339  0.00  0.00    +0.000 A 
ATOM      8  N   UNL     1       0.577  10.739  21.624  0.00  0.00    +0.000 NA
ATOM      9  H   UNL     1       1.171   7.321  18.607  0.00  0.00    +0.000 HD
ENDROOT
BRANCH   7  10
ATOM     10  C   UNL     1       0.970  12.305  19.850  0.00  0.00    +0.000 A 
ATOM     11  C   UNL     1       0.111  12.711  18.815  0.00  0.00    +0.000 A 
ATOM     12  C   UNL     1       0.107  14.026  18.323  0.00  0.00    +0.000 A 
ATOM     13  C   UNL     1       0.988  14.977  18.870  0.00  0.00    +0.000 A 
ATOM     14  N   UNL     1       1.105  16.300  18.477  0.00  0.00    +0.000 NA
ATOM     15  C   UNL     1       2.029  16.890  19.200  0.00  0.00    +0.000 A 
ATOM     16  S   UNL     1       2.800  15.926  20.385  0.00  0.00    +0.000 S 
ATOM     17  C   UNL     1       1.837  14.580  19.902  0.00  0.00    +0.000 A 
ATOM     18  C   UNL     1       1.842  13.265  20.403  0.00  0.00    +0.000 A 
ENDBRANCH   7  10
BRANCH   5  19
ATOM     19  C   UNL     1       2.377   6.353  20.030  0.00  0.00    +0.000 C 
ATOM     20  C   UNL     1       1.313   5.337  20.450  0.00  0.00    +0.000 C 
BRANCH  19  21
ATOM     21  C   UNL     1       3.366   5.731  19.048  0.00  0.00    +0.000 A 
ATOM     22  C   UNL     1       2.912   5.005  17.934  0.00  0.00    +0.000 A 
ATOM     23  C   UNL     1       3.816   4.376  17.071  0.00  0.00    +0.000 A 
ATOM     24  C   UNL     1       5.187   4.458  17.308  0.00  0.00    +0.000 A 
ATOM     25  C   UNL     1       5.646   5.195  18.398  0.00  0.00    +0.000 A 
ATOM     26  C   UNL     1       4.750   5.824  19.265  0.00  0.00    +0.000 A 
BRANCH  25  27
ATOM     27  S   UNL     1       7.378   5.317  18.716  0.00  0.00    +0.000 S 
ATOM     28  O   UNL     1       7.601   5.382  20.140  0.00  0.00    +0.000 OA
ATOM     29  O   UNL     1       8.089   4.397  17.861  0.00  0.00    +0.000 OA
BRANCH  27  30
ATOM     30  N   UNL     1       7.705   6.853  18.125  0.00  0.00    +0.000 NA
ATOM     31  H   UNL     1       8.305   7.359  18.774  0.00  0.00    +0.000 HD
ATOM     32  H   UNL     1       8.067   6.790  17.173  0.00  0.00    +0.000 HD
ENDBRANCH  27  30
ENDBRANCH  25  27
ENDBRANCH  19  21
ENDBRANCH   5  19
TORSDOF 5
ENDMDL
