MODEL 1
REMARK VINA RESULT:      -8.8      0.000      0.000
REMARK  Name = 
REMARK  8 active torsions:
REMARK  status: ('A' for Active; 'I' for Inactive)
REMARK    1  A    between atoms: C_1  and  N_2
REMARK    2  A    between atoms: N_2  and  C_3
REMARK    3  A    between atoms: N_2  and  C_23
REMARK    4  A    between atoms: C_3  and  C_4
REMARK    5  A    between atoms: C_9  and  C_10
REMARK    6  A    between atoms: N_14  and  C_15
REMARK    7  A    between atoms: C_15  and  C_16
REMARK    8  A    between atoms: C_16  and  C_17
REMARK                            x       y       z     vdW  Elec       q    Type
REMARK                         _______ _______ _______ _____ _____    ______ ____
ROOT
ATOM      1  C   UNL     1       2.977   6.398  18.123  0.00  0.00    +0.000 A 
ATOM      2  C   UNL     1       2.691   7.637  17.573  0.00  0.00    +0.000 A 
ATOM      3  C   UNL     1       2.092   8.431  18.574  0.00  0.00    +0.000 A 
ATOM      4  C   UNL     1       1.624   9.739  18.664  0.00  0.00    +0.000 A 
ATOM      5  N   UNL     1       1.085  10.178  19.820  0.00  0.00    +0.000 NA
ATOM      6  C   UNL     1       1.026   9.309  20.858  0.00  0.00    +0.000 A 
ATOM      7  N   UNL     1       1.457   8.028  20.891  0.00  0.00    +0.000 NA
ATOM      8  C   UNL     1       1.985   7.644  19.715  0.00  0.00    +0.000 A 
ATOM      9  N   UNL     1       2.515   6.405  19.430  0.00  0.00    +0.000 N 
ENDROOT
BRANCH   6  10
ATOM     10  C   UNL     1       0.422   9.809  22.067  0.00  0.00    +0.000 C 
ATOM     11  N   UNL     1      -0.067  10.211  23.041  0.00  0.00    +0.000 NA
ENDBRANCH   6  10
BRANCH   1  12
ATOM     12  C   UNL     1       3.689   5.246  17.480  0.00  0.00    +0.000 C 
BRANCH  12  14
ATOM     13  C   UNL     1       5.069   5.200  15.338  0.00  0.00    +0.000 C 
ATOM     14  N   UNL     1       4.928   5.542  16.752  0.00  0.00    +0.000 N 
BRANCH  14  15
ATOM     15  C   UNL     1       6.046   6.018  17.447  0.00  0.00    +0.000 A 
ATOM     16  C   UNL     1       6.661   7.242  17.122  0.00  0.00    +0.000 A 
ATOM     17  C   UNL     1       7.763   7.741  17.824  0.00  0.00    +0.000 A 
ATOM     18  C   UNL     1       8.294   7.023  18.886  0.00  0.00    +0.000 A 
ATOM     19  C   UNL     1       7.721   5.808  19.237  0.00  0.00    +0.000 A 
ATOM     20  C   UNL     1       6.615   5.318  18.528  0.00  0.00    +0.000 A 
ENDBRANCH  14  15
ENDBRANCH  12  14
ENDBRANCH   1  12
BRANCH   9  21
ATOM     21  C   UNL     1       2.516   5.278  20.354  0.00  0.00    +0.000 C 
BRANCH  21  22
ATOM     22  C   UNL     1       1.167   4.563  20.466  0.00  0.00    +0.000 C 
BRANCH  22  23
ATOM     23  C   UNL     1       1.287   3.038  20.703  0.00  0.00    +0.000 C 
ATOM     24  C   UNL     1       0.888   2.179  19.488  0.00  0.00    +0.000 C 
ATOM     25  C   UNL     1       1.909   2.219  18.351  0.00  0.00    +0.000 C 
ATOM     26  C   UNL     1       3.310   1.861  18.836  0.00  0.00    +0.000 C 
ATOM     27  C   UNL     1       3.734   2.730  20.015  0.00  0.00    +0.000 C 
ATOM     28  C   UNL     1       2.713   2.660  21.152  0.00  0.00    +0.000 C 
ENDBRANCH  22  23
ENDBRANCH  21  22
ENDBRANCH   9  21
TORSDOF 7
ENDMDL
MODEL 2
REMARK VINA RESULT:      -8.5      1.090      2.052
REMARK  Name = 
REMARK  8 active torsions:
REMARK  status: ('A' for Active; 'I' for Inactive)
REMARK    1  A    between atoms: C_1  and  N_2
REMARK    2  A    between atoms: N_2  and  C_3
REMARK    3  A    between atoms: N_2  and  C_23
REMARK    4  A    between atoms: C_3  and  C_4
REMARK    5  A    between atoms: C_9  and  C_10
REMARK    6  A    between atoms: N_14  and  C_15
REMARK    7  A    between atoms: C_15  and  C_16
REMARK    8  A    between atoms: C_16  and  C_17
REMARK                            x       y       z     vdW  Elec       q    Type
REMARK                         _______ _______ _______ _____ _____    ______ ____
ROOT
ATOM      1  C   UNL     1       2.714   6.484  18.365  0.00  0.00    +0.000 A 
ATOM      2  C   UNL     1       2.471   7.759  17.880  0.00  0.00    +0.000 A 
ATOM      3  C   UNL     1       1.899   8.519  18.922  0.00  0.00    +0.000 A 
ATOM      4  C   UNL     1       1.476   9.837  19.080  0.00  0.00    +0.000 A 
ATOM      5  N   UNL     1       0.951  10.233  20.257  0.00  0.00    +0.000 NA
ATOM      6  C   UNL     1       0.863   9.314  21.249  0.00  0.00    +0.000 A 
ATOM      7  N   UNL     1       1.249   8.019  21.215  0.00  0.00    +0.000 NA
ATOM      8  C   UNL     1       1.764   7.679  20.020  0.00  0.00    +0.000 A 
ATOM      9  N   UNL     1       2.252   6.439  19.670  0.00  0.00    +0.000 N 
ENDROOT
BRANCH   6  10
ATOM     10  C   UNL     1       0.275   9.770  22.484  0.00  0.00    +0.000 C 
ATOM     11  N   UNL     1      -0.197  10.137  23.479  0.00  0.00    +0.000 NA
ENDBRANCH   6  10
BRANCH   1  12
ATOM     12  C   UNL     1       3.386   5.343  17.661  0.00  0.00    +0.000 C 
BRANCH  12  14
ATOM     13  C   UNL     1       5.612   5.734  18.838  0.00  0.00    +0.000 C 
ATOM     14  N   UNL     1       4.854   5.324  17.658  0.00  0.00    +0.000 N 
BRANCH  14  15
ATOM     15  C   UNL     1       5.542   5.057  16.469  0.00  0.00    +0.000 A 
ATOM     16  C   UNL     1       4.936   4.386  15.391  0.00  0.00    +0.000 A 
ATOM     17  C   UNL     1       5.606   4.133  14.189  0.00  0.00    +0.000 A 
ATOM     18  C   UNL     1       6.920   4.548  14.024  0.00  0.00    +0.000 A 
ATOM     19  C   UNL     1       7.557   5.209  15.065  0.00  0.00    +0.000 A 
ATOM     20  C   UNL     1       6.877   5.458  16.265  0.00  0.00    +0.000 A 
ENDBRANCH  14  15
ENDBRANCH  12  14
ENDBRANCH   1  12
BRANCH   9  21
ATOM     21  C   UNL     1       2.214   5.266  20.535  0.00  0.00    +0.000 C 
BRANCH  21  22
ATOM     22  C   UNL     1       0.972   4.390  20.342  0.00  0.00    +0.000 C 
BRANCH  22  23
ATOM     23  C   UNL     1       1.222   2.887  20.612  0.00  0.00    +0.000 C 
ATOM     24  C   UNL     1       1.000   1.982  19.384  0.00  0.00    +0.000 C 
ATOM     25  C   UNL     1       2.094   2.112  18.325  0.00  0.00    +0.000 C 
ATOM     26  C   UNL     1       3.483   1.897  18.917  0.00  0.00    +0.000 C 
ATOM     27  C   UNL     1       3.731   2.814  20.109  0.00  0.00    +0.000 C 
ATOM     28  C   UNL     1       2.641   2.655  21.169  0.00  0.00    +0.000 C 
ENDBRANCH  22  23
ENDBRANCH  21  22
ENDBRANCH   9  21
TORSDOF 7
ENDMDL
MODEL 3
REMARK VINA RESULT:      -8.1      0.448      1.194
REMARK  Name = 
REMARK  8 active torsions:
REMARK  status: ('A' for Active; 'I' for Inactive)
REMARK    1  A    between atoms: C_1  and  N_2
REMARK    2  A    between atoms: N_2  and  C_3
REMARK    3  A    between atoms: N_2  and  C_23
REMARK    4  A    between atoms: C_3  and  C_4
REMARK    5  A    between atoms: C_9  and  C_10
REMARK    6  A    between atoms: N_14  and  C_15
REMARK    7  A    between atoms: C_15  and  C_16
REMARK    8  A    between atoms: C_16  and  C_17
REMARK                            x       y       z     vdW  Elec       q    Type
REMARK                         _______ _______ _______ _____ _____    ______ ____
ROOT
ATOM      1  C   UNL     1       3.038   6.398  18.136  0.00  0.00    +0.000 A 
ATOM      2  C   UNL     1       2.641   7.610  17.594  0.00  0.00    +0.000 A 
ATOM      3  C   UNL     1       2.042   8.371  18.621  0.00  0.00    +0.000 A 
ATOM      4  C   UNL     1       1.491   9.645  18.728  0.00  0.00    +0.000 A 
ATOM      5  N   UNL     1       0.982  10.057  19.907  0.00  0.00    +0.000 NA
ATOM      6  C   UNL     1       1.036   9.194  20.951  0.00  0.00    +0.000 A 
ATOM      7  N   UNL     1       1.553   7.946  20.969  0.00  0.00    +0.000 NA
ATOM      8  C   UNL     1       2.046   7.588  19.770  0.00  0.00    +0.000 A 
ATOM      9  N   UNL     1       2.644   6.386  19.464  0.00  0.00    +0.000 N 
ENDROOT
BRANCH   6  10
ATOM     10  C   UNL     1       0.461   9.662  22.188  0.00  0.00    +0.000 C 
ATOM     11  N   UNL     1      -0.004  10.039  23.183  0.00  0.00    +0.000 NA
ENDBRANCH   6  10
BRANCH   1  12
ATOM     12  C   UNL     1       3.793   5.292  17.462  0.00  0.00    +0.000 C 
BRANCH  12  14
ATOM     13  C   UNL     1       5.118   5.371  15.287  0.00  0.00    +0.000 C 
ATOM     14  N   UNL     1       5.002   5.658  16.715  0.00  0.00    +0.000 N 
BRANCH  14  15
ATOM     15  C   UNL     1       6.119   6.151  17.400  0.00  0.00    +0.000 A 
ATOM     16  C   UNL     1       6.669   7.416  17.117  0.00  0.00    +0.000 A 
ATOM     17  C   UNL     1       7.770   7.930  17.810  0.00  0.00    +0.000 A 
ATOM     18  C   UNL     1       8.366   7.186  18.819  0.00  0.00    +0.000 A 
ATOM     19  C   UNL     1       7.858   5.931  19.126  0.00  0.00    +0.000 A 
ATOM     20  C   UNL     1       6.753   5.426  18.427  0.00  0.00    +0.000 A 
ENDBRANCH  14  15
ENDBRANCH  12  14
ENDBRANCH   1  12
BRANCH   9  21
ATOM     21  C   UNL     1       2.768   5.269  20.392  0.00  0.00    +0.000 C 
BRANCH  21  22
ATOM     22  C   UNL     1       3.744   4.182  19.932  0.00  0.00    +0.000 C 
BRANCH  22  23
ATOM     23  C   UNL     1       3.250   2.742  20.212  0.00  0.00    +0.000 C 
ATOM     24  C   UNL     1       1.884   2.672  20.923  0.00  0.00    +0.000 C 
ATOM     25  C   UNL     1       0.708   3.045  20.021  0.00  0.00    +0.000 C 
ATOM     26  C   UNL     1       0.698   2.222  18.737  0.00  0.00    +0.000 C 
ATOM     27  C   UNL     1       2.031   2.313  18.002  0.00  0.00    +0.000 C 
ATOM     28  C   UNL     1       3.194   1.915  18.912  0.00  0.00    +0.000 C 
ENDBRANCH  22  23
ENDBRANCH  21  22
ENDBRANCH   9  21
TORSDOF 7
ENDMDL
MODEL 4
REMARK VINA RESULT:      -8.1      0.878      1.331
REMARK  Name = 
REMARK  8 active torsions:
REMARK  status: ('A' for Active; 'I' for Inactive)
REMARK    1  A    between atoms: C_1  and  N_2
REMARK    2  A    between atoms: N_2  and  C_3
REMARK    3  A    between atoms: N_2  and  C_23
REMARK    4  A    between atoms: C_3  and  C_4
REMARK    5  A    between atoms: C_9  and  C_10
REMARK    6  A    between atoms: N_14  and  C_15
REMARK    7  A    between atoms: C_15  and  C_16
REMARK    8  A    between atoms: C_16  and  C_17
REMARK                            x       y       z     vdW  Elec       q    Type
REMARK                         _______ _______ _______ _____ _____    ______ ____
ROOT
ATOM      1  C   UNL     1       2.779   6.722  18.296  0.00  0.00    +0.000 A 
ATOM      2  C   UNL     1       2.806   7.860  17.506  0.00  0.00    +0.000 A 
ATOM      3  C   UNL     1       2.181   8.903  18.222  0.00  0.00    +0.000 A 
ATOM      4  C   UNL     1       1.929  10.255  18.001  0.00  0.00    +0.000 A 
ATOM      5  N   UNL     1       1.274  10.974  18.935  0.00  0.00    +0.000 NA
ATOM      6  C   UNL     1       0.889  10.334  20.066  0.00  0.00    +0.000 A 
ATOM      7  N   UNL     1       1.087   9.038  20.394  0.00  0.00    +0.000 NA
ATOM      8  C   UNL     1       1.743   8.370  19.428  0.00  0.00    +0.000 A 
ATOM      9  N   UNL     1       2.101   7.041  19.462  0.00  0.00    +0.000 N 
ENDROOT
BRANCH   6  10
ATOM     10  C   UNL     1       0.172  11.132  21.030  0.00  0.00    +0.000 C 
ATOM     11  N   UNL     1      -0.408  11.774  21.805  0.00  0.00    +0.000 NA
ENDBRANCH   6  10
BRANCH   1  12
ATOM     12  C   UNL     1       3.392   5.385  18.007  0.00  0.00    +0.000 C 
BRANCH  12  14
ATOM     13  C   UNL     1       4.657   4.650  15.920  0.00  0.00    +0.000 C 
ATOM     14  N   UNL     1       4.614   5.365  17.194  0.00  0.00    +0.000 N 
BRANCH  14  15
ATOM     15  C   UNL     1       5.799   5.905  17.708  0.00  0.00    +0.000 A 
ATOM     16  C   UNL     1       6.471   5.325  18.800  0.00  0.00    +0.000 A 
ATOM     17  C   UNL     1       7.668   5.842  19.308  0.00  0.00    +0.000 A 
ATOM     18  C   UNL     1       8.238   6.969  18.733  0.00  0.00    +0.000 A 
ATOM     19  C   UNL     1       7.605   7.575  17.657  0.00  0.00    +0.000 A 
ATOM     20  C   UNL     1       6.406   7.049  17.155  0.00  0.00    +0.000 A 
ENDBRANCH  14  15
ENDBRANCH  12  14
ENDBRANCH   1  12
BRANCH   9  21
ATOM     21  C   UNL     1       1.751   6.120  20.537  0.00  0.00    +0.000 C 
BRANCH  21  22
ATOM     22  C   UNL     1       2.752   4.978  20.731  0.00  0.00    +0.000 C 
BRANCH  22  23
ATOM     23  C   UNL     1       2.092   3.622  21.079  0.00  0.00    +0.000 C 
ATOM     24  C   UNL     1       0.827   3.309  20.254  0.00  0.00    +0.000 C 
ATOM     25  C   UNL     1       1.122   2.946  18.800  0.00  0.00    +0.000 C 
ATOM     26  C   UNL     1       2.137   1.812  18.694  0.00  0.00    +0.000 C 
ATOM     27  C   UNL     1       3.410   2.126  19.473  0.00  0.00    +0.000 C 
ATOM     28  C   UNL     1       3.099   2.464  20.932  0.00  0.00    +0.000 C 
ENDBRANCH  22  23
ENDBRANCH  21  22
ENDBRANCH   9  21
TORSDOF 7
ENDMDL
MODEL 5
REMARK VINA RESULT:      -8.0      1.183      2.339
REMARK  Name = 
REMARK  8 active torsions:
REMARK  status: ('A' for Active; 'I' for Inactive)
REMARK    1  A    between atoms: C_1  and  N_2
REMARK    2  A    between atoms: N_2  and  C_3
REMARK    3  A    between atoms: N_2  and  C_23
REMARK    4  A    between atoms: C_3  and  C_4
REMARK    5  A    between atoms: C_9  and  C_10
REMARK    6  A    between atoms: N_14  and  C_15
REMARK    7  A    between atoms: C_15  and  C_16
REMARK    8  A    between atoms: C_16  and  C_17
REMARK                            x       y       z     vdW  Elec       q    Type
REMARK                         _______ _______ _______ _____ _____    ______ ____
ROOT
ATOM      1  C   UNL     1       3.664   6.163  18.199  0.00  0.00    +0.000 A 
ATOM      2  C   UNL     1       3.484   7.297  17.424  0.00  0.00    +0.000 A 
ATOM      3  C   UNL     1       2.631   8.175  18.126  0.00  0.00    +0.000 A 
ATOM      4  C   UNL     1       2.114   9.450  17.911  0.00  0.00    +0.000 A 
ATOM      5  N   UNL     1       1.291  10.000  18.826  0.00  0.00    +0.000 NA
ATOM      6  C   UNL     1       1.005   9.273  19.934  0.00  0.00    +0.000 A 
ATOM      7  N   UNL     1       1.454   8.040  20.254  0.00  0.00    +0.000 NA
ATOM      8  C   UNL     1       2.269   7.540  19.308  0.00  0.00    +0.000 A 
ATOM      9  N   UNL     1       2.893   6.312  19.340  0.00  0.00    +0.000 N 
ENDROOT
BRANCH   6  10
ATOM     10  C   UNL     1       0.104   9.887  20.877  0.00  0.00    +0.000 C 
ATOM     11  N   UNL     1      -0.621  10.382  21.638  0.00  0.00    +0.000 NA
ENDBRANCH   6  10
BRANCH   1  12
ATOM     12  C   UNL     1       4.550   4.987  17.919  0.00  0.00    +0.000 C 
BRANCH  12  14
ATOM     13  C   UNL     1       6.880   6.013  18.008  0.00  0.00    +0.000 C 
ATOM     14  N   UNL     1       5.853   5.256  17.299  0.00  0.00    +0.000 N 
BRANCH  14  15
ATOM     15  C   UNL     1       6.066   4.917  15.957  0.00  0.00    +0.000 A 
ATOM     16  C   UNL     1       7.252   5.260  15.281  0.00  0.00    +0.000 A 
ATOM     17  C   UNL     1       7.488   4.908  13.948  0.00  0.00    +0.000 A 
ATOM     18  C   UNL     1       6.532   4.193  13.238  0.00  0.00    +0.000 A 
ATOM     19  C   UNL     1       5.346   3.839  13.866  0.00  0.00    +0.000 A 
ATOM     20  C   UNL     1       5.121   4.196  15.203  0.00  0.00    +0.000 A 
ENDBRANCH  14  15
ENDBRANCH  12  14
ENDBRANCH   1  12
BRANCH   9  21
ATOM     21  C   UNL     1       2.701   5.319  20.390  0.00  0.00    +0.000 C 
BRANCH  21  22
ATOM     22  C   UNL     1       1.271   4.778  20.482  0.00  0.00    +0.000 C 
BRANCH  22  23
ATOM     23  C   UNL     1       1.196   3.249  20.708  0.00  0.00    +0.000 C 
ATOM     24  C   UNL     1       0.745   2.451  19.469  0.00  0.00    +0.000 C 
ATOM     25  C   UNL     1       1.807   2.373  18.374  0.00  0.00    +0.000 C 
ATOM     26  C   UNL     1       3.134   1.845  18.909  0.00  0.00    +0.000 C 
ATOM     27  C   UNL     1       3.613   2.650  20.112  0.00  0.00    +0.000 C 
ATOM     28  C   UNL     1       2.547   2.699  21.208  0.00  0.00    +0.000 C 
ENDBRANCH  22  23
ENDBRANCH  21  22
ENDBRANCH   9  21
TORSDOF 7
ENDMDL
MODEL 6
REMARK VINA RESULT:      -8.0      0.824      1.344
REMARK  Name = 
REMARK  8 active torsions:
REMARK  status: ('A' for Active; 'I' for Inactive)
REMARK    1  A    between atoms: C_1  and  N_2
REMARK    2  A    between atoms: N_2  and  C_3
REMARK    3  A    between atoms: N_2  and  C_23
REMARK    4  A    between atoms: C_3  and  C_4
REMARK    5  A    between atoms: C_9  and  C_10
REMARK    6  A    between atoms: N_14  and  C_15
REMARK    7  A    between atoms: C_15  and  C_16
REMARK    8  A    between atoms: C_16  and  C_17
REMARK                            x       y       z     vdW  Elec       q    Type
REMARK                         _______ _______ _______ _____ _____    ______ ____
ROOT
ATOM      1  C   UNL     1       2.771   7.139  18.052  0.00  0.00    +0.000 A 
ATOM      2  C   UNL     1       2.348   8.375  17.591  0.00  0.00    +0.000 A 
ATOM      3  C   UNL     1       1.737   9.056  18.665  0.00  0.00    +0.000 A 
ATOM      4  C   UNL     1       1.161  10.310  18.855  0.00  0.00    +0.000 A 
ATOM      5  N   UNL     1       0.648  10.635  20.059  0.00  0.00    +0.000 NA
ATOM      6  C   UNL     1       0.723   9.708  21.045  0.00  0.00    +0.000 A 
ATOM      7  N   UNL     1       1.266   8.472  20.982  0.00  0.00    +0.000 NA
ATOM      8  C   UNL     1       1.761   8.202  19.761  0.00  0.00    +0.000 A 
ATOM      9  N   UNL     1       2.382   7.034  19.378  0.00  0.00    +0.000 N 
ENDROOT
BRANCH   6  10
ATOM     10  C   UNL     1       0.143  10.085  22.310  0.00  0.00    +0.000 C 
ATOM     11  N   UNL     1      -0.323  10.387  23.330  0.00  0.00    +0.000 NA
ENDBRANCH   6  10
BRANCH   1  12
ATOM     12  C   UNL     1       3.546   6.094  17.308  0.00  0.00    +0.000 C 
BRANCH  12  14
ATOM     13  C   UNL     1       5.030   6.712  15.331  0.00  0.00    +0.000 C 
ATOM     14  N   UNL     1       4.852   6.483  16.763  0.00  0.00    +0.000 N 
BRANCH  14  15
ATOM     15  C   UNL     1       5.978   6.491  17.595  0.00  0.00    +0.000 A 
ATOM     16  C   UNL     1       6.156   5.539  18.617  0.00  0.00    +0.000 A 
ATOM     17  C   UNL     1       7.288   5.522  19.440  0.00  0.00    +0.000 A 
ATOM     18  C   UNL     1       8.289   6.467  19.266  0.00  0.00    +0.000 A 
ATOM     19  C   UNL     1       8.150   7.427  18.273  0.00  0.00    +0.000 A 
ATOM     20  C   UNL     1       7.013   7.435  17.453  0.00  0.00    +0.000 A 
ENDBRANCH  14  15
ENDBRANCH  12  14
ENDBRANCH   1  12
BRANCH   9  21
ATOM     21  C   UNL     1       2.532   5.863  20.233  0.00  0.00    +0.000 C 
BRANCH  21  22
ATOM     22  C   UNL     1       1.208   5.195  20.614  0.00  0.00    +0.000 C 
BRANCH  22  23
ATOM     23  C   UNL     1       1.056   3.755  20.068  0.00  0.00    +0.000 C 
ATOM     24  C   UNL     1       2.033   3.409  18.927  0.00  0.00    +0.000 C 
ATOM     25  C   UNL     1       3.476   3.225  19.394  0.00  0.00    +0.000 C 
ATOM     26  C   UNL     1       3.579   2.209  20.526  0.00  0.00    +0.000 C 
ATOM     27  C   UNL     1       2.647   2.561  21.680  0.00  0.00    +0.000 C 
ATOM     28  C   UNL     1       1.204   2.718  21.200  0.00  0.00    +0.000 C 
ENDBRANCH  22  23
ENDBRANCH  21  22
ENDBRANCH   9  21
TORSDOF 7
ENDMDL
MODEL 7
REMARK VINA RESULT:      -7.9      0.915      1.076
REMARK  Name = 
REMARK  8 active torsions:
REMARK  status: ('A' for Active; 'I' for Inactive)
REMARK    1  A    between atoms: C_1  and  N_2
REMARK    2  A    between atoms: N_2  and  C_3
REMARK    3  A    between atoms: N_2  and  C_23
REMARK    4  A    between atoms: C_3  and  C_4
REMARK    5  A    between atoms: C_9  and  C_10
REMARK    6  A    between atoms: N_14  and  C_15
REMARK    7  A    between atoms: C_15  and  C_16
REMARK    8  A    between atoms: C_16  and  C_17
REMARK                            x       y       z     vdW  Elec       q    Type
REMARK                         _______ _______ _______ _____ _____    ______ ____
ROOT
ATOM      1  C   UNL     1       2.659   6.830  18.239  0.00  0.00    +0.000 A 
ATOM      2  C   UNL     1       2.304   8.109  17.842  0.00  0.00    +0.000 A 
ATOM      3  C   UNL     1       1.745   8.772  18.954  0.00  0.00    +0.000 A 
ATOM      4  C   UNL     1       1.245  10.047  19.211  0.00  0.00    +0.000 A 
ATOM      5  N   UNL     1       0.764  10.342  20.435  0.00  0.00    +0.000 NA
ATOM      6  C   UNL     1       0.794   9.367  21.376  0.00  0.00    +0.000 A 
ATOM      7  N   UNL     1       1.263   8.106  21.247  0.00  0.00    +0.000 NA
ATOM      8  C   UNL     1       1.730   7.867  20.009  0.00  0.00    +0.000 A 
ATOM      9  N   UNL     1       2.277   6.684  19.563  0.00  0.00    +0.000 N 
ENDROOT
BRANCH   6  10
ATOM     10  C   UNL     1       0.250   9.715  22.664  0.00  0.00    +0.000 C 
ATOM     11  N   UNL     1      -0.188   9.994  23.704  0.00  0.00    +0.000 NA
ENDBRANCH   6  10
BRANCH   1  12
ATOM     12  C   UNL     1       3.364   5.779  17.436  0.00  0.00    +0.000 C 
BRANCH  12  14
ATOM     13  C   UNL     1       4.817   6.772  15.593  0.00  0.00    +0.000 C 
ATOM     14  N   UNL     1       4.685   6.118  16.893  0.00  0.00    +0.000 N 
BRANCH  14  15
ATOM     15  C   UNL     1       5.840   5.678  17.550  0.00  0.00    +0.000 A 
ATOM     16  C   UNL     1       6.776   4.831  16.927  0.00  0.00    +0.000 A 
ATOM     17  C   UNL     1       7.946   4.404  17.564  0.00  0.00    +0.000 A 
ATOM     18  C   UNL     1       8.220   4.813  18.862  0.00  0.00    +0.000 A 
ATOM     19  C   UNL     1       7.321   5.644  19.515  0.00  0.00    +0.000 A 
ATOM     20  C   UNL     1       6.152   6.067  18.867  0.00  0.00    +0.000 A 
ENDBRANCH  14  15
ENDBRANCH  12  14
ENDBRANCH   1  12
BRANCH   9  21
ATOM     21  C   UNL     1       2.367   5.467  20.359  0.00  0.00    +0.000 C 
BRANCH  21  22
ATOM     22  C   UNL     1       1.200   4.498  20.151  0.00  0.00    +0.000 C 
BRANCH  22  23
ATOM     23  C   UNL     1       1.568   3.015  20.399  0.00  0.00    +0.000 C 
ATOM     24  C   UNL     1       1.266   2.085  19.207  0.00  0.00    +0.000 C 
ATOM     25  C   UNL     1       2.225   2.268  18.032  0.00  0.00    +0.000 C 
ATOM     26  C   UNL     1       3.682   2.142  18.467  0.00  0.00    +0.000 C 
ATOM     27  C   UNL     1       4.006   3.086  19.619  0.00  0.00    +0.000 C 
ATOM     28  C   UNL     1       3.051   2.874  20.795  0.00  0.00    +0.000 C 
ENDBRANCH  22  23
ENDBRANCH  21  22
ENDBRANCH   9  21
TORSDOF 7
ENDMDL
MODEL 8
REMARK VINA RESULT:      -7.8      1.381      2.199
REMARK  Name = 
REMARK  8 active torsions:
REMARK  status: ('A' for Active; 'I' for Inactive)
REMARK    1  A    between atoms: C_1  and  N_2
REMARK    2  A    between atoms: N_2  and  C_3
REMARK    3  A    between atoms: N_2  and  C_23
REMARK    4  A    between atoms: C_3  and  C_4
REMARK    5  A    between atoms: C_9  and  C_10
REMARK    6  A    between atoms: N_14  and  C_15
REMARK    7  A    between atoms: C_15  and  C_16
REMARK    8  A    between atoms: C_16  and  C_17
REMARK                            x       y       z     vdW  Elec       q    Type
REMARK                         _______ _______ _______ _____ _____    ______ ____
ROOT
ATOM      1  C   UNL     1       2.854   6.645  18.404  0.00  0.00    +0.000 A 
ATOM      2  C   UNL     1       2.990   7.764  17.599  0.00  0.00    +0.000 A 
ATOM      3  C   UNL     1       2.318   8.835  18.224  0.00  0.00    +0.000 A 
ATOM      4  C   UNL     1       2.123  10.187  17.951  0.00  0.00    +0.000 A 
ATOM      5  N   UNL     1       1.390  10.941  18.796  0.00  0.00    +0.000 NA
ATOM      6  C   UNL     1       0.873  10.335  19.893  0.00  0.00    +0.000 A 
ATOM      7  N   UNL     1       1.004   9.042  20.265  0.00  0.00    +0.000 NA
ATOM      8  C   UNL     1       1.743   8.339  19.388  0.00  0.00    +0.000 A 
ATOM      9  N   UNL     1       2.064   7.003  19.485  0.00  0.00    +0.000 N 
ENDROOT
BRANCH   6  10
ATOM     10  C   UNL     1       0.077  11.168  20.759  0.00  0.00    +0.000 C 
ATOM     11  N   UNL     1      -0.563  11.840  21.458  0.00  0.00    +0.000 NA
ENDBRANCH   6  10
BRANCH   1  12
ATOM     12  C   UNL     1       3.462   5.289  18.208  0.00  0.00    +0.000 C 
BRANCH  12  14
ATOM     13  C   UNL     1       5.779   5.511  19.245  0.00  0.00    +0.000 C 
ATOM     14  N   UNL     1       4.923   5.215  18.098  0.00  0.00    +0.000 N 
BRANCH  14  15
ATOM     15  C   UNL     1       5.516   5.006  16.847  0.00  0.00    +0.000 A 
ATOM     16  C   UNL     1       6.843   5.390  16.578  0.00  0.00    +0.000 A 
ATOM     17  C   UNL     1       7.455   5.166  15.339  0.00  0.00    +0.000 A 
ATOM     18  C   UNL     1       6.750   4.543  14.318  0.00  0.00    +0.000 A 
ATOM     19  C   UNL     1       5.437   4.153  14.541  0.00  0.00    +0.000 A 
ATOM     20  C   UNL     1       4.834   4.381  15.785  0.00  0.00    +0.000 A 
ENDBRANCH  14  15
ENDBRANCH  12  14
ENDBRANCH   1  12
BRANCH   9  21
ATOM     21  C   UNL     1       1.580   6.115  20.535  0.00  0.00    +0.000 C 
BRANCH  21  22
ATOM     22  C   UNL     1       2.568   5.010  20.921  0.00  0.00    +0.000 C 
BRANCH  22  23
ATOM     23  C   UNL     1       1.895   3.651  21.228  0.00  0.00    +0.000 C 
ATOM     24  C   UNL     1       0.700   3.319  20.312  0.00  0.00    +0.000 C 
ATOM     25  C   UNL     1       1.110   2.947  18.888  0.00  0.00    +0.000 C 
ATOM     26  C   UNL     1       2.139   1.822  18.871  0.00  0.00    +0.000 C 
ATOM     27  C   UNL     1       3.345   2.153  19.743  0.00  0.00    +0.000 C 
ATOM     28  C   UNL     1       2.920   2.501  21.170  0.00  0.00    +0.000 C 
ENDBRANCH  22  23
ENDBRANCH  21  22
ENDBRANCH   9  21
TORSDOF 7
ENDMDL
MODEL 9
REMARK VINA RESULT:      -7.7      2.772      6.533
REMARK  Name = 
REMARK  8 active torsions:
REMARK  status: ('A' for Active; 'I' for Inactive)
REMARK    1  A    between atoms: C_1  and  N_2
REMARK    2  A    between atoms: N_2  and  C_3
REMARK    3  A    between atoms: N_2  and  C_23
REMARK    4  A    between atoms: C_3  and  C_4
REMARK    5  A    between atoms: C_9  and  C_10
REMARK    6  A    between atoms: N_14  and  C_15
REMARK    7  A    between atoms: C_15  and  C_16
REMARK    8  A    between atoms: C_16  and  C_17
REMARK                            x       y       z     vdW  Elec       q    Type
REMARK                         _______ _______ _______ _____ _____    ______ ____
ROOT
ATOM      1  C   UNL     1       1.621   8.321  19.661  0.00  0.00    +0.000 A 
ATOM      2  C   UNL     1       1.789   8.065  21.012  0.00  0.00    +0.000 A 
ATOM      3  C   UNL     1       0.985   8.974  21.732  0.00  0.00    +0.000 A 
ATOM      4  C   UNL     1       0.692   9.203  23.074  0.00  0.00    +0.000 A 
ATOM      5  N   UNL     1      -0.146  10.203  23.415  0.00  0.00    +0.000 NA
ATOM      6  C   UNL     1      -0.675  10.948  22.414  0.00  0.00    +0.000 A 
ATOM      7  N   UNL     1      -0.475  10.813  21.085  0.00  0.00    +0.000 NA
ATOM      8  C   UNL     1       0.367   9.803  20.803  0.00  0.00    +0.000 A 
ATOM      9  N   UNL     1       0.767   9.407  19.546  0.00  0.00    +0.000 N 
ENDROOT
BRANCH   6  10
ATOM     10  C   UNL     1      -1.548  12.021  22.821  0.00  0.00    +0.000 C 
ATOM     11  N   UNL     1      -2.253  12.886  23.147  0.00  0.00    +0.000 NA
ENDBRANCH   6  10
BRANCH   1  12
ATOM     12  C   UNL     1       2.199   7.568  18.501  0.00  0.00    +0.000 C 
BRANCH  12  14
ATOM     13  C   UNL     1       4.395   6.285  18.656  0.00  0.00    +0.000 C 
ATOM     14  N   UNL     1       2.942   6.338  18.800  0.00  0.00    +0.000 N 
BRANCH  14  15
ATOM     15  C   UNL     1       2.246   5.156  19.080  0.00  0.00    +0.000 A 
ATOM     16  C   UNL     1       1.931   4.771  20.396  0.00  0.00    +0.000 A 
ATOM     17  C   UNL     1       1.215   3.605  20.689  0.00  0.00    +0.000 A 
ATOM     18  C   UNL     1       0.788   2.775  19.661  0.00  0.00    +0.000 A 
ATOM     19  C   UNL     1       1.082   3.116  18.348  0.00  0.00    +0.000 A 
ATOM     20  C   UNL     1       1.799   4.287  18.066  0.00  0.00    +0.000 A 
ENDBRANCH  14  15
ENDBRANCH  12  14
ENDBRANCH   1  12
BRANCH   9  21
ATOM     21  C   UNL     1       0.389  10.083  18.311  0.00  0.00    +0.000 C 
BRANCH  21  22
ATOM     22  C   UNL     1      -1.024   9.748  17.825  0.00  0.00    +0.000 C 
BRANCH  22  23
ATOM     23  C   UNL     1      -1.725  10.919  17.094  0.00  0.00    +0.000 C 
ATOM     24  C   UNL     1      -3.124  10.571  16.547  0.00  0.00    +0.000 C 
ATOM     25  C   UNL     1      -4.187  10.437  17.636  0.00  0.00    +0.000 C 
ATOM     26  C   UNL     1      -4.242  11.671  18.529  0.00  0.00    +0.000 C 
ATOM     27  C   UNL     1      -2.872  12.004  19.109  0.00  0.00    +0.000 C 
ATOM     28  C   UNL     1      -1.824  12.158  18.005  0.00  0.00    +0.000 C 
ENDBRANCH  22  23
ENDBRANCH  21  22
ENDBRANCH   9  21
TORSDOF 7
ENDMDL
