MODEL 1
REMARK VINA RESULT:      -8.6      0.000      0.000
REMARK  Name = 
REMARK  9 active torsions:
REMARK  status: ('A' for Active; 'I' for Inactive)
REMARK    1  A    between atoms: C_1  and  C_2
REMARK    2  A    between atoms: N_7  and  C_8
REMARK    3  A    between atoms: C_8  and  C_9
REMARK    4  A    between atoms: C_9  and  O_10
REMARK    5  A    between atoms: O_10  and  C_11
REMARK    6  A    between atoms: C_14  and  N_15
REMARK    7  A    between atoms: N_18  and  C_19
REMARK    8  A    between atoms: C_27  and  C_28
REMARK    9  A    between atoms: N_32  and  C_33
REMARK                            x       y       z     vdW  Elec       q    Type
REMARK                         _______ _______ _______ _____ _____    ______ ____
ROOT
ATOM      1  C   UNL     1       4.208   5.850  18.899  0.00  0.00    +0.000 A 
ATOM      2  C   UNL     1       3.246   6.371  19.773  0.00  0.00    +0.000 A 
ATOM      3  C   UNL     1       2.436   7.434  19.406  0.00  0.00    +0.000 A 
ATOM      4  C   UNL     1       2.574   8.058  18.172  0.00  0.00    +0.000 A 
ATOM      5  C   UNL     1       3.544   7.552  17.291  0.00  0.00    +0.000 A 
ATOM      6  C   UNL     1       4.393   6.454  17.630  0.00  0.00    +0.000 A 
ENDROOT
BRANCH   4   7
ATOM      7  N   UNL     1       1.788   9.177  17.783  0.00  0.00    +0.000 N 
ATOM      8  C   UNL     1       0.806   9.765  18.572  0.00  0.00    +0.000 C 
ATOM      9  O   UNL     1       0.507   9.418  19.702  0.00  0.00    +0.000 OA
ATOM     10  N   UNL     1       0.150  10.797  17.912  0.00  0.00    +0.000 N 
ATOM     11  H   UNL     1       2.052   9.651  16.936  0.00  0.00    +0.000 HD
ATOM     12  H   UNL     1       0.029  10.654  16.922  0.00  0.00    +0.000 HD
BRANCH  10  13
ATOM     13  C   UNL     1      -0.912  11.464  18.584  0.00  0.00    +0.000 A 
ATOM     14  C   UNL     1      -0.659  12.390  19.608  0.00  0.00    +0.000 A 
ATOM     15  C   UNL     1      -1.716  13.003  20.282  0.00  0.00    +0.000 A 
ATOM     16  C   UNL     1      -3.029  12.675  19.950  0.00  0.00    +0.000 A 
ATOM     17 CL   UNL     1      -4.337  13.417  20.787  0.00  0.00    +0.000 Cl
ATOM     18  C   UNL     1      -3.288  11.749  18.939  0.00  0.00    +0.000 A 
ATOM     19  C   UNL     1      -2.230  11.160  18.239  0.00  0.00    +0.000 A 
ENDBRANCH  10  13
ENDBRANCH   4   7
BRANCH   6  20
ATOM     20  C   UNL     1       5.426   6.085  16.624  0.00  0.00    +0.000 A 
ATOM     21  C   UNL     1       5.259   5.345  15.454  0.00  0.00    +0.000 A 
ATOM     22  C   UNL     1       6.519   5.209  14.872  0.00  0.00    +0.000 A 
ATOM     23  N   UNL     1       7.465   5.814  15.595  0.00  0.00    +0.000 NA
ATOM     24  N   UNL     1       6.788   6.342  16.638  0.00  0.00    +0.000 N 
ATOM     25  C   UNL     1       7.572   7.067  17.601  0.00  0.00    +0.000 C 
ENDBRANCH   6  20
BRANCH   1  26
ATOM     26  O   UNL     1       4.984   4.790  19.307  0.00  0.00    +0.000 OA
BRANCH  26  27
ATOM     27  C   UNL     1       4.573   3.485  18.839  0.00  0.00    +0.000 C 
BRANCH  27  28
ATOM     28  C   UNL     1       4.155   2.593  20.027  0.00  0.00    +0.000 C 
BRANCH  28  35
ATOM     29  C   UNL     1       0.817   1.495  18.555  0.00  0.00    +0.000 C 
ATOM     30  C   UNL     1       1.988   2.454  18.824  0.00  0.00    +0.000 C 
ATOM     31  C   UNL     1       1.497   3.900  19.019  0.00  0.00    +0.000 C 
ATOM     32  C   UNL     1       0.757   4.087  20.339  0.00  0.00    +0.000 C 
ATOM     33  C   UNL     1       1.584   3.563  21.507  0.00  0.00    +0.000 C 
ATOM     34  C   UNL     1       2.102   2.145  21.247  0.00  0.00    +0.000 C 
ATOM     35  N   UNL     1       2.810   1.982  19.958  0.00  0.00    +0.000 NA
ENDBRANCH  28  35
ENDBRANCH  27  28
ENDBRANCH  26  27
ENDBRANCH   1  26
TORSDOF 7
ENDMDL
MODEL 2
REMARK VINA RESULT:      -8.6      4.186     10.136
REMARK  Name = 
REMARK  9 active torsions:
REMARK  status: ('A' for Active; 'I' for Inactive)
REMARK    1  A    between atoms: C_1  and  C_2
REMARK    2  A    between atoms: N_7  and  C_8
REMARK    3  A    between atoms: C_8  and  C_9
REMARK    4  A    between atoms: C_9  and  O_10
REMARK    5  A    between atoms: O_10  and  C_11
REMARK    6  A    between atoms: C_14  and  N_15
REMARK    7  A    between atoms: N_18  and  C_19
REMARK    8  A    between atoms: C_27  and  C_28
REMARK    9  A    between atoms: N_32  and  C_33
REMARK                            x       y       z     vdW  Elec       q    Type
REMARK                         _______ _______ _______ _____ _____    ______ ____
ROOT
ATOM      1  C   UNL     1      -0.666  10.920  21.445  0.00  0.00    +0.000 A 
ATOM      2  C   UNL     1      -0.028  10.368  22.562  0.00  0.00    +0.000 A 
ATOM      3  C   UNL     1       0.740   9.219  22.462  0.00  0.00    +0.000 A 
ATOM      4  C   UNL     1       0.873   8.539  21.257  0.00  0.00    +0.000 A 
ATOM      5  C   UNL     1       0.227   9.077  20.132  0.00  0.00    +0.000 A 
ATOM      6  C   UNL     1      -0.568  10.262  20.194  0.00  0.00    +0.000 A 
ENDROOT
BRANCH   4   7
ATOM      7  N   UNL     1       1.618   7.335  21.131  0.00  0.00    +0.000 N 
ATOM      8  C   UNL     1       2.363   6.981  20.012  0.00  0.00    +0.000 C 
ATOM      9  O   UNL     1       2.496   7.660  19.009  0.00  0.00    +0.000 OA
ATOM     10  N   UNL     1       2.930   5.719  20.136  0.00  0.00    +0.000 N 
ATOM     11  H   UNL     1       1.715   6.767  21.955  0.00  0.00    +0.000 HD
ATOM     12  H   UNL     1       2.367   5.051  20.639  0.00  0.00    +0.000 HD
BRANCH  10  13
ATOM     13  C   UNL     1       3.688   5.205  19.046  0.00  0.00    +0.000 A 
ATOM     14  C   UNL     1       5.057   5.483  18.916  0.00  0.00    +0.000 A 
ATOM     15  C   UNL     1       5.773   5.004  17.817  0.00  0.00    +0.000 A 
ATOM     16  C   UNL     1       5.116   4.265  16.836  0.00  0.00    +0.000 A 
ATOM     17 CL   UNL     1       5.990   3.683  15.472  0.00  0.00    +0.000 Cl
ATOM     18  C   UNL     1       3.754   3.992  16.954  0.00  0.00    +0.000 A 
ATOM     19  C   UNL     1       3.042   4.443  18.071  0.00  0.00    +0.000 A 
ENDBRANCH  10  13
ENDBRANCH   4   7
BRANCH   6  20
ATOM     20  C   UNL     1      -1.254  10.661  18.935  0.00  0.00    +0.000 A 
ATOM     21  C   UNL     1      -2.154   9.916  18.174  0.00  0.00    +0.000 A 
ATOM     22  C   UNL     1      -2.480  10.684  17.057  0.00  0.00    +0.000 A 
ATOM     23  N   UNL     1      -1.849  11.861  17.064  0.00  0.00    +0.000 NA
ATOM     24  N   UNL     1      -1.124  11.832  18.205  0.00  0.00    +0.000 N 
ATOM     25  C   UNL     1      -0.327  12.997  18.479  0.00  0.00    +0.000 C 
ENDBRANCH   6  20
BRANCH   1  26
ATOM     26  O   UNL     1      -1.413  12.065  21.595  0.00  0.00    +0.000 OA
BRANCH  26  27
ATOM     27  C   UNL     1      -2.287  12.106  22.747  0.00  0.00    +0.000 C 
BRANCH  27  28
ATOM     28  C   UNL     1      -3.704  12.555  22.332  0.00  0.00    +0.000 C 
BRANCH  28  35
ATOM     29  C   UNL     1      -7.132  12.755  23.982  0.00  0.00    +0.000 C 
ATOM     30  C   UNL     1      -6.042  13.108  22.957  0.00  0.00    +0.000 C 
ATOM     31  C   UNL     1      -6.043  14.611  22.630  0.00  0.00    +0.000 C 
ATOM     32  C   UNL     1      -5.528  15.456  23.791  0.00  0.00    +0.000 C 
ATOM     33  C   UNL     1      -4.181  14.941  24.285  0.00  0.00    +0.000 C 
ATOM     34  C   UNL     1      -4.208  13.431  24.541  0.00  0.00    +0.000 C 
ATOM     35  N   UNL     1      -4.718  12.630  23.406  0.00  0.00    +0.000 NA
ENDBRANCH  28  35
ENDBRANCH  27  28
ENDBRANCH  26  27
ENDBRANCH   1  26
TORSDOF 7
ENDMDL
MODEL 3
REMARK VINA RESULT:      -8.5      4.042     10.088
REMARK  Name = 
REMARK  9 active torsions:
REMARK  status: ('A' for Active; 'I' for Inactive)
REMARK    1  A    between atoms: C_1  and  C_2
REMARK    2  A    between atoms: N_7  and  C_8
REMARK    3  A    between atoms: C_8  and  C_9
REMARK    4  A    between atoms: C_9  and  O_10
REMARK    5  A    between atoms: O_10  and  C_11
REMARK    6  A    between atoms: C_14  and  N_15
REMARK    7  A    between atoms: N_18  and  C_19
REMARK    8  A    between atoms: C_27  and  C_28
REMARK    9  A    between atoms: N_32  and  C_33
REMARK                            x       y       z     vdW  Elec       q    Type
REMARK                         _______ _______ _______ _____ _____    ______ ____
ROOT
ATOM      1  C   UNL     1      -0.771  10.902  21.502  0.00  0.00    +0.000 A 
ATOM      2  C   UNL     1      -0.117  10.341  22.606  0.00  0.00    +0.000 A 
ATOM      3  C   UNL     1       0.726   9.250  22.470  0.00  0.00    +0.000 A 
ATOM      4  C   UNL     1       0.923   8.635  21.238  0.00  0.00    +0.000 A 
ATOM      5  C   UNL     1       0.262   9.181  20.125  0.00  0.00    +0.000 A 
ATOM      6  C   UNL     1      -0.609  10.309  20.225  0.00  0.00    +0.000 A 
ENDROOT
BRANCH   4   7
ATOM      7  N   UNL     1       1.746   7.488  21.073  0.00  0.00    +0.000 N 
ATOM      8  C   UNL     1       2.368   7.127  19.883  0.00  0.00    +0.000 C 
ATOM      9  O   UNL     1       2.311   7.753  18.839  0.00  0.00    +0.000 OA
ATOM     10  N   UNL     1       3.053   5.924  19.992  0.00  0.00    +0.000 N 
ATOM     11  H   UNL     1       1.998   6.981  21.904  0.00  0.00    +0.000 HD
ATOM     12  H   UNL     1       2.620   5.246  20.599  0.00  0.00    +0.000 HD
BRANCH  10  13
ATOM     13  C   UNL     1       3.705   5.407  18.838  0.00  0.00    +0.000 A 
ATOM     14  C   UNL     1       3.141   4.363  18.088  0.00  0.00    +0.000 A 
ATOM     15  C   UNL     1       3.817   3.842  16.984  0.00  0.00    +0.000 A 
ATOM     16  C   UNL     1       5.068   4.348  16.640  0.00  0.00    +0.000 A 
ATOM     17 CL   UNL     1       5.913   3.701  15.287  0.00  0.00    +0.000 Cl
ATOM     18  C   UNL     1       5.640   5.379  17.385  0.00  0.00    +0.000 A 
ATOM     19  C   UNL     1       4.948   5.925  18.472  0.00  0.00    +0.000 A 
ENDBRANCH  10  13
ENDBRANCH   4   7
BRANCH   6  20
ATOM     20  C   UNL     1      -1.299  10.721  18.972  0.00  0.00    +0.000 A 
ATOM     21  C   UNL     1      -2.232   9.999  18.228  0.00  0.00    +0.000 A 
ATOM     22  C   UNL     1      -2.547  10.769  17.109  0.00  0.00    +0.000 A 
ATOM     23  N   UNL     1      -1.880  11.925  17.100  0.00  0.00    +0.000 NA
ATOM     24  N   UNL     1      -1.141  11.882  18.231  0.00  0.00    +0.000 N 
ATOM     25  C   UNL     1      -0.305  13.023  18.486  0.00  0.00    +0.000 C 
ENDBRANCH   6  20
BRANCH   1  26
ATOM     26  O   UNL     1      -1.593  11.989  21.688  0.00  0.00    +0.000 OA
BRANCH  26  27
ATOM     27  C   UNL     1      -1.874  12.343  23.062  0.00  0.00    +0.000 C 
BRANCH  27  28
ATOM     28  C   UNL     1      -3.393  12.299  23.329  0.00  0.00    +0.000 C 
BRANCH  28  35
ATOM     29  C   UNL     1      -5.777  15.252  23.677  0.00  0.00    +0.000 C 
ATOM     30  C   UNL     1      -5.299  13.801  23.855  0.00  0.00    +0.000 C 
ATOM     31  C   UNL     1      -6.459  12.803  23.694  0.00  0.00    +0.000 C 
ATOM     32  C   UNL     1      -6.936  12.698  22.249  0.00  0.00    +0.000 C 
ATOM     33  C   UNL     1      -5.767  12.429  21.308  0.00  0.00    +0.000 C 
ATOM     34  C   UNL     1      -4.611  13.407  21.543  0.00  0.00    +0.000 C 
ATOM     35  N   UNL     1      -4.169  13.501  22.951  0.00  0.00    +0.000 NA
ENDBRANCH  28  35
ENDBRANCH  27  28
ENDBRANCH  26  27
ENDBRANCH   1  26
TORSDOF 7
ENDMDL
MODEL 4
REMARK VINA RESULT:      -8.5      3.939      9.955
REMARK  Name = 
REMARK  9 active torsions:
REMARK  status: ('A' for Active; 'I' for Inactive)
REMARK    1  A    between atoms: C_1  and  C_2
REMARK    2  A    between atoms: N_7  and  C_8
REMARK    3  A    between atoms: C_8  and  C_9
REMARK    4  A    between atoms: C_9  and  O_10
REMARK    5  A    between atoms: O_10  and  C_11
REMARK    6  A    between atoms: C_14  and  N_15
REMARK    7  A    between atoms: N_18  and  C_19
REMARK    8  A    between atoms: C_27  and  C_28
REMARK    9  A    between atoms: N_32  and  C_33
REMARK                            x       y       z     vdW  Elec       q    Type
REMARK                         _______ _______ _______ _____ _____    ______ ____
ROOT
ATOM      1  C   UNL     1      -0.820  10.809  21.499  0.00  0.00    +0.000 A 
ATOM      2  C   UNL     1      -0.179  10.239  22.605  0.00  0.00    +0.000 A 
ATOM      3  C   UNL     1       0.710   9.186  22.463  0.00  0.00    +0.000 A 
ATOM      4  C   UNL     1       0.969   8.618  21.220  0.00  0.00    +0.000 A 
ATOM      5  C   UNL     1       0.322   9.174  20.104  0.00  0.00    +0.000 A 
ATOM      6  C   UNL     1      -0.596  10.264  20.210  0.00  0.00    +0.000 A 
ENDROOT
BRANCH   4   7
ATOM      7  N   UNL     1       1.841   7.510  21.046  0.00  0.00    +0.000 N 
ATOM      8  C   UNL     1       2.432   7.151  19.840  0.00  0.00    +0.000 C 
ATOM      9  O   UNL     1       2.301   7.748  18.785  0.00  0.00    +0.000 OA
ATOM     10  N   UNL     1       3.180   5.986  19.947  0.00  0.00    +0.000 N 
ATOM     11  H   UNL     1       2.151   7.036  21.877  0.00  0.00    +0.000 HD
ATOM     12  H   UNL     1       2.806   5.302  20.586  0.00  0.00    +0.000 HD
BRANCH  10  13
ATOM     13  C   UNL     1       3.810   5.474  18.778  0.00  0.00    +0.000 A 
ATOM     14  C   UNL     1       4.996   6.038  18.283  0.00  0.00    +0.000 A 
ATOM     15  C   UNL     1       5.575   5.547  17.111  0.00  0.00    +0.000 A 
ATOM     16  C   UNL     1       4.958   4.506  16.421  0.00  0.00    +0.000 A 
ATOM     17 CL   UNL     1       5.659   3.906  14.969  0.00  0.00    +0.000 Cl
ATOM     18  C   UNL     1       3.775   3.946  16.903  0.00  0.00    +0.000 A 
ATOM     19  C   UNL     1       3.211   4.414  18.095  0.00  0.00    +0.000 A 
ENDBRANCH  10  13
ENDBRANCH   4   7
BRANCH   6  20
ATOM     20  C   UNL     1      -1.263  10.689  18.949  0.00  0.00    +0.000 A 
ATOM     21  C   UNL     1      -2.091   9.934  18.119  0.00  0.00    +0.000 A 
ATOM     22  C   UNL     1      -2.424  10.740  17.031  0.00  0.00    +0.000 A 
ATOM     23  N   UNL     1      -1.864  11.949  17.120  0.00  0.00    +0.000 NA
ATOM     24  N   UNL     1      -1.177  11.902  18.283  0.00  0.00    +0.000 N 
ATOM     25  C   UNL     1      -0.460  13.094  18.644  0.00  0.00    +0.000 C 
ENDBRANCH   6  20
BRANCH   1  26
ATOM     26  O   UNL     1      -1.690  11.857  21.691  0.00  0.00    +0.000 OA
BRANCH  26  27
ATOM     27  C   UNL     1      -2.103  12.095  23.057  0.00  0.00    +0.000 C 
BRANCH  27  28
ATOM     28  C   UNL     1      -3.279  13.094  23.097  0.00  0.00    +0.000 C 
BRANCH  28  35
ATOM     29  C   UNL     1      -6.119  12.065  20.776  0.00  0.00    +0.000 C 
ATOM     30  C   UNL     1      -4.984  12.961  21.298  0.00  0.00    +0.000 C 
ATOM     31  C   UNL     1      -5.344  14.452  21.180  0.00  0.00    +0.000 C 
ATOM     32  C   UNL     1      -6.422  14.867  22.176  0.00  0.00    +0.000 C 
ATOM     33  C   UNL     1      -6.050  14.441  23.592  0.00  0.00    +0.000 C 
ATOM     34  C   UNL     1      -5.640  12.966  23.653  0.00  0.00    +0.000 C 
ATOM     35  N   UNL     1      -4.600  12.581  22.674  0.00  0.00    +0.000 NA
ENDBRANCH  28  35
ENDBRANCH  27  28
ENDBRANCH  26  27
ENDBRANCH   1  26
TORSDOF 7
ENDMDL
MODEL 5
REMARK VINA RESULT:      -8.4      4.167     10.150
REMARK  Name = 
REMARK  9 active torsions:
REMARK  status: ('A' for Active; 'I' for Inactive)
REMARK    1  A    between atoms: C_1  and  C_2
REMARK    2  A    between atoms: N_7  and  C_8
REMARK    3  A    between atoms: C_8  and  C_9
REMARK    4  A    between atoms: C_9  and  O_10
REMARK    5  A    between atoms: O_10  and  C_11
REMARK    6  A    between atoms: C_14  and  N_15
REMARK    7  A    between atoms: N_18  and  C_19
REMARK    8  A    between atoms: C_27  and  C_28
REMARK    9  A    between atoms: N_32  and  C_33
REMARK                            x       y       z     vdW  Elec       q    Type
REMARK                         _______ _______ _______ _____ _____    ______ ____
ROOT
ATOM      1  C   UNL     1      -0.888  11.132  22.074  0.00  0.00    +0.000 A 
ATOM      2  C   UNL     1      -0.508  10.360  23.178  0.00  0.00    +0.000 A 
ATOM      3  C   UNL     1       0.224   9.193  23.027  0.00  0.00    +0.000 A 
ATOM      4  C   UNL     1       0.573   8.714  21.769  0.00  0.00    +0.000 A 
ATOM      5  C   UNL     1       0.186   9.474  20.653  0.00  0.00    +0.000 A 
ATOM      6  C   UNL     1      -0.563  10.685  20.769  0.00  0.00    +0.000 A 
ENDROOT
BRANCH   4   7
ATOM      7  N   UNL     1       1.285   7.499  21.578  0.00  0.00    +0.000 N 
ATOM      8  C   UNL     1       1.996   7.172  20.429  0.00  0.00    +0.000 C 
ATOM      9  O   UNL     1       2.123   7.888  19.450  0.00  0.00    +0.000 OA
ATOM     10  N   UNL     1       2.535   5.893  20.490  0.00  0.00    +0.000 N 
ATOM     11  H   UNL     1       1.388   6.897  22.377  0.00  0.00    +0.000 HD
ATOM     12  H   UNL     1       1.968   5.220  20.980  0.00  0.00    +0.000 HD
BRANCH  10  13
ATOM     13  C   UNL     1       3.255   5.406  19.364  0.00  0.00    +0.000 A 
ATOM     14  C   UNL     1       2.603   4.740  18.315  0.00  0.00    +0.000 A 
ATOM     15  C   UNL     1       3.334   4.232  17.240  0.00  0.00    +0.000 A 
ATOM     16  C   UNL     1       4.720   4.370  17.221  0.00  0.00    +0.000 A 
ATOM     17 CL   UNL     1       5.628   3.734  15.905  0.00  0.00    +0.000 Cl
ATOM     18  C   UNL     1       5.376   5.023  18.265  0.00  0.00    +0.000 A 
ATOM     19  C   UNL     1       4.642   5.561  19.327  0.00  0.00    +0.000 A 
ENDBRANCH  10  13
ENDBRANCH   4   7
BRANCH   6  20
ATOM     20  C   UNL     1      -0.967  11.334  19.492  0.00  0.00    +0.000 A 
ATOM     21  C   UNL     1      -1.884  10.874  18.548  0.00  0.00    +0.000 A 
ATOM     22  C   UNL     1      -1.883  11.790  17.496  0.00  0.00    +0.000 A 
ATOM     23  N   UNL     1      -1.032  12.795  17.716  0.00  0.00    +0.000 NA
ATOM     24  N   UNL     1      -0.497  12.508  18.924  0.00  0.00    +0.000 N 
ATOM     25  C   UNL     1       0.474  13.442  19.425  0.00  0.00    +0.000 C 
ENDBRANCH   6  20
BRANCH   1  26
ATOM     26  O   UNL     1      -1.610  12.286  22.277  0.00  0.00    +0.000 OA
BRANCH  26  27
ATOM     27  C   UNL     1      -2.866  12.133  22.978  0.00  0.00    +0.000 C 
BRANCH  27  28
ATOM     28  C   UNL     1      -4.011  12.790  22.179  0.00  0.00    +0.000 C 
BRANCH  28  35
ATOM     29  C   UNL     1      -7.661  11.798  21.716  0.00  0.00    +0.000 C 
ATOM     30  C   UNL     1      -6.384  12.617  21.469  0.00  0.00    +0.000 C 
ATOM     31  C   UNL     1      -6.702  14.111  21.282  0.00  0.00    +0.000 C 
ATOM     32  C   UNL     1      -7.136  14.777  22.584  0.00  0.00    +0.000 C 
ATOM     33  C   UNL     1      -6.132  14.503  23.698  0.00  0.00    +0.000 C 
ATOM     34  C   UNL     1      -5.799  13.011  23.809  0.00  0.00    +0.000 C 
ATOM     35  N   UNL     1      -5.388  12.382  22.535  0.00  0.00    +0.000 NA
ENDBRANCH  28  35
ENDBRANCH  27  28
ENDBRANCH  26  27
ENDBRANCH   1  26
TORSDOF 7
ENDMDL
MODEL 6
REMARK VINA RESULT:      -8.4      0.807      1.005
REMARK  Name = 
REMARK  9 active torsions:
REMARK  status: ('A' for Active; 'I' for Inactive)
REMARK    1  A    between atoms: C_1  and  C_2
REMARK    2  A    between atoms: N_7  and  C_8
REMARK    3  A    between atoms: C_8  and  C_9
REMARK    4  A    between atoms: C_9  and  O_10
REMARK    5  A    between atoms: O_10  and  C_11
REMARK    6  A    between atoms: C_14  and  N_15
REMARK    7  A    between atoms: N_18  and  C_19
REMARK    8  A    between atoms: C_27  and  C_28
REMARK    9  A    between atoms: N_32  and  C_33
REMARK                            x       y       z     vdW  Elec       q    Type
REMARK                         _______ _______ _______ _____ _____    ______ ____
ROOT
ATOM      1  C   UNL     1       4.308   5.851  19.000  0.00  0.00    +0.000 A 
ATOM      2  C   UNL     1       3.295   6.302  19.854  0.00  0.00    +0.000 A 
ATOM      3  C   UNL     1       2.371   7.249  19.443  0.00  0.00    +0.000 A 
ATOM      4  C   UNL     1       2.438   7.826  18.180  0.00  0.00    +0.000 A 
ATOM      5  C   UNL     1       3.458   7.390  17.319  0.00  0.00    +0.000 A 
ATOM      6  C   UNL     1       4.424   6.412  17.704  0.00  0.00    +0.000 A 
ENDROOT
BRANCH   4   7
ATOM      7  N   UNL     1       1.532   8.831  17.744  0.00  0.00    +0.000 N 
ATOM      8  C   UNL     1       1.020   9.839  18.553  0.00  0.00    +0.000 C 
ATOM      9  O   UNL     1       1.297  10.009  19.728  0.00  0.00    +0.000 OA
ATOM     10  N   UNL     1       0.104  10.638  17.882  0.00  0.00    +0.000 N 
ATOM     11  H   UNL     1       1.354   8.890  16.756  0.00  0.00    +0.000 HD
ATOM     12  H   UNL     1      -0.465  10.151  17.207  0.00  0.00    +0.000 HD
BRANCH  10  13
ATOM     13  C   UNL     1      -0.535  11.688  18.599  0.00  0.00    +0.000 A 
ATOM     14  C   UNL     1       0.035  12.967  18.680  0.00  0.00    +0.000 A 
ATOM     15  C   UNL     1      -0.587  13.972  19.423  0.00  0.00    +0.000 A 
ATOM     16  C   UNL     1      -1.769  13.692  20.106  0.00  0.00    +0.000 A 
ATOM     17 CL   UNL     1      -2.533  14.922  21.036  0.00  0.00    +0.000 Cl
ATOM     18  C   UNL     1      -2.337  12.420  20.038  0.00  0.00    +0.000 A 
ATOM     19  C   UNL     1      -1.733  11.422  19.266  0.00  0.00    +0.000 A 
ENDBRANCH  10  13
ENDBRANCH   4   7
BRANCH   6  20
ATOM     20  C   UNL     1       5.492   6.113  16.710  0.00  0.00    +0.000 A 
ATOM     21  C   UNL     1       5.382   5.385  15.526  0.00  0.00    +0.000 A 
ATOM     22  C   UNL     1       6.657   5.324  14.964  0.00  0.00    +0.000 A 
ATOM     23  N   UNL     1       7.559   5.964  15.712  0.00  0.00    +0.000 NA
ATOM     24  N   UNL     1       6.838   6.438  16.752  0.00  0.00    +0.000 N 
ATOM     25  C   UNL     1       7.568   7.187  17.739  0.00  0.00    +0.000 C 
ENDBRANCH   6  20
BRANCH   1  26
ATOM     26  O   UNL     1       5.199   4.905  19.453  0.00  0.00    +0.000 OA
BRANCH  26  27
ATOM     27  C   UNL     1       4.945   3.544  19.035  0.00  0.00    +0.000 C 
BRANCH  27  28
ATOM     28  C   UNL     1       3.622   3.461  18.245  0.00  0.00    +0.000 C 
BRANCH  28  35
ATOM     29  C   UNL     1       0.272   1.713  18.732  0.00  0.00    +0.000 C 
ATOM     30  C   UNL     1       1.246   2.902  18.696  0.00  0.00    +0.000 C 
ATOM     31  C   UNL     1       0.965   3.893  19.840  0.00  0.00    +0.000 C 
ATOM     32  C   UNL     1       1.360   3.331  21.202  0.00  0.00    +0.000 C 
ATOM     33  C   UNL     1       2.794   2.813  21.183  0.00  0.00    +0.000 C 
ATOM     34  C   UNL     1       3.046   1.878  19.995  0.00  0.00    +0.000 C 
ATOM     35  N   UNL     1       2.648   2.438  18.684  0.00  0.00    +0.000 NA
ENDBRANCH  28  35
ENDBRANCH  27  28
ENDBRANCH  26  27
ENDBRANCH   1  26
TORSDOF 7
ENDMDL
MODEL 7
REMARK VINA RESULT:      -8.3      3.905     10.186
REMARK  Name = 
REMARK  9 active torsions:
REMARK  status: ('A' for Active; 'I' for Inactive)
REMARK    1  A    between atoms: C_1  and  C_2
REMARK    2  A    between atoms: N_7  and  C_8
REMARK    3  A    between atoms: C_8  and  C_9
REMARK    4  A    between atoms: C_9  and  O_10
REMARK    5  A    between atoms: O_10  and  C_11
REMARK    6  A    between atoms: C_14  and  N_15
REMARK    7  A    between atoms: N_18  and  C_19
REMARK    8  A    between atoms: C_27  and  C_28
REMARK    9  A    between atoms: N_32  and  C_33
REMARK                            x       y       z     vdW  Elec       q    Type
REMARK                         _______ _______ _______ _____ _____    ______ ____
ROOT
ATOM      1  C   UNL     1      -0.402  12.902  19.595  0.00  0.00    +0.000 A 
ATOM      2  C   UNL     1       0.829  12.802  20.255  0.00  0.00    +0.000 A 
ATOM      3  C   UNL     1       1.319  11.580  20.690  0.00  0.00    +0.000 A 
ATOM      4  C   UNL     1       0.588  10.408  20.531  0.00  0.00    +0.000 A 
ATOM      5  C   UNL     1      -0.654  10.499  19.881  0.00  0.00    +0.000 A 
ATOM      6  C   UNL     1      -1.189  11.738  19.414  0.00  0.00    +0.000 A 
ENDROOT
BRANCH   4   7
ATOM      7  N   UNL     1       1.043   9.147  21.004  0.00  0.00    +0.000 N 
ATOM      8  C   UNL     1       1.467   8.104  20.189  0.00  0.00    +0.000 C 
ATOM      9  O   UNL     1       1.529   8.140  18.972  0.00  0.00    +0.000 OA
ATOM     10  N   UNL     1       1.789   6.966  20.917  0.00  0.00    +0.000 N 
ATOM     11  H   UNL     1       1.188   9.054  21.995  0.00  0.00    +0.000 HD
ATOM     12  H   UNL     1       1.218   6.812  21.733  0.00  0.00    +0.000 HD
BRANCH  10  13
ATOM     13  C   UNL     1       2.201   5.801  20.210  0.00  0.00    +0.000 A 
ATOM     14  C   UNL     1       1.386   4.661  20.149  0.00  0.00    +0.000 A 
ATOM     15  C   UNL     1       1.826   3.514  19.485  0.00  0.00    +0.000 A 
ATOM     16  C   UNL     1       3.091   3.498  18.902  0.00  0.00    +0.000 A 
ATOM     17 CL   UNL     1       3.645   2.083  18.094  0.00  0.00    +0.000 Cl
ATOM     18  C   UNL     1       3.910   4.625  18.966  0.00  0.00    +0.000 A 
ATOM     19  C   UNL     1       3.457   5.786  19.602  0.00  0.00    +0.000 A 
ENDBRANCH  10  13
ENDBRANCH   4   7
BRANCH   6  20
ATOM     20  C   UNL     1      -2.553  11.684  18.818  0.00  0.00    +0.000 A 
ATOM     21  C   UNL     1      -3.751  12.125  19.377  0.00  0.00    +0.000 A 
ATOM     22  C   UNL     1      -4.765  11.808  18.473  0.00  0.00    +0.000 A 
ATOM     23  N   UNL     1      -4.286  11.202  17.384  0.00  0.00    +0.000 NA
ATOM     24  N   UNL     1      -2.954  11.143  17.606  0.00  0.00    +0.000 N 
ATOM     25  C   UNL     1      -2.166  10.527  16.574  0.00  0.00    +0.000 C 
ENDBRANCH   6  20
BRANCH   1  26
ATOM     26  O   UNL     1      -0.843  14.137  19.178  0.00  0.00    +0.000 OA
BRANCH  26  27
ATOM     27  C   UNL     1      -1.038  15.124  20.216  0.00  0.00    +0.000 C 
BRANCH  27  28
ATOM     28  C   UNL     1      -2.428  14.954  20.865  0.00  0.00    +0.000 C 
BRANCH  28  35
ATOM     29  C   UNL     1      -1.298  14.832  24.502  0.00  0.00    +0.000 C 
ATOM     30  C   UNL     1      -1.449  14.325  23.058  0.00  0.00    +0.000 C 
ATOM     31  C   UNL     1      -1.691  12.807  23.018  0.00  0.00    +0.000 C 
ATOM     32  C   UNL     1      -3.079  12.428  23.525  0.00  0.00    +0.000 C 
ATOM     33  C   UNL     1      -4.158  13.236  22.813  0.00  0.00    +0.000 C 
ATOM     34  C   UNL     1      -3.847  14.736  22.825  0.00  0.00    +0.000 C 
ATOM     35  N   UNL     1      -2.494  15.082  22.338  0.00  0.00    +0.000 NA
ENDBRANCH  28  35
ENDBRANCH  27  28
ENDBRANCH  26  27
ENDBRANCH   1  26
TORSDOF 7
ENDMDL
MODEL 8
REMARK VINA RESULT:      -8.3      3.871      9.954
REMARK  Name = 
REMARK  9 active torsions:
REMARK  status: ('A' for Active; 'I' for Inactive)
REMARK    1  A    between atoms: C_1  and  C_2
REMARK    2  A    between atoms: N_7  and  C_8
REMARK    3  A    between atoms: C_8  and  C_9
REMARK    4  A    between atoms: C_9  and  O_10
REMARK    5  A    between atoms: O_10  and  C_11
REMARK    6  A    between atoms: C_14  and  N_15
REMARK    7  A    between atoms: N_18  and  C_19
REMARK    8  A    between atoms: C_27  and  C_28
REMARK    9  A    between atoms: N_32  and  C_33
REMARK                            x       y       z     vdW  Elec       q    Type
REMARK                         _______ _______ _______ _____ _____    ______ ____
ROOT
ATOM      1  C   UNL     1      -0.911  11.293  21.270  0.00  0.00    +0.000 A 
ATOM      2  C   UNL     1      -0.250  10.825  22.412  0.00  0.00    +0.000 A 
ATOM      3  C   UNL     1       0.528   9.679  22.379  0.00  0.00    +0.000 A 
ATOM      4  C   UNL     1       0.648   8.918  21.221  0.00  0.00    +0.000 A 
ATOM      5  C   UNL     1      -0.022   9.371  20.072  0.00  0.00    +0.000 A 
ATOM      6  C   UNL     1      -0.827  10.551  20.066  0.00  0.00    +0.000 A 
ENDROOT
BRANCH   4   7
ATOM      7  N   UNL     1       1.402   7.715  21.165  0.00  0.00    +0.000 N 
ATOM      8  C   UNL     1       2.132   7.290  20.060  0.00  0.00    +0.000 C 
ATOM      9  O   UNL     1       2.242   7.900  19.011  0.00  0.00    +0.000 OA
ATOM     10  N   UNL     1       2.714   6.045  20.261  0.00  0.00    +0.000 N 
ATOM     11  H   UNL     1       1.519   7.206  22.025  0.00  0.00    +0.000 HD
ATOM     12  H   UNL     1       2.166   5.409  20.819  0.00  0.00    +0.000 HD
BRANCH  10  13
ATOM     13  C   UNL     1       3.458   5.463  19.197  0.00  0.00    +0.000 A 
ATOM     14  C   UNL     1       2.823   4.749  18.170  0.00  0.00    +0.000 A 
ATOM     15  C   UNL     1       3.576   4.151  17.158  0.00  0.00    +0.000 A 
ATOM     16  C   UNL     1       4.965   4.247  17.183  0.00  0.00    +0.000 A 
ATOM     17 CL   UNL     1       5.899   3.500  15.946  0.00  0.00    +0.000 Cl
ATOM     18  C   UNL     1       5.604   4.948  18.206  0.00  0.00    +0.000 A 
ATOM     19  C   UNL     1       4.849   5.576  19.202  0.00  0.00    +0.000 A 
ENDBRANCH  10  13
ENDBRANCH   4   7
BRANCH   6  20
ATOM     20  C   UNL     1      -1.538  10.857  18.794  0.00  0.00    +0.000 A 
ATOM     21  C   UNL     1      -2.464  10.065  18.117  0.00  0.00    +0.000 A 
ATOM     22  C   UNL     1      -2.807  10.745  16.948  0.00  0.00    +0.000 A 
ATOM     23  N   UNL     1      -2.162  11.909  16.846  0.00  0.00    +0.000 NA
ATOM     24  N   UNL     1      -1.411  11.963  17.968  0.00  0.00    +0.000 N 
ATOM     25  C   UNL     1      -0.594  13.135  18.129  0.00  0.00    +0.000 C 
ENDBRANCH   6  20
BRANCH   1  26
ATOM     26  O   UNL     1      -1.667  12.440  21.353  0.00  0.00    +0.000 OA
BRANCH  26  27
ATOM     27  C   UNL     1      -3.066  12.255  21.671  0.00  0.00    +0.000 C 
BRANCH  27  28
ATOM     28  C   UNL     1      -3.955  12.870  20.569  0.00  0.00    +0.000 C 
BRANCH  28  35
ATOM     29  C   UNL     1      -6.516  11.296  18.229  0.00  0.00    +0.000 C 
ATOM     30  C   UNL     1      -5.621  12.415  18.787  0.00  0.00    +0.000 C 
ATOM     31  C   UNL     1      -6.338  13.776  18.757  0.00  0.00    +0.000 C 
ATOM     32  C   UNL     1      -7.459  13.862  19.788  0.00  0.00    +0.000 C 
ATOM     33  C   UNL     1      -6.957  13.468  21.173  0.00  0.00    +0.000 C 
ATOM     34  C   UNL     1      -6.198  12.138  21.146  0.00  0.00    +0.000 C 
ATOM     35  N   UNL     1      -5.121  12.071  20.134  0.00  0.00    +0.000 NA
ENDBRANCH  28  35
ENDBRANCH  27  28
ENDBRANCH  26  27
ENDBRANCH   1  26
TORSDOF 7
ENDMDL
MODEL 9
REMARK VINA RESULT:      -8.3      4.386     10.467
REMARK  Name = 
REMARK  9 active torsions:
REMARK  status: ('A' for Active; 'I' for Inactive)
REMARK    1  A    between atoms: C_1  and  C_2
REMARK    2  A    between atoms: N_7  and  C_8
REMARK    3  A    between atoms: C_8  and  C_9
REMARK    4  A    between atoms: C_9  and  O_10
REMARK    5  A    between atoms: O_10  and  C_11
REMARK    6  A    between atoms: C_14  and  N_15
REMARK    7  A    between atoms: N_18  and  C_19
REMARK    8  A    between atoms: C_27  and  C_28
REMARK    9  A    between atoms: N_32  and  C_33
REMARK                            x       y       z     vdW  Elec       q    Type
REMARK                         _______ _______ _______ _____ _____    ______ ____
ROOT
ATOM      1  C   UNL     1      -0.714  10.904  21.669  0.00  0.00    +0.000 A 
ATOM      2  C   UNL     1      -0.128  10.275  22.774  0.00  0.00    +0.000 A 
ATOM      3  C   UNL     1       0.664   9.147  22.629  0.00  0.00    +0.000 A 
ATOM      4  C   UNL     1       0.872   8.563  21.384  0.00  0.00    +0.000 A 
ATOM      5  C   UNL     1       0.279   9.179  20.270  0.00  0.00    +0.000 A 
ATOM      6  C   UNL     1      -0.538  10.346  20.379  0.00  0.00    +0.000 A 
ENDROOT
BRANCH   4   7
ATOM      7  N   UNL     1       1.642   7.382  21.207  0.00  0.00    +0.000 N 
ATOM      8  C   UNL     1       2.334   7.057  20.046  0.00  0.00    +0.000 C 
ATOM      9  O   UNL     1       2.393   7.747  19.043  0.00  0.00    +0.000 OA
ATOM     10  N   UNL     1       2.942   5.811  20.128  0.00  0.00    +0.000 N 
ATOM     11  H   UNL     1       1.800   6.811  22.020  0.00  0.00    +0.000 HD
ATOM     12  H   UNL     1       2.427   5.124  20.656  0.00  0.00    +0.000 HD
BRANCH  10  13
ATOM     13  C   UNL     1       3.653   5.326  18.995  0.00  0.00    +0.000 A 
ATOM     14  C   UNL     1       3.015   4.560  18.007  0.00  0.00    +0.000 A 
ATOM     15  C   UNL     1       3.740   4.059  16.925  0.00  0.00    +0.000 A 
ATOM     16  C   UNL     1       5.109   4.304  16.839  0.00  0.00    +0.000 A 
ATOM     17 CL   UNL     1       6.011   3.678  15.514  0.00  0.00    +0.000 Cl
ATOM     18  C   UNL     1       5.752   5.057  17.822  0.00  0.00    +0.000 A 
ATOM     19  C   UNL     1       5.020   5.588  18.889  0.00  0.00    +0.000 A 
ENDBRANCH  10  13
ENDBRANCH   4   7
BRANCH   6  20
ATOM     20  C   UNL     1      -1.162  10.833  19.118  0.00  0.00    +0.000 A 
ATOM     21  C   UNL     1      -2.108  10.187  18.324  0.00  0.00    +0.000 A 
ATOM     22  C   UNL     1      -2.344  11.007  17.220  0.00  0.00    +0.000 A 
ATOM     23  N   UNL     1      -1.614  12.123  17.268  0.00  0.00    +0.000 NA
ATOM     24  N   UNL     1      -0.917  12.005  18.420  0.00  0.00    +0.000 N 
ATOM     25  C   UNL     1      -0.027  13.089  18.737  0.00  0.00    +0.000 C 
ENDBRANCH   6  20
BRANCH   1  26
ATOM     26  O   UNL     1      -1.487  12.026  21.865  0.00  0.00    +0.000 OA
BRANCH  26  27
ATOM     27  C   UNL     1      -0.795  13.192  22.367  0.00  0.00    +0.000 C 
BRANCH  27  28
ATOM     28  C   UNL     1      -1.601  13.846  23.509  0.00  0.00    +0.000 C 
BRANCH  28  35
ATOM     29  C   UNL     1      -0.693  16.069  26.467  0.00  0.00    +0.000 C 
ATOM     30  C   UNL     1      -1.631  15.314  25.511  0.00  0.00    +0.000 C 
ATOM     31  C   UNL     1      -2.900  16.130  25.208  0.00  0.00    +0.000 C 
ATOM     32  C   UNL     1      -2.614  17.338  24.321  0.00  0.00    +0.000 C 
ATOM     33  C   UNL     1      -1.842  16.927  23.073  0.00  0.00    +0.000 C 
ATOM     34  C   UNL     1      -0.621  16.067  23.415  0.00  0.00    +0.000 C 
ATOM     35  N   UNL     1      -0.918  14.906  24.283  0.00  0.00    +0.000 NA
ENDBRANCH  28  35
ENDBRANCH  27  28
ENDBRANCH  26  27
ENDBRANCH   1  26
TORSDOF 7
ENDMDL
