MODEL 1
REMARK VINA RESULT:      -7.2      0.000      0.000
REMARK  Name = 
REMARK  4 active torsions:
REMARK  status: ('A' for Active; 'I' for Inactive)
REMARK    1  A    between atoms: C_1  and  C_2
REMARK    2  A    between atoms: C_4  and  C_5
REMARK    3  A    between atoms: C_11  and  N_12
REMARK    4  A    between atoms: N_12  and  C_13
REMARK                            x       y       z     vdW  Elec       q    Type
REMARK                         _______ _______ _______ _____ _____    ______ ____
ROOT
ATOM      1  C   UNL     1       2.914   7.123  17.982  0.00  0.00    +0.000 C 
ATOM      2  C   UNL     1       3.009   5.627  17.917  0.00  0.00    +0.000 A 
ATOM      3  C   UNL     1       2.084   4.856  18.632  0.00  0.00    +0.000 A 
ATOM      4  C   UNL     1       2.126   3.468  18.573  0.00  0.00    +0.000 A 
ATOM      5  C   UNL     1       3.124   2.907  17.793  0.00  0.00    +0.000 A 
ATOM      6  N   UNL     1       4.047   3.617  17.093  0.00  0.00    +0.000 NA
ATOM      7  C   UNL     1       3.979   4.967  17.135  0.00  0.00    +0.000 A 
ENDROOT
BRANCH   4   8
ATOM      8  C   UNL     1       1.137   2.610  19.298  0.00  0.00    +0.000 C 
ATOM      9  F   UNL     1       0.535   3.247  20.345  0.00  0.00    +0.000 F 
ATOM     10  F   UNL     1       0.122   2.190  18.494  0.00  0.00    +0.000 F 
ATOM     11  F   UNL     1       1.694   1.484  19.822  0.00  0.00    +0.000 F 
ENDBRANCH   4   8
BRANCH   7  12
ATOM     12  N   UNL     1       4.878   5.765  16.384  0.00  0.00    +0.000 N 
ATOM     13  H   UNL     1       4.775   5.529  15.404  0.00  0.00    +0.000 HD
BRANCH  12  14
ATOM     14  C   UNL     1       6.257   6.034  16.826  0.00  0.00    +0.000 C 
ATOM     15  C   UNL     1       6.534   6.175  18.299  0.00  0.00    +0.000 C 
ATOM     16  C   UNL     1       7.898   6.076  18.886  0.00  0.00    +0.000 C 
ATOM     17  O   UNL     1       8.479   7.383  18.749  0.00  0.00    +0.000 OA
ATOM     18  C   UNL     1       7.892   7.992  17.590  0.00  0.00    +0.000 C 
ATOM     19  C   UNL     1       6.537   7.391  17.444  0.00  0.00    +0.000 C 
ENDBRANCH  12  14
ENDBRANCH   7  12
TORSDOF 3
ENDMDL
MODEL 2
REMARK VINA RESULT:      -7.0      2.551      3.222
REMARK  Name = 
REMARK  4 active torsions:
REMARK  status: ('A' for Active; 'I' for Inactive)
REMARK    1  A    between atoms: C_1  and  C_2
REMARK    2  A    between atoms: C_4  and  C_5
REMARK    3  A    between atoms: C_11  and  N_12
REMARK    4  A    between atoms: N_12  and  C_13
REMARK                            x       y       z     vdW  Elec       q    Type
REMARK                         _______ _______ _______ _____ _____    ______ ____
ROOT
ATOM      1  C   UNL     1       3.613   7.050  17.633  0.00  0.00    +0.000 C 
ATOM      2  C   UNL     1       3.541   5.561  17.803  0.00  0.00    +0.000 A 
ATOM      3  C   UNL     1       2.448   5.007  18.481  0.00  0.00    +0.000 A 
ATOM      4  C   UNL     1       2.337   3.630  18.633  0.00  0.00    +0.000 A 
ATOM      5  C   UNL     1       3.355   2.859  18.099  0.00  0.00    +0.000 A 
ATOM      6  N   UNL     1       4.437   3.356  17.444  0.00  0.00    +0.000 NA
ATOM      7  C   UNL     1       4.521   4.695  17.276  0.00  0.00    +0.000 A 
ENDROOT
BRANCH   4   8
ATOM      8  C   UNL     1       1.169   2.997  19.324  0.00  0.00    +0.000 C 
ATOM      9  F   UNL     1       0.266   2.445  18.462  0.00  0.00    +0.000 F 
ATOM     10  F   UNL     1       1.540   1.989  20.160  0.00  0.00    +0.000 F 
ATOM     11  F   UNL     1       0.463   3.877  20.085  0.00  0.00    +0.000 F 
ENDBRANCH   4   8
BRANCH   7  12
ATOM     12  N   UNL     1       5.596   5.273  16.555  0.00  0.00    +0.000 N 
ATOM     13  H   UNL     1       5.791   6.187  16.948  0.00  0.00    +0.000 HD
BRANCH  12  14
ATOM     14  C   UNL     1       5.707   5.181  15.089  0.00  0.00    +0.000 C 
ATOM     15  C   UNL     1       6.035   3.849  14.468  0.00  0.00    +0.000 C 
ATOM     16  C   UNL     1       5.814   3.544  13.028  0.00  0.00    +0.000 C 
ATOM     17  O   UNL     1       6.972   4.043  12.339  0.00  0.00    +0.000 OA
ATOM     18  C   UNL     1       7.475   5.152  13.098  0.00  0.00    +0.000 C 
ATOM     19  C   UNL     1       7.083   4.902  14.513  0.00  0.00    +0.000 C 
ENDBRANCH  12  14
ENDBRANCH   7  12
TORSDOF 3
ENDMDL
MODEL 3
REMARK VINA RESULT:      -6.8      4.293      5.699
REMARK  Name = 
REMARK  4 active torsions:
REMARK  status: ('A' for Active; 'I' for Inactive)
REMARK    1  A    between atoms: C_1  and  C_2
REMARK    2  A    between atoms: C_4  and  C_5
REMARK    3  A    between atoms: C_11  and  N_12
REMARK    4  A    between atoms: N_12  and  C_13
REMARK                            x       y       z     vdW  Elec       q    Type
REMARK                         _______ _______ _______ _____ _____    ______ ____
ROOT
ATOM      1  C   UNL     1       2.761   7.442  17.989  0.00  0.00    +0.000 C 
ATOM      2  C   UNL     1       2.337   6.262  18.813  0.00  0.00    +0.000 A 
ATOM      3  C   UNL     1       2.324   4.991  18.225  0.00  0.00    +0.000 A 
ATOM      4  C   UNL     1       1.962   3.873  18.966  0.00  0.00    +0.000 A 
ATOM      5  C   UNL     1       1.611   4.089  20.288  0.00  0.00    +0.000 A 
ATOM      6  N   UNL     1       1.600   5.305  20.895  0.00  0.00    +0.000 NA
ATOM      7  C   UNL     1       1.981   6.382  20.172  0.00  0.00    +0.000 A 
ENDROOT
BRANCH   4   8
ATOM      8  C   UNL     1       1.965   2.495  18.381  0.00  0.00    +0.000 C 
ATOM      9  F   UNL     1       2.310   2.470  17.061  0.00  0.00    +0.000 F 
ATOM     10  F   UNL     1       2.844   1.665  19.005  0.00  0.00    +0.000 F 
ATOM     11  F   UNL     1       0.751   1.885  18.456  0.00  0.00    +0.000 F 
ENDBRANCH   4   8
BRANCH   7  12
ATOM     12  N   UNL     1       2.044   7.669  20.762  0.00  0.00    +0.000 N 
ATOM     13  H   UNL     1       2.814   7.683  21.421  0.00  0.00    +0.000 HD
BRANCH  12  14
ATOM     14  C   UNL     1       0.841   8.407  21.183  0.00  0.00    +0.000 C 
ATOM     15  C   UNL     1       0.867   9.913  21.162  0.00  0.00    +0.000 C 
ATOM     16  C   UNL     1      -0.363  10.750  21.201  0.00  0.00    +0.000 C 
ATOM     17  O   UNL     1      -0.711  10.871  22.590  0.00  0.00    +0.000 OA
ATOM     18  C   UNL     1      -0.243   9.686  23.252  0.00  0.00    +0.000 C 
ATOM     19  C   UNL     1       0.930   9.207  22.469  0.00  0.00    +0.000 C 
ENDBRANCH  12  14
ENDBRANCH   7  12
TORSDOF 3
ENDMDL
MODEL 4
REMARK VINA RESULT:      -6.7      2.422      2.968
REMARK  Name = 
REMARK  4 active torsions:
REMARK  status: ('A' for Active; 'I' for Inactive)
REMARK    1  A    between atoms: C_1  and  C_2
REMARK    2  A    between atoms: C_4  and  C_5
REMARK    3  A    between atoms: C_11  and  N_12
REMARK    4  A    between atoms: N_12  and  C_13
REMARK                            x       y       z     vdW  Elec       q    Type
REMARK                         _______ _______ _______ _____ _____    ______ ____
ROOT
ATOM      1  C   UNL     1       3.306   7.008  17.915  0.00  0.00    +0.000 C 
ATOM      2  C   UNL     1       3.645   5.700  18.566  0.00  0.00    +0.000 A 
ATOM      3  C   UNL     1       2.672   5.052  19.337  0.00  0.00    +0.000 A 
ATOM      4  C   UNL     1       2.943   3.826  19.934  0.00  0.00    +0.000 A 
ATOM      5  C   UNL     1       4.210   3.303  19.734  0.00  0.00    +0.000 A 
ATOM      6  N   UNL     1       5.186   3.903  19.004  0.00  0.00    +0.000 NA
ATOM      7  C   UNL     1       4.902   5.081  18.404  0.00  0.00    +0.000 A 
ENDROOT
BRANCH   4   8
ATOM      8  C   UNL     1       1.920   3.089  20.739  0.00  0.00    +0.000 C 
ATOM      9  F   UNL     1       0.745   3.773  20.876  0.00  0.00    +0.000 F 
ATOM     10  F   UNL     1       1.583   1.892  20.187  0.00  0.00    +0.000 F 
ATOM     11  F   UNL     1       2.337   2.817  22.005  0.00  0.00    +0.000 F 
ENDBRANCH   4   8
BRANCH   7  12
ATOM     12  N   UNL     1       5.858   5.731  17.584  0.00  0.00    +0.000 N 
ATOM     13  H   UNL     1       5.997   6.670  17.937  0.00  0.00    +0.000 HD
BRANCH  12  14
ATOM     14  C   UNL     1       5.862   5.602  16.117  0.00  0.00    +0.000 C 
ATOM     15  C   UNL     1       5.681   4.237  15.507  0.00  0.00    +0.000 C 
ATOM     16  C   UNL     1       5.301   4.024  14.084  0.00  0.00    +0.000 C 
ATOM     17  O   UNL     1       6.527   4.091  13.337  0.00  0.00    +0.000 OA
ATOM     18  C   UNL     1       7.416   4.961  14.052  0.00  0.00    +0.000 C 
ATOM     19  C   UNL     1       7.029   4.865  15.487  0.00  0.00    +0.000 C 
ENDBRANCH  12  14
ENDBRANCH   7  12
TORSDOF 3
ENDMDL
MODEL 5
REMARK VINA RESULT:      -6.6      2.736      3.365
REMARK  Name = 
REMARK  4 active torsions:
REMARK  status: ('A' for Active; 'I' for Inactive)
REMARK    1  A    between atoms: C_1  and  C_2
REMARK    2  A    between atoms: C_4  and  C_5
REMARK    3  A    between atoms: C_11  and  N_12
REMARK    4  A    between atoms: N_12  and  C_13
REMARK                            x       y       z     vdW  Elec       q    Type
REMARK                         _______ _______ _______ _____ _____    ______ ____
ROOT
ATOM      1  C   UNL     1       5.857   5.275  19.372  0.00  0.00    +0.000 C 
ATOM      2  C   UNL     1       4.727   4.607  18.646  0.00  0.00    +0.000 A 
ATOM      3  C   UNL     1       3.634   4.131  19.381  0.00  0.00    +0.000 A 
ATOM      4  C   UNL     1       2.558   3.531  18.738  0.00  0.00    +0.000 A 
ATOM      5  C   UNL     1       2.637   3.422  17.360  0.00  0.00    +0.000 A 
ATOM      6  N   UNL     1       3.682   3.859  16.610  0.00  0.00    +0.000 NA
ATOM      7  C   UNL     1       4.710   4.468  17.243  0.00  0.00    +0.000 A 
ENDROOT
BRANCH   4   8
ATOM      8  C   UNL     1       1.359   3.037  19.486  0.00  0.00    +0.000 C 
ATOM      9  F   UNL     1       0.700   4.024  20.161  0.00  0.00    +0.000 F 
ATOM     10  F   UNL     1       0.430   2.471  18.668  0.00  0.00    +0.000 F 
ATOM     11  F   UNL     1       1.665   2.094  20.418  0.00  0.00    +0.000 F 
ENDBRANCH   4   8
BRANCH   7  12
ATOM     12  N   UNL     1       5.805   4.995  16.513  0.00  0.00    +0.000 N 
ATOM     13  H   UNL     1       6.107   5.852  16.963  0.00  0.00    +0.000 HD
BRANCH  12  14
ATOM     14  C   UNL     1       5.843   5.009  15.041  0.00  0.00    +0.000 C 
ATOM     15  C   UNL     1       6.144   3.728  14.309  0.00  0.00    +0.000 C 
ATOM     16  C   UNL     1       5.851   3.526  12.864  0.00  0.00    +0.000 C 
ATOM     17  O   UNL     1       6.971   4.082  12.156  0.00  0.00    +0.000 OA
ATOM     18  C   UNL     1       7.507   5.138  12.966  0.00  0.00    +0.000 C 
ATOM     19  C   UNL     1       7.188   4.783  14.377  0.00  0.00    +0.000 C 
ENDBRANCH  12  14
ENDBRANCH   7  12
TORSDOF 3
ENDMDL
MODEL 6
REMARK VINA RESULT:      -6.6      3.303      4.446
REMARK  Name = 
REMARK  4 active torsions:
REMARK  status: ('A' for Active; 'I' for Inactive)
REMARK    1  A    between atoms: C_1  and  C_2
REMARK    2  A    between atoms: C_4  and  C_5
REMARK    3  A    between atoms: C_11  and  N_12
REMARK    4  A    between atoms: N_12  and  C_13
REMARK                            x       y       z     vdW  Elec       q    Type
REMARK                         _______ _______ _______ _____ _____    ______ ____
ROOT
ATOM      1  C   UNL     1       2.483   4.002  20.249  0.00  0.00    +0.000 C 
ATOM      2  C   UNL     1       2.342   5.439  19.838  0.00  0.00    +0.000 A 
ATOM      3  C   UNL     1       1.698   6.332  20.704  0.00  0.00    +0.000 A 
ATOM      4  C   UNL     1       1.573   7.675  20.368  0.00  0.00    +0.000 A 
ATOM      5  C   UNL     1       2.098   8.063  19.147  0.00  0.00    +0.000 A 
ATOM      6  N   UNL     1       2.720   7.228  18.274  0.00  0.00    +0.000 NA
ATOM      7  C   UNL     1       2.862   5.930  18.624  0.00  0.00    +0.000 A 
ENDROOT
BRANCH   4   8
ATOM      8  C   UNL     1       0.919   8.666  21.279  0.00  0.00    +0.000 C 
ATOM      9  F   UNL     1       1.612   8.872  22.438  0.00  0.00    +0.000 F 
ATOM     10  F   UNL     1       0.789   9.894  20.708  0.00  0.00    +0.000 F 
ATOM     11  F   UNL     1      -0.333   8.292  21.660  0.00  0.00    +0.000 F 
ENDBRANCH   4   8
BRANCH   7  12
ATOM     12  N   UNL     1       3.548   5.019  17.782  0.00  0.00    +0.000 N 
ATOM     13  H   UNL     1       3.400   4.082  18.136  0.00  0.00    +0.000 HD
BRANCH  12  14
ATOM     14  C   UNL     1       4.898   5.289  17.256  0.00  0.00    +0.000 C 
ATOM     15  C   UNL     1       5.598   4.216  16.466  0.00  0.00    +0.000 C 
ATOM     16  C   UNL     1       6.769   4.483  15.587  0.00  0.00    +0.000 C 
ATOM     17  O   UNL     1       7.918   4.463  16.449  0.00  0.00    +0.000 OA
ATOM     18  C   UNL     1       7.483   4.883  17.751  0.00  0.00    +0.000 C 
ATOM     19  C   UNL     1       6.047   4.499  17.854  0.00  0.00    +0.000 C 
ENDBRANCH  12  14
ENDBRANCH   7  12
TORSDOF 3
ENDMDL
MODEL 7
REMARK VINA RESULT:      -6.6      4.649      6.547
REMARK  Name = 
REMARK  4 active torsions:
REMARK  status: ('A' for Active; 'I' for Inactive)
REMARK    1  A    between atoms: C_1  and  C_2
REMARK    2  A    between atoms: C_4  and  C_5
REMARK    3  A    between atoms: C_11  and  N_12
REMARK    4  A    between atoms: N_12  and  C_13
REMARK                            x       y       z     vdW  Elec       q    Type
REMARK                         _______ _______ _______ _____ _____    ______ ____
ROOT
ATOM      1  C   UNL     1       4.784   4.243  16.295  0.00  0.00    +0.000 C 
ATOM      2  C   UNL     1       5.652   4.835  17.366  0.00  0.00    +0.000 A 
ATOM      3  C   UNL     1       6.349   6.020  17.098  0.00  0.00    +0.000 A 
ATOM      4  C   UNL     1       7.141   6.611  18.076  0.00  0.00    +0.000 A 
ATOM      5  C   UNL     1       7.208   5.963  19.298  0.00  0.00    +0.000 A 
ATOM      6  N   UNL     1       6.557   4.808  19.596  0.00  0.00    +0.000 NA
ATOM      7  C   UNL     1       5.767   4.258  18.647  0.00  0.00    +0.000 A 
ENDROOT
BRANCH   4   8
ATOM      8  C   UNL     1       7.877   7.892  17.838  0.00  0.00    +0.000 C 
ATOM      9  F   UNL     1       8.820   8.157  18.790  0.00  0.00    +0.000 F 
ATOM     10  F   UNL     1       8.543   7.899  16.652  0.00  0.00    +0.000 F 
ATOM     11  F   UNL     1       7.058   8.978  17.818  0.00  0.00    +0.000 F 
ENDBRANCH   4   8
BRANCH   7  12
ATOM     12  N   UNL     1       5.019   3.084  18.913  0.00  0.00    +0.000 N 
ATOM     13  H   UNL     1       4.963   2.540  18.060  0.00  0.00    +0.000 HD
BRANCH  12  14
ATOM     14  C   UNL     1       3.798   3.091  19.737  0.00  0.00    +0.000 C 
ATOM     15  C   UNL     1       2.459   3.144  19.051  0.00  0.00    +0.000 C 
ATOM     16  C   UNL     1       1.181   2.789  19.728  0.00  0.00    +0.000 C 
ATOM     17  O   UNL     1       0.764   3.974  20.424  0.00  0.00    +0.000 OA
ATOM     18  C   UNL     1       1.949   4.707  20.768  0.00  0.00    +0.000 C 
ATOM     19  C   UNL     1       2.967   4.361  19.736  0.00  0.00    +0.000 C 
ENDBRANCH  12  14
ENDBRANCH   7  12
TORSDOF 3
ENDMDL
MODEL 8
REMARK VINA RESULT:      -6.6      2.514      3.201
REMARK  Name = 
REMARK  4 active torsions:
REMARK  status: ('A' for Active; 'I' for Inactive)
REMARK    1  A    between atoms: C_1  and  C_2
REMARK    2  A    between atoms: C_4  and  C_5
REMARK    3  A    between atoms: C_11  and  N_12
REMARK    4  A    between atoms: N_12  and  C_13
REMARK                            x       y       z     vdW  Elec       q    Type
REMARK                         _______ _______ _______ _____ _____    ______ ____
ROOT
ATOM      1  C   UNL     1       3.930   6.829  17.808  0.00  0.00    +0.000 C 
ATOM      2  C   UNL     1       3.960   5.529  18.556  0.00  0.00    +0.000 A 
ATOM      3  C   UNL     1       2.818   5.122  19.257  0.00  0.00    +0.000 A 
ATOM      4  C   UNL     1       2.802   3.910  19.938  0.00  0.00    +0.000 A 
ATOM      5  C   UNL     1       3.962   3.155  19.894  0.00  0.00    +0.000 A 
ATOM      6  N   UNL     1       5.094   3.517  19.235  0.00  0.00    +0.000 NA
ATOM      7  C   UNL     1       5.089   4.684  18.552  0.00  0.00    +0.000 A 
ENDROOT
BRANCH   4   8
ATOM      8  C   UNL     1       1.591   3.427  20.673  0.00  0.00    +0.000 C 
ATOM      9  F   UNL     1       1.210   2.165  20.315  0.00  0.00    +0.000 F 
ATOM     10  F   UNL     1       1.781   3.383  22.020  0.00  0.00    +0.000 F 
ATOM     11  F   UNL     1       0.499   4.213  20.471  0.00  0.00    +0.000 F 
ENDBRANCH   4   8
BRANCH   7  12
ATOM     12  N   UNL     1       6.219   5.093  17.800  0.00  0.00    +0.000 N 
ATOM     13  H   UNL     1       6.271   6.104  17.825  0.00  0.00    +0.000 HD
BRANCH  12  14
ATOM     14  C   UNL     1       6.580   4.474  16.514  0.00  0.00    +0.000 C 
ATOM     15  C   UNL     1       6.778   5.359  15.312  0.00  0.00    +0.000 C 
ATOM     16  C   UNL     1       7.489   4.916  14.081  0.00  0.00    +0.000 C 
ATOM     17  O   UNL     1       6.510   4.224  13.290  0.00  0.00    +0.000 OA
ATOM     18  C   UNL     1       5.556   3.652  14.197  0.00  0.00    +0.000 C 
ATOM     19  C   UNL     1       5.549   4.528  15.402  0.00  0.00    +0.000 C 
ENDBRANCH  12  14
ENDBRANCH   7  12
TORSDOF 3
ENDMDL
MODEL 9
REMARK VINA RESULT:      -6.5      2.465      3.355
REMARK  Name = 
REMARK  4 active torsions:
REMARK  status: ('A' for Active; 'I' for Inactive)
REMARK    1  A    between atoms: C_1  and  C_2
REMARK    2  A    between atoms: C_4  and  C_5
REMARK    3  A    between atoms: C_11  and  N_12
REMARK    4  A    between atoms: N_12  and  C_13
REMARK                            x       y       z     vdW  Elec       q    Type
REMARK                         _______ _______ _______ _____ _____    ______ ____
ROOT
ATOM      1  C   UNL     1       6.349   5.229  19.228  0.00  0.00    +0.000 C 
ATOM      2  C   UNL     1       4.873   5.130  18.975  0.00  0.00    +0.000 A 
ATOM      3  C   UNL     1       4.070   4.450  19.899  0.00  0.00    +0.000 A 
ATOM      4  C   UNL     1       2.696   4.361  19.711  0.00  0.00    +0.000 A 
ATOM      5  C   UNL     1       2.183   4.961  18.573  0.00  0.00    +0.000 A 
ATOM      6  N   UNL     1       2.927   5.621  17.646  0.00  0.00    +0.000 NA
ATOM      7  C   UNL     1       4.259   5.726  17.855  0.00  0.00    +0.000 A 
ENDROOT
BRANCH   4   8
ATOM      8  C   UNL     1       1.801   3.670  20.691  0.00  0.00    +0.000 C 
ATOM      9  F   UNL     1       1.719   2.322  20.489  0.00  0.00    +0.000 F 
ATOM     10  F   UNL     1       2.218   3.822  21.977  0.00  0.00    +0.000 F 
ATOM     11  F   UNL     1       0.519   4.126  20.653  0.00  0.00    +0.000 F 
ENDBRANCH   4   8
BRANCH   7  12
ATOM     12  N   UNL     1       5.082   6.447  16.954  0.00  0.00    +0.000 N 
ATOM     13  H   UNL     1       4.855   7.432  17.031  0.00  0.00    +0.000 HD
BRANCH  12  14
ATOM     14  C   UNL     1       5.372   5.971  15.591  0.00  0.00    +0.000 C 
ATOM     15  C   UNL     1       5.385   4.489  15.326  0.00  0.00    +0.000 C 
ATOM     16  C   UNL     1       5.295   3.904  13.960  0.00  0.00    +0.000 C 
ATOM     17  O   UNL     1       6.635   3.912  13.441  0.00  0.00    +0.000 OA
ATOM     18  C   UNL     1       7.323   5.013  14.053  0.00  0.00    +0.000 C 
ATOM     19  C   UNL     1       6.676   5.225  15.378  0.00  0.00    +0.000 C 
ENDBRANCH  12  14
ENDBRANCH   7  12
TORSDOF 3
ENDMDL
