MODEL 1
REMARK VINA RESULT:      -6.9      0.000      0.000
REMARK  Name = 
REMARK  13 active torsions:
REMARK  status: ('A' for Active; 'I' for Inactive)
REMARK    1  A    between atoms: C_1  and  O_2
REMARK    2  A    between atoms: O_2  and  C_3
REMARK    3  A    between atoms: C_3  and  C_4
REMARK    4  A    between atoms: C_9  and  O_10
REMARK    5  A    between atoms: O_10  and  C_11
REMARK    6  A    between atoms: C_14  and  C_15
REMARK    7  A    between atoms: N_17  and  C_18
REMARK    8  A    between atoms: C_18  and  C_19
REMARK    9  A    between atoms: C_18  and  C_23
REMARK   10  A    between atoms: C_19  and  O_21
REMARK   11  A    between atoms: O_21  and  C_22
REMARK   12  A    between atoms: C_23  and  C_24
REMARK   13  A    between atoms: C_23  and  C_25
REMARK                            x       y       z     vdW  Elec       q    Type
REMARK                         _______ _______ _______ _____ _____    ______ ____
ROOT
ATOM      1  C   UNL     1       1.128  10.051  19.148  0.00  0.00    +0.000 A 
ATOM      2  C   UNL     1       1.715   9.395  18.068  0.00  0.00    +0.000 A 
ATOM      3  C   UNL     1       2.233   8.100  18.223  0.00  0.00    +0.000 A 
ATOM      4  C   UNL     1       2.176   7.437  19.462  0.00  0.00    +0.000 A 
ATOM      5  C   UNL     1       1.537   8.080  20.527  0.00  0.00    +0.000 A 
ATOM      6  C   UNL     1       1.031   9.379  20.369  0.00  0.00    +0.000 A 
ENDROOT
BRANCH   4   7
ATOM      7  C   UNL     1       2.852   6.106  19.582  0.00  0.00    +0.000 C 
ATOM      8  O   UNL     1       2.685   5.416  20.587  0.00  0.00    +0.000 OA
ATOM      9  N   UNL     1       3.605   5.677  18.504  0.00  0.00    +0.000 N 
ATOM     10  H   UNL     1       3.749   6.266  17.701  0.00  0.00    +0.000 HD
BRANCH   9  11
ATOM     11  C   UNL     1       4.217   4.344  18.440  0.00  0.00    +0.000 C 
BRANCH  11  12
ATOM     12  C   UNL     1       3.411   3.385  17.522  0.00  0.00    +0.000 C 
ATOM     13  C   UNL     1       3.500   1.928  17.986  0.00  0.00    +0.000 C 
ATOM     14  C   UNL     1       1.937   3.788  17.378  0.00  0.00    +0.000 C 
ENDBRANCH  11  12
BRANCH  11  15
ATOM     15  C   UNL     1       5.677   4.394  17.942  0.00  0.00    +0.000 C 
ATOM     16  O   UNL     1       5.996   4.405  16.759  0.00  0.00    +0.000 OA
BRANCH  15  17
ATOM     17  O   UNL     1       6.551   4.546  18.983  0.00  0.00    +0.000 OA
ATOM     18  C   UNL     1       7.646   5.437  18.746  0.00  0.00    +0.000 C 
ENDBRANCH  15  17
ENDBRANCH  11  15
ENDBRANCH   9  11
ENDBRANCH   4   7
BRANCH   1  19
ATOM     19  O   UNL     1       0.645  11.332  19.157  0.00  0.00    +0.000 OA
BRANCH  19  25
ATOM     20  C   UNL     1       0.756  16.286  18.980  0.00  0.00    +0.000 C 
ATOM     21  O   UNL     1      -0.062  16.947  19.623  0.00  0.00    +0.000 OA
ATOM     22  N   UNL     1       0.750  14.897  18.970  0.00  0.00    +0.000 N 
ATOM     23  C   UNL     1      -0.382  14.179  19.540  0.00  0.00    +0.000 C 
ATOM     24  C   UNL     1       0.086  13.217  20.623  0.00  0.00    +0.000 C 
ATOM     25  C   UNL     1       1.176  12.265  20.111  0.00  0.00    +0.000 C 
ATOM     26  C   UNL     1       2.302  13.052  19.420  0.00  0.00    +0.000 C 
ATOM     27  C   UNL     1       1.783  14.049  18.383  0.00  0.00    +0.000 C 
BRANCH  20  28
ATOM     28  C   UNL     1       1.803  17.003  18.112  0.00  0.00    +0.000 C 
BRANCH  28  30
ATOM     29  C   UNL     1       0.991  18.609  16.581  0.00  0.00    +0.000 C 
ATOM     30  O   UNL     1       1.546  18.384  17.874  0.00  0.00    +0.000 OA
ENDBRANCH  28  30
ENDBRANCH  20  28
ENDBRANCH  19  25
ENDBRANCH   1  19
TORSDOF 9
ENDMDL
MODEL 2
REMARK VINA RESULT:      -6.9      1.070      1.726
REMARK  Name = 
REMARK  13 active torsions:
REMARK  status: ('A' for Active; 'I' for Inactive)
REMARK    1  A    between atoms: C_1  and  O_2
REMARK    2  A    between atoms: O_2  and  C_3
REMARK    3  A    between atoms: C_3  and  C_4
REMARK    4  A    between atoms: C_9  and  O_10
REMARK    5  A    between atoms: O_10  and  C_11
REMARK    6  A    between atoms: C_14  and  C_15
REMARK    7  A    between atoms: N_17  and  C_18
REMARK    8  A    between atoms: C_18  and  C_19
REMARK    9  A    between atoms: C_18  and  C_23
REMARK   10  A    between atoms: C_19  and  O_21
REMARK   11  A    between atoms: O_21  and  C_22
REMARK   12  A    between atoms: C_23  and  C_24
REMARK   13  A    between atoms: C_23  and  C_25
REMARK                            x       y       z     vdW  Elec       q    Type
REMARK                         _______ _______ _______ _____ _____    ______ ____
ROOT
ATOM      1  C   UNL     1       0.831   9.988  19.433  0.00  0.00    +0.000 A 
ATOM      2  C   UNL     1       0.848   9.266  20.625  0.00  0.00    +0.000 A 
ATOM      3  C   UNL     1       1.508   8.029  20.694  0.00  0.00    +0.000 A 
ATOM      4  C   UNL     1       2.160   7.489  19.571  0.00  0.00    +0.000 A 
ATOM      5  C   UNL     1       2.184   8.244  18.394  0.00  0.00    +0.000 A 
ATOM      6  C   UNL     1       1.513   9.474  18.328  0.00  0.00    +0.000 A 
ENDROOT
BRANCH   4   7
ATOM      7  C   UNL     1       2.742   6.114  19.687  0.00  0.00    +0.000 C 
ATOM      8  O   UNL     1       2.428   5.388  20.630  0.00  0.00    +0.000 OA
ATOM      9  N   UNL     1       3.582   5.692  18.673  0.00  0.00    +0.000 N 
ATOM     10  H   UNL     1       3.845   6.309  17.924  0.00  0.00    +0.000 HD
BRANCH   9  11
ATOM     11  C   UNL     1       4.120   4.327  18.600  0.00  0.00    +0.000 C 
BRANCH  11  12
ATOM     12  C   UNL     1       3.308   3.440  17.618  0.00  0.00    +0.000 C 
ATOM     13  C   UNL     1       3.311   1.966  18.032  0.00  0.00    +0.000 C 
ATOM     14  C   UNL     1       1.862   3.918  17.432  0.00  0.00    +0.000 C 
ENDBRANCH  11  12
BRANCH  11  15
ATOM     15  C   UNL     1       5.604   4.307  18.175  0.00  0.00    +0.000 C 
ATOM     16  O   UNL     1       6.541   4.345  18.964  0.00  0.00    +0.000 OA
BRANCH  15  17
ATOM     17  O   UNL     1       5.732   4.121  16.827  0.00  0.00    +0.000 OA
ATOM     18  C   UNL     1       6.944   4.613  16.246  0.00  0.00    +0.000 C 
ENDBRANCH  15  17
ENDBRANCH  11  15
ENDBRANCH   9  11
ENDBRANCH   4   7
BRANCH   1  19
ATOM     19  O   UNL     1       0.174  11.168  19.206  0.00  0.00    +0.000 OA
BRANCH  19  25
ATOM     20  C   UNL     1       1.570  15.888  18.615  0.00  0.00    +0.000 C 
ATOM     21  O   UNL     1       0.722  16.782  18.559  0.00  0.00    +0.000 OA
ATOM     22  N   UNL     1       1.231  14.548  18.749  0.00  0.00    +0.000 N 
ATOM     23  C   UNL     1      -0.157  14.137  18.590  0.00  0.00    +0.000 C 
ATOM     24  C   UNL     1      -0.640  13.395  19.829  0.00  0.00    +0.000 C 
ATOM     25  C   UNL     1       0.275  12.215  20.183  0.00  0.00    +0.000 C 
ATOM     26  C   UNL     1       1.745  12.665  20.236  0.00  0.00    +0.000 C 
ATOM     27  C   UNL     1       2.171  13.458  18.999  0.00  0.00    +0.000 C 
BRANCH  20  28
ATOM     28  C   UNL     1       3.060  16.241  18.488  0.00  0.00    +0.000 C 
BRANCH  28  30
ATOM     29  C   UNL     1       4.762  17.144  19.856  0.00  0.00    +0.000 C 
ATOM     30  O   UNL     1       3.484  17.358  19.264  0.00  0.00    +0.000 OA
ENDBRANCH  28  30
ENDBRANCH  20  28
ENDBRANCH  19  25
ENDBRANCH   1  19
TORSDOF 9
ENDMDL
MODEL 3
REMARK VINA RESULT:      -6.8      1.235      1.777
REMARK  Name = 
REMARK  13 active torsions:
REMARK  status: ('A' for Active; 'I' for Inactive)
REMARK    1  A    between atoms: C_1  and  O_2
REMARK    2  A    between atoms: O_2  and  C_3
REMARK    3  A    between atoms: C_3  and  C_4
REMARK    4  A    between atoms: C_9  and  O_10
REMARK    5  A    between atoms: O_10  and  C_11
REMARK    6  A    between atoms: C_14  and  C_15
REMARK    7  A    between atoms: N_17  and  C_18
REMARK    8  A    between atoms: C_18  and  C_19
REMARK    9  A    between atoms: C_18  and  C_23
REMARK   10  A    between atoms: C_19  and  O_21
REMARK   11  A    between atoms: O_21  and  C_22
REMARK   12  A    between atoms: C_23  and  C_24
REMARK   13  A    between atoms: C_23  and  C_25
REMARK                            x       y       z     vdW  Elec       q    Type
REMARK                         _______ _______ _______ _____ _____    ______ ____
ROOT
ATOM      1  C   UNL     1       0.813   9.773  19.087  0.00  0.00    +0.000 A 
ATOM      2  C   UNL     1       0.951   8.969  20.218  0.00  0.00    +0.000 A 
ATOM      3  C   UNL     1       1.775   7.834  20.183  0.00  0.00    +0.000 A 
ATOM      4  C   UNL     1       2.475   7.479  19.015  0.00  0.00    +0.000 A 
ATOM      5  C   UNL     1       2.374   8.319  17.903  0.00  0.00    +0.000 A 
ATOM      6  C   UNL     1       1.540   9.447  17.940  0.00  0.00    +0.000 A 
ENDROOT
BRANCH   4   7
ATOM      7  C   UNL     1       3.242   6.192  19.017  0.00  0.00    +0.000 C 
ATOM      8  O   UNL     1       3.489   5.621  20.079  0.00  0.00    +0.000 OA
ATOM      9  N   UNL     1       3.596   5.662  17.789  0.00  0.00    +0.000 N 
ATOM     10  H   UNL     1       3.406   6.156  16.934  0.00  0.00    +0.000 HD
BRANCH   9  11
ATOM     11  C   UNL     1       4.239   4.350  17.644  0.00  0.00    +0.000 C 
BRANCH  11  12
ATOM     12  C   UNL     1       3.215   3.248  17.258  0.00  0.00    +0.000 C 
ATOM     13  C   UNL     1       3.485   1.927  17.985  0.00  0.00    +0.000 C 
ATOM     14  C   UNL     1       1.759   3.673  17.489  0.00  0.00    +0.000 C 
ENDBRANCH  11  12
BRANCH  11  15
ATOM     15  C   UNL     1       5.369   4.367  16.593  0.00  0.00    +0.000 C 
ATOM     16  O   UNL     1       5.314   3.774  15.521  0.00  0.00    +0.000 OA
BRANCH  15  17
ATOM     17  O   UNL     1       6.374   5.217  16.958  0.00  0.00    +0.000 OA
ATOM     18  C   UNL     1       7.479   4.613  17.639  0.00  0.00    +0.000 C 
ENDBRANCH  15  17
ENDBRANCH  11  15
ENDBRANCH   9  11
ENDBRANCH   4   7
BRANCH   1  19
ATOM     19  O   UNL     1      -0.003  10.864  18.960  0.00  0.00    +0.000 OA
BRANCH  19  25
ATOM     20  C   UNL     1       1.458  15.601  18.837  0.00  0.00    +0.000 C 
ATOM     21  O   UNL     1       0.624  16.504  18.742  0.00  0.00    +0.000 OA
ATOM     22  N   UNL     1       1.105  14.258  18.845  0.00  0.00    +0.000 N 
ATOM     23  C   UNL     1      -0.257  13.870  18.502  0.00  0.00    +0.000 C 
ATOM     24  C   UNL     1      -0.879  13.055  19.627  0.00  0.00    +0.000 C 
ATOM     25  C   UNL     1      -0.013  11.847  20.007  0.00  0.00    +0.000 C 
ATOM     26  C   UNL     1       1.442  12.280  20.257  0.00  0.00    +0.000 C 
ATOM     27  C   UNL     1       2.008  13.146  19.130  0.00  0.00    +0.000 C 
BRANCH  20  28
ATOM     28  C   UNL     1       2.954  15.948  18.904  0.00  0.00    +0.000 C 
BRANCH  28  30
ATOM     29  C   UNL     1       4.880  15.155  17.789  0.00  0.00    +0.000 C 
ATOM     30  O   UNL     1       3.649  15.863  17.664  0.00  0.00    +0.000 OA
ENDBRANCH  28  30
ENDBRANCH  20  28
ENDBRANCH  19  25
ENDBRANCH   1  19
TORSDOF 9
ENDMDL
MODEL 4
REMARK VINA RESULT:      -6.8      1.305      2.077
REMARK  Name = 
REMARK  13 active torsions:
REMARK  status: ('A' for Active; 'I' for Inactive)
REMARK    1  A    between atoms: C_1  and  O_2
REMARK    2  A    between atoms: O_2  and  C_3
REMARK    3  A    between atoms: C_3  and  C_4
REMARK    4  A    between atoms: C_9  and  O_10
REMARK    5  A    between atoms: O_10  and  C_11
REMARK    6  A    between atoms: C_14  and  C_15
REMARK    7  A    between atoms: N_17  and  C_18
REMARK    8  A    between atoms: C_18  and  C_19
REMARK    9  A    between atoms: C_18  and  C_23
REMARK   10  A    between atoms: C_19  and  O_21
REMARK   11  A    between atoms: O_21  and  C_22
REMARK   12  A    between atoms: C_23  and  C_24
REMARK   13  A    between atoms: C_23  and  C_25
REMARK                            x       y       z     vdW  Elec       q    Type
REMARK                         _______ _______ _______ _____ _____    ______ ____
ROOT
ATOM      1  C   UNL     1       0.943  10.169  19.376  0.00  0.00    +0.000 A 
ATOM      2  C   UNL     1       1.013   9.194  20.370  0.00  0.00    +0.000 A 
ATOM      3  C   UNL     1       1.640   7.965  20.113  0.00  0.00    +0.000 A 
ATOM      4  C   UNL     1       2.206   7.686  18.856  0.00  0.00    +0.000 A 
ATOM      5  C   UNL     1       2.180   8.689  17.882  0.00  0.00    +0.000 A 
ATOM      6  C   UNL     1       1.542   9.911  18.140  0.00  0.00    +0.000 A 
ENDROOT
BRANCH   4   7
ATOM      7  C   UNL     1       2.754   6.312  18.618  0.00  0.00    +0.000 C 
ATOM      8  O   UNL     1       2.052   5.323  18.827  0.00  0.00    +0.000 OA
ATOM      9  N   UNL     1       4.036   6.220  18.108  0.00  0.00    +0.000 N 
ATOM     10  H   UNL     1       4.601   7.039  17.967  0.00  0.00    +0.000 HD
BRANCH   9  11
ATOM     11  C   UNL     1       4.646   4.943  17.715  0.00  0.00    +0.000 C 
BRANCH  11  12
ATOM     12  C   UNL     1       5.623   5.117  16.520  0.00  0.00    +0.000 C 
ATOM     13  C   UNL     1       5.759   3.835  15.692  0.00  0.00    +0.000 C 
ATOM     14  C   UNL     1       5.246   6.285  15.600  0.00  0.00    +0.000 C 
ENDBRANCH  11  12
BRANCH  11  15
ATOM     15  C   UNL     1       5.403   4.273  18.881  0.00  0.00    +0.000 C 
ATOM     16  O   UNL     1       6.550   4.560  19.205  0.00  0.00    +0.000 OA
BRANCH  15  17
ATOM     17  O   UNL     1       4.592   3.416  19.572  0.00  0.00    +0.000 OA
ATOM     18  C   UNL     1       3.936   2.416  18.786  0.00  0.00    +0.000 C 
ENDBRANCH  15  17
ENDBRANCH  11  15
ENDBRANCH   9  11
ENDBRANCH   4   7
BRANCH   1  19
ATOM     19  O   UNL     1       0.308  11.379  19.466  0.00  0.00    +0.000 OA
BRANCH  19  25
ATOM     20  C   UNL     1       0.882  16.291  19.812  0.00  0.00    +0.000 C 
ATOM     21  O   UNL     1      -0.059  17.000  20.178  0.00  0.00    +0.000 OA
ATOM     22  N   UNL     1       0.765  14.915  19.669  0.00  0.00    +0.000 N 
ATOM     23  C   UNL     1      -0.551  14.294  19.723  0.00  0.00    +0.000 C 
ATOM     24  C   UNL     1      -0.594  13.224  20.805  0.00  0.00    +0.000 C 
ATOM     25  C   UNL     1       0.526  12.189  20.631  0.00  0.00    +0.000 C 
ATOM     26  C   UNL     1       1.888  12.886  20.470  0.00  0.00    +0.000 C 
ATOM     27  C   UNL     1       1.870  13.993  19.416  0.00  0.00    +0.000 C 
BRANCH  20  28
ATOM     28  C   UNL     1       2.229  16.938  19.452  0.00  0.00    +0.000 C 
BRANCH  28  30
ATOM     29  C   UNL     1       3.027  16.811  17.232  0.00  0.00    +0.000 C 
ATOM     30  O   UNL     1       2.274  17.568  18.175  0.00  0.00    +0.000 OA
ENDBRANCH  28  30
ENDBRANCH  20  28
ENDBRANCH  19  25
ENDBRANCH   1  19
TORSDOF 9
ENDMDL
MODEL 5
REMARK VINA RESULT:      -6.8      1.726      2.270
REMARK  Name = 
REMARK  13 active torsions:
REMARK  status: ('A' for Active; 'I' for Inactive)
REMARK    1  A    between atoms: C_1  and  O_2
REMARK    2  A    between atoms: O_2  and  C_3
REMARK    3  A    between atoms: C_3  and  C_4
REMARK    4  A    between atoms: C_9  and  O_10
REMARK    5  A    between atoms: O_10  and  C_11
REMARK    6  A    between atoms: C_14  and  C_15
REMARK    7  A    between atoms: N_17  and  C_18
REMARK    8  A    between atoms: C_18  and  C_19
REMARK    9  A    between atoms: C_18  and  C_23
REMARK   10  A    between atoms: C_19  and  O_21
REMARK   11  A    between atoms: O_21  and  C_22
REMARK   12  A    between atoms: C_23  and  C_24
REMARK   13  A    between atoms: C_23  and  C_25
REMARK                            x       y       z     vdW  Elec       q    Type
REMARK                         _______ _______ _______ _____ _____    ______ ____
ROOT
ATOM      1  C   UNL     1       0.785  10.014  19.329  0.00  0.00    +0.000 A 
ATOM      2  C   UNL     1       0.943   9.117  20.384  0.00  0.00    +0.000 A 
ATOM      3  C   UNL     1       1.706   7.952  20.214  0.00  0.00    +0.000 A 
ATOM      4  C   UNL     1       2.324   7.660  18.985  0.00  0.00    +0.000 A 
ATOM      5  C   UNL     1       2.206   8.590  17.948  0.00  0.00    +0.000 A 
ATOM      6  C   UNL     1       1.432   9.748  18.119  0.00  0.00    +0.000 A 
ENDROOT
BRANCH   4   7
ATOM      7  C   UNL     1       3.024   6.343  18.844  0.00  0.00    +0.000 C 
ATOM      8  O   UNL     1       4.204   6.306  18.495  0.00  0.00    +0.000 OA
ATOM      9  N   UNL     1       2.311   5.206  19.175  0.00  0.00    +0.000 N 
ATOM     10  H   UNL     1       1.341   5.255  19.435  0.00  0.00    +0.000 HD
BRANCH   9  11
ATOM     11  C   UNL     1       2.914   3.867  19.200  0.00  0.00    +0.000 C 
BRANCH  11  12
ATOM     12  C   UNL     1       2.060   2.866  20.025  0.00  0.00    +0.000 C 
ATOM     13  C   UNL     1       2.563   2.724  21.465  0.00  0.00    +0.000 C 
ATOM     14  C   UNL     1       0.566   3.219  20.037  0.00  0.00    +0.000 C 
ENDBRANCH  11  12
BRANCH  11  15
ATOM     15  C   UNL     1       3.119   3.292  17.783  0.00  0.00    +0.000 C 
ATOM     16  O   UNL     1       2.210   3.113  16.980  0.00  0.00    +0.000 OA
BRANCH  15  17
ATOM     17  O   UNL     1       4.446   3.124  17.502  0.00  0.00    +0.000 OA
ATOM     18  C   UNL     1       4.918   3.788  16.325  0.00  0.00    +0.000 C 
ENDBRANCH  15  17
ENDBRANCH  11  15
ENDBRANCH   9  11
ENDBRANCH   4   7
BRANCH   1  19
ATOM     19  O   UNL     1       0.018  11.149  19.333  0.00  0.00    +0.000 OA
BRANCH  19  25
ATOM     20  C   UNL     1       1.103  15.948  18.715  0.00  0.00    +0.000 C 
ATOM     21  O   UNL     1       0.231  16.805  18.877  0.00  0.00    +0.000 OA
ATOM     22  N   UNL     1       0.845  14.589  18.846  0.00  0.00    +0.000 N 
ATOM     23  C   UNL     1      -0.532  14.124  18.948  0.00  0.00    +0.000 C 
ATOM     24  C   UNL     1      -0.728  13.310  20.219  0.00  0.00    +0.000 C 
ATOM     25  C   UNL     1       0.280  12.156  20.321  0.00  0.00    +0.000 C 
ATOM     26  C   UNL     1       1.714  12.669  20.101  0.00  0.00    +0.000 C 
ATOM     27  C   UNL     1       1.852  13.531  18.846  0.00  0.00    +0.000 C 
BRANCH  20  28
ATOM     28  C   UNL     1       2.523  16.371  18.310  0.00  0.00    +0.000 C 
BRANCH  28  30
ATOM     29  C   UNL     1       3.500  17.089  20.337  0.00  0.00    +0.000 C 
ATOM     30  O   UNL     1       3.056  17.472  19.039  0.00  0.00    +0.000 OA
ENDBRANCH  28  30
ENDBRANCH  20  28
ENDBRANCH  19  25
ENDBRANCH   1  19
TORSDOF 9
ENDMDL
MODEL 6
REMARK VINA RESULT:      -6.8      2.816      3.784
REMARK  Name = 
REMARK  13 active torsions:
REMARK  status: ('A' for Active; 'I' for Inactive)
REMARK    1  A    between atoms: C_1  and  O_2
REMARK    2  A    between atoms: O_2  and  C_3
REMARK    3  A    between atoms: C_3  and  C_4
REMARK    4  A    between atoms: C_9  and  O_10
REMARK    5  A    between atoms: O_10  and  C_11
REMARK    6  A    between atoms: C_14  and  C_15
REMARK    7  A    between atoms: N_17  and  C_18
REMARK    8  A    between atoms: C_18  and  C_19
REMARK    9  A    between atoms: C_18  and  C_23
REMARK   10  A    between atoms: C_19  and  O_21
REMARK   11  A    between atoms: O_21  and  C_22
REMARK   12  A    between atoms: C_23  and  C_24
REMARK   13  A    between atoms: C_23  and  C_25
REMARK                            x       y       z     vdW  Elec       q    Type
REMARK                         _______ _______ _______ _____ _____    ______ ____
ROOT
ATOM      1  C   UNL     1       1.014   9.961  19.523  0.00  0.00    +0.000 A 
ATOM      2  C   UNL     1       1.213   8.933  20.443  0.00  0.00    +0.000 A 
ATOM      3  C   UNL     1       1.855   7.748  20.052  0.00  0.00    +0.000 A 
ATOM      4  C   UNL     1       2.307   7.567  18.732  0.00  0.00    +0.000 A 
ATOM      5  C   UNL     1       2.152   8.623  17.830  0.00  0.00    +0.000 A 
ATOM      6  C   UNL     1       1.500   9.801  18.223  0.00  0.00    +0.000 A 
ENDROOT
BRANCH   4   7
ATOM      7  C   UNL     1       2.877   6.233  18.359  0.00  0.00    +0.000 C 
ATOM      8  O   UNL     1       2.149   5.241  18.312  0.00  0.00    +0.000 OA
ATOM      9  N   UNL     1       4.217   6.188  18.020  0.00  0.00    +0.000 N 
ATOM     10  H   UNL     1       4.800   7.004  18.088  0.00  0.00    +0.000 HD
BRANCH   9  11
ATOM     11  C   UNL     1       4.871   4.972  17.518  0.00  0.00    +0.000 C 
BRANCH  11  12
ATOM     12  C   UNL     1       5.695   5.252  16.232  0.00  0.00    +0.000 C 
ATOM     13  C   UNL     1       5.683   4.064  15.266  0.00  0.00    +0.000 C 
ATOM     14  C   UNL     1       5.244   6.518  15.493  0.00  0.00    +0.000 C 
ENDBRANCH  11  12
BRANCH  11  15
ATOM     15  C   UNL     1       5.798   4.330  18.571  0.00  0.00    +0.000 C 
ATOM     16  O   UNL     1       5.420   3.524  19.414  0.00  0.00    +0.000 OA
BRANCH  15  17
ATOM     17  O   UNL     1       7.103   4.682  18.365  0.00  0.00    +0.000 OA
ATOM     18  C   UNL     1       7.633   5.654  19.272  0.00  0.00    +0.000 C 
ENDBRANCH  15  17
ENDBRANCH  11  15
ENDBRANCH   9  11
ENDBRANCH   4   7
BRANCH   1  19
ATOM     19  O   UNL     1       0.349  11.136  19.748  0.00  0.00    +0.000 OA
BRANCH  19  25
ATOM     20  C   UNL     1      -2.313  14.749  21.858  0.00  0.00    +0.000 C 
ATOM     21  O   UNL     1      -3.201  15.317  21.219  0.00  0.00    +0.000 OA
ATOM     22  N   UNL     1      -1.518  13.753  21.305  0.00  0.00    +0.000 N 
ATOM     23  C   UNL     1      -1.559  13.514  19.869  0.00  0.00    +0.000 C 
ATOM     24  C   UNL     1      -1.915  12.062  19.579  0.00  0.00    +0.000 C 
ATOM     25  C   UNL     1      -0.975  11.086  20.300  0.00  0.00    +0.000 C 
ATOM     26  C   UNL     1      -0.874  11.437  21.795  0.00  0.00    +0.000 C 
ATOM     27  C   UNL     1      -0.574  12.916  22.041  0.00  0.00    +0.000 C 
BRANCH  20  28
ATOM     28  C   UNL     1      -2.025  15.173  23.307  0.00  0.00    +0.000 C 
BRANCH  28  30
ATOM     29  C   UNL     1      -3.591  13.877  24.510  0.00  0.00    +0.000 C 
ATOM     30  O   UNL     1      -3.159  15.191  24.167  0.00  0.00    +0.000 OA
ENDBRANCH  28  30
ENDBRANCH  20  28
ENDBRANCH  19  25
ENDBRANCH   1  19
TORSDOF 9
ENDMDL
MODEL 7
REMARK VINA RESULT:      -6.8      2.851     10.114
REMARK  Name = 
REMARK  13 active torsions:
REMARK  status: ('A' for Active; 'I' for Inactive)
REMARK    1  A    between atoms: C_1  and  O_2
REMARK    2  A    between atoms: O_2  and  C_3
REMARK    3  A    between atoms: C_3  and  C_4
REMARK    4  A    between atoms: C_9  and  O_10
REMARK    5  A    between atoms: O_10  and  C_11
REMARK    6  A    between atoms: C_14  and  C_15
REMARK    7  A    between atoms: N_17  and  C_18
REMARK    8  A    between atoms: C_18  and  C_19
REMARK    9  A    between atoms: C_18  and  C_23
REMARK   10  A    between atoms: C_19  and  O_21
REMARK   11  A    between atoms: O_21  and  C_22
REMARK   12  A    between atoms: C_23  and  C_24
REMARK   13  A    between atoms: C_23  and  C_25
REMARK                            x       y       z     vdW  Elec       q    Type
REMARK                         _______ _______ _______ _____ _____    ______ ____
ROOT
ATOM      1  C   UNL     1       2.234   6.990  18.771  0.00  0.00    +0.000 A 
ATOM      2  C   UNL     1       2.008   8.175  18.074  0.00  0.00    +0.000 A 
ATOM      3  C   UNL     1       1.487   9.298  18.735  0.00  0.00    +0.000 A 
ATOM      4  C   UNL     1       1.179   9.255  20.107  0.00  0.00    +0.000 A 
ATOM      5  C   UNL     1       1.459   8.080  20.811  0.00  0.00    +0.000 A 
ATOM      6  C   UNL     1       1.969   6.957  20.142  0.00  0.00    +0.000 A 
ENDROOT
BRANCH   4   7
ATOM      7  C   UNL     1       0.519  10.452  20.719  0.00  0.00    +0.000 C 
ATOM      8  O   UNL     1       0.790  10.785  21.872  0.00  0.00    +0.000 OA
ATOM      9  N   UNL     1      -0.344  11.179  19.919  0.00  0.00    +0.000 N 
ATOM     10  H   UNL     1      -0.571  10.877  18.987  0.00  0.00    +0.000 HD
BRANCH   9  11
ATOM     11  C   UNL     1      -0.960  12.440  20.353  0.00  0.00    +0.000 C 
BRANCH  11  12
ATOM     12  C   UNL     1      -0.166  13.673  19.842  0.00  0.00    +0.000 C 
ATOM     13  C   UNL     1       0.786  14.230  20.905  0.00  0.00    +0.000 C 
ATOM     14  C   UNL     1       0.614  13.393  18.551  0.00  0.00    +0.000 C 
ENDBRANCH  11  12
BRANCH  11  15
ATOM     15  C   UNL     1      -2.425  12.565  19.885  0.00  0.00    +0.000 C 
ATOM     16  O   UNL     1      -3.281  13.207  20.483  0.00  0.00    +0.000 OA
BRANCH  15  17
ATOM     17  O   UNL     1      -2.610  11.973  18.667  0.00  0.00    +0.000 OA
ATOM     18  C   UNL     1      -3.939  11.517  18.395  0.00  0.00    +0.000 C 
ENDBRANCH  15  17
ENDBRANCH  11  15
ENDBRANCH   9  11
ENDBRANCH   4   7
BRANCH   1  19
ATOM     19  O   UNL     1       2.672   5.806  18.241  0.00  0.00    +0.000 OA
BRANCH  19  25
ATOM     20  C   UNL     1       6.459   4.916  15.166  0.00  0.00    +0.000 C 
ATOM     21  O   UNL     1       7.360   5.748  15.037  0.00  0.00    +0.000 OA
ATOM     22  N   UNL     1       5.361   5.129  15.990  0.00  0.00    +0.000 N 
ATOM     23  C   UNL     1       5.127   6.453  16.550  0.00  0.00    +0.000 C 
ATOM     24  C   UNL     1       5.049   6.385  18.069  0.00  0.00    +0.000 C 
ATOM     25  C   UNL     1       4.005   5.365  18.543  0.00  0.00    +0.000 C 
ATOM     26  C   UNL     1       4.219   4.008  17.850  0.00  0.00    +0.000 C 
ATOM     27  C   UNL     1       4.352   4.130  16.331  0.00  0.00    +0.000 C 
BRANCH  20  28
ATOM     28  C   UNL     1       6.507   3.609  14.360  0.00  0.00    +0.000 C 
BRANCH  28  30
ATOM     29  C   UNL     1       6.687   3.506  12.007  0.00  0.00    +0.000 C 
ATOM     30  O   UNL     1       5.808   3.638  13.120  0.00  0.00    +0.000 OA
ENDBRANCH  28  30
ENDBRANCH  20  28
ENDBRANCH  19  25
ENDBRANCH   1  19
TORSDOF 9
ENDMDL
MODEL 8
REMARK VINA RESULT:      -6.7      3.423     10.130
REMARK  Name = 
REMARK  13 active torsions:
REMARK  status: ('A' for Active; 'I' for Inactive)
REMARK    1  A    between atoms: C_1  and  O_2
REMARK    2  A    between atoms: O_2  and  C_3
REMARK    3  A    between atoms: C_3  and  C_4
REMARK    4  A    between atoms: C_9  and  O_10
REMARK    5  A    between atoms: O_10  and  C_11
REMARK    6  A    between atoms: C_14  and  C_15
REMARK    7  A    between atoms: N_17  and  C_18
REMARK    8  A    between atoms: C_18  and  C_19
REMARK    9  A    between atoms: C_18  and  C_23
REMARK   10  A    between atoms: C_19  and  O_21
REMARK   11  A    between atoms: O_21  and  C_22
REMARK   12  A    between atoms: C_23  and  C_24
REMARK   13  A    between atoms: C_23  and  C_25
REMARK                            x       y       z     vdW  Elec       q    Type
REMARK                         _______ _______ _______ _____ _____    ______ ____
ROOT
ATOM      1  C   UNL     1       2.188   7.522  18.667  0.00  0.00    +0.000 A 
ATOM      2  C   UNL     1       1.972   8.719  17.987  0.00  0.00    +0.000 A 
ATOM      3  C   UNL     1       1.518   9.853  18.678  0.00  0.00    +0.000 A 
ATOM      4  C   UNL     1       1.269   9.811  20.061  0.00  0.00    +0.000 A 
ATOM      5  C   UNL     1       1.539   8.622  20.745  0.00  0.00    +0.000 A 
ATOM      6  C   UNL     1       1.982   7.488  20.048  0.00  0.00    +0.000 A 
ENDROOT
BRANCH   4   7
ATOM      7  C   UNL     1       0.676  11.025  20.708  0.00  0.00    +0.000 C 
ATOM      8  O   UNL     1       1.406  11.934  21.101  0.00  0.00    +0.000 OA
ATOM      9  N   UNL     1      -0.703  11.094  20.784  0.00  0.00    +0.000 N 
ATOM     10  H   UNL     1      -1.281  10.330  20.480  0.00  0.00    +0.000 HD
BRANCH   9  11
ATOM     11  C   UNL     1      -1.415  12.279  21.281  0.00  0.00    +0.000 C 
BRANCH  11  12
ATOM     12  C   UNL     1      -2.821  12.417  20.637  0.00  0.00    +0.000 C 
ATOM     13  C   UNL     1      -3.368  13.844  20.739  0.00  0.00    +0.000 C 
ATOM     14  C   UNL     1      -2.860  11.957  19.174  0.00  0.00    +0.000 C 
ENDBRANCH  11  12
BRANCH  11  15
ATOM     15  C   UNL     1      -1.571  12.266  22.816  0.00  0.00    +0.000 C 
ATOM     16  O   UNL     1      -2.289  11.479  23.423  0.00  0.00    +0.000 OA
BRANCH  15  17
ATOM     17  O   UNL     1      -0.722  13.157  23.410  0.00  0.00    +0.000 OA
ATOM     18  C   UNL     1      -1.299  14.414  23.775  0.00  0.00    +0.000 C 
ENDBRANCH  15  17
ENDBRANCH  11  15
ENDBRANCH   9  11
ENDBRANCH   4   7
BRANCH   1  19
ATOM     19  O   UNL     1       2.563   6.327  18.112  0.00  0.00    +0.000 OA
BRANCH  19  25
ATOM     20  C   UNL     1       6.376   4.997  15.235  0.00  0.00    +0.000 C 
ATOM     21  O   UNL     1       7.363   5.730  15.137  0.00  0.00    +0.000 OA
ATOM     22  N   UNL     1       5.269   5.336  16.003  0.00  0.00    +0.000 N 
ATOM     23  C   UNL     1       5.147   6.688  16.530  0.00  0.00    +0.000 C 
ATOM     24  C   UNL     1       4.992   6.659  18.044  0.00  0.00    +0.000 C 
ATOM     25  C   UNL     1       3.828   5.759  18.484  0.00  0.00    +0.000 C 
ATOM     26  C   UNL     1       3.933   4.375  17.822  0.00  0.00    +0.000 C 
ATOM     27  C   UNL     1       4.148   4.452  16.310  0.00  0.00    +0.000 C 
BRANCH  20  28
ATOM     28  C   UNL     1       6.327   3.675  14.453  0.00  0.00    +0.000 C 
BRANCH  28  30
ATOM     29  C   UNL     1       6.650   3.690  12.112  0.00  0.00    +0.000 C 
ATOM     30  O   UNL     1       5.703   3.753  13.175  0.00  0.00    +0.000 OA
ENDBRANCH  28  30
ENDBRANCH  20  28
ENDBRANCH  19  25
ENDBRANCH   1  19
TORSDOF 9
ENDMDL
MODEL 9
REMARK VINA RESULT:      -6.7      1.522      2.298
REMARK  Name = 
REMARK  13 active torsions:
REMARK  status: ('A' for Active; 'I' for Inactive)
REMARK    1  A    between atoms: C_1  and  O_2
REMARK    2  A    between atoms: O_2  and  C_3
REMARK    3  A    between atoms: C_3  and  C_4
REMARK    4  A    between atoms: C_9  and  O_10
REMARK    5  A    between atoms: O_10  and  C_11
REMARK    6  A    between atoms: C_14  and  C_15
REMARK    7  A    between atoms: N_17  and  C_18
REMARK    8  A    between atoms: C_18  and  C_19
REMARK    9  A    between atoms: C_18  and  C_23
REMARK   10  A    between atoms: C_19  and  O_21
REMARK   11  A    between atoms: O_21  and  C_22
REMARK   12  A    between atoms: C_23  and  C_24
REMARK   13  A    between atoms: C_23  and  C_25
REMARK                            x       y       z     vdW  Elec       q    Type
REMARK                         _______ _______ _______ _____ _____    ______ ____
ROOT
ATOM      1  C   UNL     1       0.839  10.206  19.254  0.00  0.00    +0.000 A 
ATOM      2  C   UNL     1       0.912   9.307  20.316  0.00  0.00    +0.000 A 
ATOM      3  C   UNL     1       1.601   8.093  20.170  0.00  0.00    +0.000 A 
ATOM      4  C   UNL     1       2.227   7.754  18.958  0.00  0.00    +0.000 A 
ATOM      5  C   UNL     1       2.196   8.684  17.914  0.00  0.00    +0.000 A 
ATOM      6  C   UNL     1       1.496   9.891  18.062  0.00  0.00    +0.000 A 
ENDROOT
BRANCH   4   7
ATOM      7  C   UNL     1       2.843   6.393  18.839  0.00  0.00    +0.000 C 
ATOM      8  O   UNL     1       2.260   5.409  19.294  0.00  0.00    +0.000 OA
ATOM      9  N   UNL     1       4.041   6.297  18.156  0.00  0.00    +0.000 N 
ATOM     10  H   UNL     1       4.514   7.115  17.812  0.00  0.00    +0.000 HD
BRANCH   9  11
ATOM     11  C   UNL     1       4.688   5.011  17.861  0.00  0.00    +0.000 C 
BRANCH  11  12
ATOM     12  C   UNL     1       5.590   5.098  16.600  0.00  0.00    +0.000 C 
ATOM     13  C   UNL     1       5.593   3.792  15.799  0.00  0.00    +0.000 C 
ATOM     14  C   UNL     1       5.221   6.265  15.675  0.00  0.00    +0.000 C 
ENDBRANCH  11  12
BRANCH  11  15
ATOM     15  C   UNL     1       5.537   4.500  19.043  0.00  0.00    +0.000 C 
ATOM     16  O   UNL     1       6.187   5.229  19.784  0.00  0.00    +0.000 OA
BRANCH  15  17
ATOM     17  O   UNL     1       5.375   3.155  19.227  0.00  0.00    +0.000 OA
ATOM     18  C   UNL     1       4.203   2.766  19.950  0.00  0.00    +0.000 C 
ENDBRANCH  15  17
ENDBRANCH  11  15
ENDBRANCH   9  11
ENDBRANCH   4   7
BRANCH   1  19
ATOM     19  O   UNL     1       0.149  11.389  19.234  0.00  0.00    +0.000 OA
BRANCH  19  25
ATOM     20  C   UNL     1       1.738  16.047  18.632  0.00  0.00    +0.000 C 
ATOM     21  O   UNL     1       0.948  16.988  18.732  0.00  0.00    +0.000 OA
ATOM     22  N   UNL     1       1.339  14.722  18.761  0.00  0.00    +0.000 N 
ATOM     23  C   UNL     1      -0.080  14.397  18.786  0.00  0.00    +0.000 C 
ATOM     24  C   UNL     1      -0.430  13.627  20.052  0.00  0.00    +0.000 C 
ATOM     25  C   UNL     1       0.451  12.382  20.226  0.00  0.00    +0.000 C 
ATOM     26  C   UNL     1       1.939  12.747  20.086  0.00  0.00    +0.000 C 
ATOM     27  C   UNL     1       2.235  13.571  18.833  0.00  0.00    +0.000 C 
BRANCH  20  28
ATOM     28  C   UNL     1       3.215  16.322  18.308  0.00  0.00    +0.000 C 
BRANCH  28  30
ATOM     29  C   UNL     1       5.327  17.047  19.078  0.00  0.00    +0.000 C 
ATOM     30  O   UNL     1       4.055  16.517  19.441  0.00  0.00    +0.000 OA
ENDBRANCH  28  30
ENDBRANCH  20  28
ENDBRANCH  19  25
ENDBRANCH   1  19
TORSDOF 9
ENDMDL
