MODEL 1
REMARK VINA RESULT:      -8.9      0.000      0.000
REMARK  Name = 
REMARK  3 active torsions:
REMARK  status: ('A' for Active; 'I' for Inactive)
REMARK    1  A    between atoms: C_11  and  C_12
REMARK    2  A    between atoms: N_15  and  C_16
REMARK    3  A    between atoms: C_16  and  C_17
REMARK                            x       y       z     vdW  Elec       q    Type
REMARK                         _______ _______ _______ _____ _____    ______ ____
ROOT
ATOM      1  C   UNL     1       2.909   7.431  18.831  0.00  0.00    +0.000 A 
ATOM      2  C   UNL     1       2.635   8.174  17.689  0.00  0.00    +0.000 A 
ATOM      3  C   UNL     1       1.771   9.256  17.773  0.00  0.00    +0.000 A 
ATOM      4  N   UNL     1       1.091   9.503  18.912  0.00  0.00    +0.000 N 
ATOM      5  C   UNL     1       1.164   8.641  19.956  0.00  0.00    +0.000 A 
ATOM      6  C   UNL     1       2.091   7.603  19.941  0.00  0.00    +0.000 A 
ENDROOT
BRANCH   1  17
ATOM      7  O   UNL     1       6.434   4.857  19.123  0.00  0.00    +0.000 OA
ATOM      8  C   UNL     1       5.319   4.397  19.008  0.00  0.00    +0.000 C 
ATOM      9  N   UNL     1       4.939   3.070  19.086  0.00  0.00    +0.000 N 
ATOM     10  C   UNL     1       3.556   2.928  18.949  0.00  0.00    +0.000 A 
ATOM     11  C   UNL     1       2.849   1.741  18.989  0.00  0.00    +0.000 A 
ATOM     12  C   UNL     1       1.464   1.809  18.820  0.00  0.00    +0.000 A 
ATOM     13  C   UNL     1       0.839   3.025  18.543  0.00  0.00    +0.000 A 
ATOM     14  C   UNL     1       1.581   4.207  18.467  0.00  0.00    +0.000 A 
ATOM     15  C   UNL     1       2.952   4.164  18.729  0.00  0.00    +0.000 A 
ATOM     16  C   UNL     1       4.022   5.165  18.842  0.00  0.00    +0.000 C 
ATOM     17  C   UNL     1       4.054   6.512  18.895  0.00  0.00    +0.000 C 
ATOM     18  H   UNL     1       5.602   2.324  19.178  0.00  0.00    +0.000 HD
ENDBRANCH   1  17
BRANCH   4  19
ATOM     19  C   UNL     1       0.318  10.758  19.038  0.00  0.00    +0.000 C 
BRANCH  19  20
ATOM     20  C   UNL     1      -1.081  10.665  18.469  0.00  0.00    +0.000 A 
ATOM     21  C   UNL     1      -1.436   9.822  17.400  0.00  0.00    +0.000 A 
ATOM     22  C   UNL     1      -2.721   9.859  16.849  0.00  0.00    +0.000 A 
ATOM     23  C   UNL     1      -3.682  10.718  17.370  0.00  0.00    +0.000 A 
ATOM     24  C   UNL     1      -3.358  11.516  18.457  0.00  0.00    +0.000 A 
ATOM     25  F   UNL     1      -4.279  12.337  18.977  0.00  0.00    +0.000 F 
ATOM     26  C   UNL     1      -2.078  11.494  19.011  0.00  0.00    +0.000 A 
ENDBRANCH  19  20
ENDBRANCH   4  19
TORSDOF 3
ENDMDL
MODEL 2
REMARK VINA RESULT:      -8.7      1.265      1.610
REMARK  Name = 
REMARK  3 active torsions:
REMARK  status: ('A' for Active; 'I' for Inactive)
REMARK    1  A    between atoms: C_11  and  C_12
REMARK    2  A    between atoms: N_15  and  C_16
REMARK    3  A    between atoms: C_16  and  C_17
REMARK                            x       y       z     vdW  Elec       q    Type
REMARK                         _______ _______ _______ _____ _____    ______ ____
ROOT
ATOM      1  C   UNL     1       2.822   7.567  18.312  0.00  0.00    +0.000 A 
ATOM      2  C   UNL     1       2.266   8.581  17.542  0.00  0.00    +0.000 A 
ATOM      3  C   UNL     1       1.469   9.538  18.153  0.00  0.00    +0.000 A 
ATOM      4  N   UNL     1       1.116   9.411  19.449  0.00  0.00    +0.000 N 
ATOM      5  C   UNL     1       1.451   8.297  20.146  0.00  0.00    +0.000 A 
ATOM      6  C   UNL     1       2.328   7.367  19.596  0.00  0.00    +0.000 A 
ENDROOT
BRANCH   1  17
ATOM      7  O   UNL     1       6.264   5.277  16.884  0.00  0.00    +0.000 OA
ATOM      8  C   UNL     1       5.232   4.734  17.211  0.00  0.00    +0.000 C 
ATOM      9  N   UNL     1       4.991   3.378  17.334  0.00  0.00    +0.000 N 
ATOM     10  C   UNL     1       3.691   3.131  17.780  0.00  0.00    +0.000 A 
ATOM     11  C   UNL     1       3.130   1.890  18.017  0.00  0.00    +0.000 A 
ATOM     12  C   UNL     1       1.803   1.854  18.453  0.00  0.00    +0.000 A 
ATOM     13  C   UNL     1       1.057   3.027  18.564  0.00  0.00    +0.000 A 
ATOM     14  C   UNL     1       1.635   4.268  18.279  0.00  0.00    +0.000 A 
ATOM     15  C   UNL     1       2.986   4.323  17.936  0.00  0.00    +0.000 A 
ATOM     16  C   UNL     1       3.950   5.401  17.669  0.00  0.00    +0.000 C 
ATOM     17  C   UNL     1       3.931   6.742  17.814  0.00  0.00    +0.000 C 
ATOM     18  H   UNL     1       5.667   2.685  17.077  0.00  0.00    +0.000 HD
ENDBRANCH   1  17
BRANCH   4  19
ATOM     19  C   UNL     1       0.420  10.528  20.124  0.00  0.00    +0.000 C 
BRANCH  19  20
ATOM     20  C   UNL     1      -0.903  10.889  19.485  0.00  0.00    +0.000 A 
ATOM     21  C   UNL     1      -1.715  11.954  19.916  0.00  0.00    +0.000 A 
ATOM     22  C   UNL     1      -2.978  12.170  19.355  0.00  0.00    +0.000 A 
ATOM     23  C   UNL     1      -3.443  11.345  18.337  0.00  0.00    +0.000 A 
ATOM     24  C   UNL     1      -2.629  10.324  17.869  0.00  0.00    +0.000 A 
ATOM     25  F   UNL     1      -3.061   9.532  16.880  0.00  0.00    +0.000 F 
ATOM     26  C   UNL     1      -1.372  10.093  18.425  0.00  0.00    +0.000 A 
ENDBRANCH  19  20
ENDBRANCH   4  19
TORSDOF 3
ENDMDL
MODEL 3
REMARK VINA RESULT:      -8.7      3.695      8.101
REMARK  Name = 
REMARK  3 active torsions:
REMARK  status: ('A' for Active; 'I' for Inactive)
REMARK    1  A    between atoms: C_11  and  C_12
REMARK    2  A    between atoms: N_15  and  C_16
REMARK    3  A    between atoms: C_16  and  C_17
REMARK                            x       y       z     vdW  Elec       q    Type
REMARK                         _______ _______ _______ _____ _____    ______ ____
ROOT
ATOM      1  C   UNL     1       0.716   9.899  19.644  0.00  0.00    +0.000 A 
ATOM      2  C   UNL     1       1.343   9.973  18.407  0.00  0.00    +0.000 A 
ATOM      3  C   UNL     1       2.050   8.876  17.936  0.00  0.00    +0.000 A 
ATOM      4  N   UNL     1       2.252   7.800  18.726  0.00  0.00    +0.000 N 
ATOM      5  C   UNL     1       1.854   7.816  20.021  0.00  0.00    +0.000 A 
ATOM      6  C   UNL     1       1.061   8.856  20.497  0.00  0.00    +0.000 A 
ENDROOT
BRANCH   1  17
ATOM      7  O   UNL     1      -2.203  12.878  20.960  0.00  0.00    +0.000 OA
ATOM      8  C   UNL     1      -2.348  12.259  19.930  0.00  0.00    +0.000 C 
ATOM      9  N   UNL     1      -3.311  12.451  18.956  0.00  0.00    +0.000 N 
ATOM     10  C   UNL     1      -3.132  11.572  17.884  0.00  0.00    +0.000 A 
ATOM     11  C   UNL     1      -3.911  11.505  16.745  0.00  0.00    +0.000 A 
ATOM     12  C   UNL     1      -3.573  10.545  15.788  0.00  0.00    +0.000 A 
ATOM     13  C   UNL     1      -2.536   9.641  16.020  0.00  0.00    +0.000 A 
ATOM     14  C   UNL     1      -1.789   9.703  17.199  0.00  0.00    +0.000 A 
ATOM     15  C   UNL     1      -2.056  10.719  18.119  0.00  0.00    +0.000 A 
ATOM     16  C   UNL     1      -1.451  11.166  19.382  0.00  0.00    +0.000 C 
ATOM     17  C   UNL     1      -0.316  10.865  20.044  0.00  0.00    +0.000 C 
ATOM     18  H   UNL     1      -4.059  13.109  19.059  0.00  0.00    +0.000 HD
ENDBRANCH   1  17
BRANCH   4  19
ATOM     19  C   UNL     1       2.848   6.577  18.145  0.00  0.00    +0.000 C 
BRANCH  19  20
ATOM     20  C   UNL     1       2.324   5.299  18.762  0.00  0.00    +0.000 A 
ATOM     21  C   UNL     1       1.546   4.357  18.065  0.00  0.00    +0.000 A 
ATOM     22  C   UNL     1       1.000   3.247  18.719  0.00  0.00    +0.000 A 
ATOM     23  C   UNL     1       1.241   3.044  20.074  0.00  0.00    +0.000 A 
ATOM     24  C   UNL     1       2.049   3.940  20.759  0.00  0.00    +0.000 A 
ATOM     25  F   UNL     1       2.299   3.747  22.060  0.00  0.00    +0.000 F 
ATOM     26  C   UNL     1       2.592   5.054  20.120  0.00  0.00    +0.000 A 
ENDBRANCH  19  20
ENDBRANCH   4  19
TORSDOF 3
ENDMDL
MODEL 4
REMARK VINA RESULT:      -8.7      3.884      8.396
REMARK  Name = 
REMARK  3 active torsions:
REMARK  status: ('A' for Active; 'I' for Inactive)
REMARK    1  A    between atoms: C_11  and  C_12
REMARK    2  A    between atoms: N_15  and  C_16
REMARK    3  A    between atoms: C_16  and  C_17
REMARK                            x       y       z     vdW  Elec       q    Type
REMARK                         _______ _______ _______ _____ _____    ______ ____
ROOT
ATOM      1  C   UNL     1       1.630   7.647  20.318  0.00  0.00    +0.000 A 
ATOM      2  C   UNL     1       1.790   6.267  20.350  0.00  0.00    +0.000 A 
ATOM      3  C   UNL     1       2.586   5.653  19.395  0.00  0.00    +0.000 A 
ATOM      4  N   UNL     1       3.085   6.361  18.360  0.00  0.00    +0.000 N 
ATOM      5  C   UNL     1       2.734   7.658  18.184  0.00  0.00    +0.000 A 
ATOM      6  C   UNL     1       2.018   8.329  19.171  0.00  0.00    +0.000 A 
ENDROOT
BRANCH   1  17
ATOM      7  O   UNL     1       0.238   9.786  23.871  0.00  0.00    +0.000 OA
ATOM      8  C   UNL     1      -0.125  10.099  22.759  0.00  0.00    +0.000 C 
ATOM      9  N   UNL     1      -0.877  11.200  22.392  0.00  0.00    +0.000 N 
ATOM     10  C   UNL     1      -1.058  11.254  21.008  0.00  0.00    +0.000 A 
ATOM     11  C   UNL     1      -1.750  12.227  20.312  0.00  0.00    +0.000 A 
ATOM     12  C   UNL     1      -1.826  12.096  18.923  0.00  0.00    +0.000 A 
ATOM     13  C   UNL     1      -1.289  10.980  18.282  0.00  0.00    +0.000 A 
ATOM     14  C   UNL     1      -0.629   9.988  19.012  0.00  0.00    +0.000 A 
ATOM     15  C   UNL     1      -0.463  10.156  20.388  0.00  0.00    +0.000 A 
ATOM     16  C   UNL     1       0.231   9.417  21.452  0.00  0.00    +0.000 C 
ATOM     17  C   UNL     1       1.103   8.388  21.472  0.00  0.00    +0.000 C 
ATOM     18  H   UNL     1      -1.270  11.831  23.063  0.00  0.00    +0.000 HD
ENDBRANCH   1  17
BRANCH   4  19
ATOM     19  C   UNL     1       4.073   5.729  17.459  0.00  0.00    +0.000 C 
BRANCH  19  20
ATOM     20  C   UNL     1       5.508   5.964  17.877  0.00  0.00    +0.000 A 
ATOM     21  C   UNL     1       6.162   5.220  18.876  0.00  0.00    +0.000 A 
ATOM     22  C   UNL     1       7.455   5.554  19.294  0.00  0.00    +0.000 A 
ATOM     23  C   UNL     1       8.127   6.621  18.706  0.00  0.00    +0.000 A 
ATOM     24  C   UNL     1       7.510   7.329  17.685  0.00  0.00    +0.000 A 
ATOM     25  F   UNL     1       8.153   8.348  17.102  0.00  0.00    +0.000 F 
ATOM     26  C   UNL     1       6.220   7.010  17.265  0.00  0.00    +0.000 A 
ENDBRANCH  19  20
ENDBRANCH   4  19
TORSDOF 3
ENDMDL
MODEL 5
REMARK VINA RESULT:      -8.6      3.661      8.157
REMARK  Name = 
REMARK  3 active torsions:
REMARK  status: ('A' for Active; 'I' for Inactive)
REMARK    1  A    between atoms: C_11  and  C_12
REMARK    2  A    between atoms: N_15  and  C_16
REMARK    3  A    between atoms: C_16  and  C_17
REMARK                            x       y       z     vdW  Elec       q    Type
REMARK                         _______ _______ _______ _____ _____    ______ ____
ROOT
ATOM      1  C   UNL     1       0.869   9.858  19.668  0.00  0.00    +0.000 A 
ATOM      2  C   UNL     1       1.473   9.823  18.417  0.00  0.00    +0.000 A 
ATOM      3  C   UNL     1       2.092   8.656  17.994  0.00  0.00    +0.000 A 
ATOM      4  N   UNL     1       2.235   7.611  18.837  0.00  0.00    +0.000 N 
ATOM      5  C   UNL     1       1.866   7.723  20.136  0.00  0.00    +0.000 A 
ATOM      6  C   UNL     1       1.158   8.840  20.569  0.00  0.00    +0.000 A 
ENDROOT
BRANCH   1  17
ATOM      7  O   UNL     1      -1.807  13.105  20.864  0.00  0.00    +0.000 OA
ATOM      8  C   UNL     1      -2.036  12.419  19.893  0.00  0.00    +0.000 C 
ATOM      9  N   UNL     1      -3.031  12.594  18.949  0.00  0.00    +0.000 N 
ATOM     10  C   UNL     1      -2.955  11.626  17.944  0.00  0.00    +0.000 A 
ATOM     11  C   UNL     1      -3.789  11.520  16.848  0.00  0.00    +0.000 A 
ATOM     12  C   UNL     1      -3.553  10.470  15.957  0.00  0.00    +0.000 A 
ATOM     13  C   UNL     1      -2.561   9.524  16.217  0.00  0.00    +0.000 A 
ATOM     14  C   UNL     1      -1.756   9.631  17.354  0.00  0.00    +0.000 A 
ATOM     15  C   UNL     1      -1.920  10.728  18.200  0.00  0.00    +0.000 A 
ATOM     16  C   UNL     1      -1.232  11.233  19.397  0.00  0.00    +0.000 C 
ATOM     17  C   UNL     1      -0.085  10.915  20.032  0.00  0.00    +0.000 C 
ATOM     18  H   UNL     1      -3.733  13.303  19.031  0.00  0.00    +0.000 HD
ENDBRANCH   1  17
BRANCH   4  19
ATOM     19  C   UNL     1       2.733   6.321  18.313  0.00  0.00    +0.000 C 
BRANCH  19  20
ATOM     20  C   UNL     1       2.268   5.125  19.116  0.00  0.00    +0.000 A 
ATOM     21  C   UNL     1       2.650   4.882  20.448  0.00  0.00    +0.000 A 
ATOM     22  C   UNL     1       2.275   3.704  21.102  0.00  0.00    +0.000 A 
ATOM     23  C   UNL     1       1.492   2.759  20.448  0.00  0.00    +0.000 A 
ATOM     24  C   UNL     1       1.068   3.012  19.152  0.00  0.00    +0.000 A 
ATOM     25  F   UNL     1       0.302   2.115  18.518  0.00  0.00    +0.000 F 
ATOM     26  C   UNL     1       1.441   4.178  18.487  0.00  0.00    +0.000 A 
ENDBRANCH  19  20
ENDBRANCH   4  19
TORSDOF 3
ENDMDL
MODEL 6
REMARK VINA RESULT:      -8.6      4.023      8.723
REMARK  Name = 
REMARK  3 active torsions:
REMARK  status: ('A' for Active; 'I' for Inactive)
REMARK    1  A    between atoms: C_11  and  C_12
REMARK    2  A    between atoms: N_15  and  C_16
REMARK    3  A    between atoms: C_16  and  C_17
REMARK                            x       y       z     vdW  Elec       q    Type
REMARK                         _______ _______ _______ _____ _____    ______ ____
ROOT
ATOM      1  C   UNL     1       0.714   9.558  19.151  0.00  0.00    +0.000 A 
ATOM      2  C   UNL     1       1.391   9.269  17.972  0.00  0.00    +0.000 A 
ATOM      3  C   UNL     1       2.187   8.135  17.906  0.00  0.00    +0.000 A 
ATOM      4  N   UNL     1       2.420   7.396  19.011  0.00  0.00    +0.000 N 
ATOM      5  C   UNL     1       1.963   7.805  20.219  0.00  0.00    +0.000 A 
ATOM      6  C   UNL     1       1.085   8.881  20.307  0.00  0.00    +0.000 A 
ENDROOT
BRANCH   1  17
ATOM      7  O   UNL     1      -2.703  12.279  19.374  0.00  0.00    +0.000 OA
ATOM      8  C   UNL     1      -1.580  12.686  19.178  0.00  0.00    +0.000 C 
ATOM      9  N   UNL     1      -1.150  14.000  19.134  0.00  0.00    +0.000 N 
ATOM     10  C   UNL     1       0.229  14.078  18.931  0.00  0.00    +0.000 A 
ATOM     11  C   UNL     1       0.978  15.236  18.848  0.00  0.00    +0.000 A 
ATOM     12  C   UNL     1       2.352  15.102  18.630  0.00  0.00    +0.000 A 
ATOM     13  C   UNL     1       2.922  13.845  18.427  0.00  0.00    +0.000 A 
ATOM     14  C   UNL     1       2.136  12.691  18.477  0.00  0.00    +0.000 A 
ATOM     15  C   UNL     1       0.781  12.806  18.788  0.00  0.00    +0.000 A 
ATOM     16  C   UNL     1      -0.318  11.859  19.023  0.00  0.00    +0.000 C 
ATOM     17  C   UNL     1      -0.394  10.522  19.186  0.00  0.00    +0.000 C 
ATOM     18  H   UNL     1      -1.782  14.775  19.191  0.00  0.00    +0.000 HD
ENDBRANCH   1  17
BRANCH   4  19
ATOM     19  C   UNL     1       3.119   6.098  18.880  0.00  0.00    +0.000 C 
BRANCH  19  20
ATOM     20  C   UNL     1       2.399   4.954  19.561  0.00  0.00    +0.000 A 
ATOM     21  C   UNL     1       2.537   4.648  20.927  0.00  0.00    +0.000 A 
ATOM     22  C   UNL     1       1.931   3.513  21.476  0.00  0.00    +0.000 A 
ATOM     23  C   UNL     1       1.155   2.679  20.679  0.00  0.00    +0.000 A 
ATOM     24  C   UNL     1       0.971   3.000  19.342  0.00  0.00    +0.000 A 
ATOM     25  F   UNL     1       0.214   2.212  18.568  0.00  0.00    +0.000 F 
ATOM     26  C   UNL     1       1.576   4.124  18.782  0.00  0.00    +0.000 A 
ENDBRANCH  19  20
ENDBRANCH   4  19
TORSDOF 3
ENDMDL
MODEL 7
REMARK VINA RESULT:      -8.6      4.108      8.539
REMARK  Name = 
REMARK  3 active torsions:
REMARK  status: ('A' for Active; 'I' for Inactive)
REMARK    1  A    between atoms: C_11  and  C_12
REMARK    2  A    between atoms: N_15  and  C_16
REMARK    3  A    between atoms: C_16  and  C_17
REMARK                            x       y       z     vdW  Elec       q    Type
REMARK                         _______ _______ _______ _____ _____    ______ ____
ROOT
ATOM      1  C   UNL     1       0.966   9.743  19.561  0.00  0.00    +0.000 A 
ATOM      2  C   UNL     1       1.551   9.864  18.307  0.00  0.00    +0.000 A 
ATOM      3  C   UNL     1       2.192   8.768  17.747  0.00  0.00    +0.000 A 
ATOM      4  N   UNL     1       2.372   7.640  18.465  0.00  0.00    +0.000 N 
ATOM      5  C   UNL     1       2.022   7.595  19.773  0.00  0.00    +0.000 A 
ATOM      6  C   UNL     1       1.293   8.638  20.338  0.00  0.00    +0.000 A 
ENDROOT
BRANCH   1  17
ATOM      7  O   UNL     1      -1.766  12.768  21.149  0.00  0.00    +0.000 OA
ATOM      8  C   UNL     1      -2.001  12.179  20.117  0.00  0.00    +0.000 C 
ATOM      9  N   UNL     1      -3.023  12.422  19.218  0.00  0.00    +0.000 N 
ATOM     10  C   UNL     1      -2.946  11.566  18.116  0.00  0.00    +0.000 A 
ATOM     11  C   UNL     1      -3.804  11.549  17.033  0.00  0.00    +0.000 A 
ATOM     12  C   UNL     1      -3.561  10.605  16.032  0.00  0.00    +0.000 A 
ATOM     13  C   UNL     1      -2.538   9.668  16.170  0.00  0.00    +0.000 A 
ATOM     14  C   UNL     1      -1.708   9.679  17.295  0.00  0.00    +0.000 A 
ATOM     15  C   UNL     1      -1.881  10.678  18.254  0.00  0.00    +0.000 A 
ATOM     16  C   UNL     1      -1.177  11.076  19.482  0.00  0.00    +0.000 C 
ATOM     17  C   UNL     1      -0.007  10.727  20.055  0.00  0.00    +0.000 C 
ATOM     18  H   UNL     1      -3.743  13.097  19.389  0.00  0.00    +0.000 HD
ENDBRANCH   1  17
BRANCH   4  19
ATOM     19  C   UNL     1       2.893   6.429  17.792  0.00  0.00    +0.000 C 
BRANCH  19  20
ATOM     20  C   UNL     1       4.359   6.171  18.064  0.00  0.00    +0.000 A 
ATOM     21  C   UNL     1       4.826   5.303  19.068  0.00  0.00    +0.000 A 
ATOM     22  C   UNL     1       6.193   5.188  19.342  0.00  0.00    +0.000 A 
ATOM     23  C   UNL     1       7.119   5.917  18.604  0.00  0.00    +0.000 A 
ATOM     24  C   UNL     1       6.672   6.737  17.578  0.00  0.00    +0.000 A 
ATOM     25  F   UNL     1       7.556   7.432  16.851  0.00  0.00    +0.000 F 
ATOM     26  C   UNL     1       5.312   6.866  17.300  0.00  0.00    +0.000 A 
ENDBRANCH  19  20
ENDBRANCH   4  19
TORSDOF 3
ENDMDL
MODEL 8
REMARK VINA RESULT:      -8.5      3.954      8.594
REMARK  Name = 
REMARK  3 active torsions:
REMARK  status: ('A' for Active; 'I' for Inactive)
REMARK    1  A    between atoms: C_11  and  C_12
REMARK    2  A    between atoms: N_15  and  C_16
REMARK    3  A    between atoms: C_16  and  C_17
REMARK                            x       y       z     vdW  Elec       q    Type
REMARK                         _______ _______ _______ _____ _____    ______ ____
ROOT
ATOM      1  C   UNL     1       0.850   9.389  19.017  0.00  0.00    +0.000 A 
ATOM      2  C   UNL     1       1.680   9.104  17.940  0.00  0.00    +0.000 A 
ATOM      3  C   UNL     1       2.519   8.001  18.001  0.00  0.00    +0.000 A 
ATOM      4  N   UNL     1       2.638   7.292  19.143  0.00  0.00    +0.000 N 
ATOM      5  C   UNL     1       2.017   7.706  20.275  0.00  0.00    +0.000 A 
ATOM      6  C   UNL     1       1.096   8.748  20.226  0.00  0.00    +0.000 A 
ENDROOT
BRANCH   1  17
ATOM      7  O   UNL     1      -2.668  11.973  18.735  0.00  0.00    +0.000 OA
ATOM      8  C   UNL     1      -1.545  12.426  18.728  0.00  0.00    +0.000 C 
ATOM      9  N   UNL     1      -1.168  13.756  18.774  0.00  0.00    +0.000 N 
ATOM     10  C   UNL     1       0.222  13.891  18.796  0.00  0.00    +0.000 A 
ATOM     11  C   UNL     1       0.927  15.078  18.852  0.00  0.00    +0.000 A 
ATOM     12  C   UNL     1       2.322  15.001  18.856  0.00  0.00    +0.000 A 
ATOM     13  C   UNL     1       2.968  13.772  18.726  0.00  0.00    +0.000 A 
ATOM     14  C   UNL     1       2.232  12.587  18.630  0.00  0.00    +0.000 A 
ATOM     15  C   UNL     1       0.841  12.644  18.722  0.00  0.00    +0.000 A 
ATOM     16  C   UNL     1      -0.242  11.651  18.764  0.00  0.00    +0.000 C 
ATOM     17  C   UNL     1      -0.288  10.309  18.890  0.00  0.00    +0.000 C 
ATOM     18  H   UNL     1      -1.832  14.505  18.743  0.00  0.00    +0.000 HD
ENDBRANCH   1  17
BRANCH   4  19
ATOM     19  C   UNL     1       3.394   6.021  19.131  0.00  0.00    +0.000 C 
BRANCH  19  20
ATOM     20  C   UNL     1       2.517   4.796  19.275  0.00  0.00    +0.000 A 
ATOM     21  C   UNL     1       1.872   4.166  18.194  0.00  0.00    +0.000 A 
ATOM     22  C   UNL     1       0.988   3.102  18.403  0.00  0.00    +0.000 A 
ATOM     23  C   UNL     1       0.751   2.632  19.690  0.00  0.00    +0.000 A 
ATOM     24  C   UNL     1       1.421   3.213  20.757  0.00  0.00    +0.000 A 
ATOM     25  F   UNL     1       1.211   2.758  21.999  0.00  0.00    +0.000 F 
ATOM     26  C   UNL     1       2.298   4.278  20.563  0.00  0.00    +0.000 A 
ENDBRANCH  19  20
ENDBRANCH   4  19
TORSDOF 3
ENDMDL
MODEL 9
REMARK VINA RESULT:      -8.5      1.752      3.082
REMARK  Name = 
REMARK  3 active torsions:
REMARK  status: ('A' for Active; 'I' for Inactive)
REMARK    1  A    between atoms: C_11  and  C_12
REMARK    2  A    between atoms: N_15  and  C_16
REMARK    3  A    between atoms: C_16  and  C_17
REMARK                            x       y       z     vdW  Elec       q    Type
REMARK                         _______ _______ _______ _____ _____    ______ ____
ROOT
ATOM      1  C   UNL     1       2.208   6.981  18.665  0.00  0.00    +0.000 A 
ATOM      2  C   UNL     1       1.924   7.441  19.945  0.00  0.00    +0.000 A 
ATOM      3  C   UNL     1       1.429   8.726  20.112  0.00  0.00    +0.000 A 
ATOM      4  N   UNL     1       1.356   9.573  19.064  0.00  0.00    +0.000 N 
ATOM      5  C   UNL     1       1.858   9.217  17.857  0.00  0.00    +0.000 A 
ATOM      6  C   UNL     1       2.273   7.908  17.631  0.00  0.00    +0.000 A 
ENDROOT
BRANCH   1  17
ATOM      7  O   UNL     1       2.551   2.706  17.807  0.00  0.00    +0.000 OA
ATOM      8  C   UNL     1       3.481   3.464  17.640  0.00  0.00    +0.000 C 
ATOM      9  N   UNL     1       4.702   3.189  17.051  0.00  0.00    +0.000 N 
ATOM     10  C   UNL     1       5.507   4.329  16.993  0.00  0.00    +0.000 A 
ATOM     11  C   UNL     1       6.779   4.405  16.459  0.00  0.00    +0.000 A 
ATOM     12  C   UNL     1       7.426   5.642  16.505  0.00  0.00    +0.000 A 
ATOM     13  C   UNL     1       6.833   6.733  17.141  0.00  0.00    +0.000 A 
ATOM     14  C   UNL     1       5.562   6.621  17.710  0.00  0.00    +0.000 A 
ATOM     15  C   UNL     1       4.867   5.417  17.584  0.00  0.00    +0.000 A 
ATOM     16  C   UNL     1       3.521   4.949  17.945  0.00  0.00    +0.000 C 
ATOM     17  C   UNL     1       2.397   5.551  18.385  0.00  0.00    +0.000 C 
ATOM     18  H   UNL     1       4.965   2.267  16.761  0.00  0.00    +0.000 HD
ENDBRANCH   1  17
BRANCH   4  19
ATOM     19  C   UNL     1       0.660  10.869  19.227  0.00  0.00    +0.000 C 
BRANCH  19  20
ATOM     20  C   UNL     1      -0.783  10.840  18.771  0.00  0.00    +0.000 A 
ATOM     21  C   UNL     1      -1.255  10.026  17.725  0.00  0.00    +0.000 A 
ATOM     22  C   UNL     1      -2.577  10.122  17.277  0.00  0.00    +0.000 A 
ATOM     23  C   UNL     1      -3.457  11.014  17.880  0.00  0.00    +0.000 A 
ATOM     24  C   UNL     1      -3.015  11.784  18.946  0.00  0.00    +0.000 A 
ATOM     25  F   UNL     1      -3.858  12.636  19.544  0.00  0.00    +0.000 F 
ATOM     26  C   UNL     1      -1.699  11.703  19.396  0.00  0.00    +0.000 A 
ENDBRANCH  19  20
ENDBRANCH   4  19
TORSDOF 3
ENDMDL
