MODEL 1
REMARK VINA RESULT:      -8.5      0.000      0.000
REMARK  Name = 
REMARK  5 active torsions:
REMARK  status: ('A' for Active; 'I' for Inactive)
REMARK    1  A    between atoms: C_1  and  O_2
REMARK    2  A    between atoms: O_2  and  C_3
REMARK    3  A    between atoms: C_6  and  C_7
REMARK    4  A    between atoms: C_27  and  O_28
REMARK    5  A    between atoms: O_28  and  C_29
REMARK                            x       y       z     vdW  Elec       q    Type
REMARK                         _______ _______ _______ _____ _____    ______ ____
ROOT
ATOM      1  C   UNL     1       5.476   4.565  18.329  0.00  0.00    +0.000 C 
ATOM      2  O   UNL     1       6.285   4.347  19.230  0.00  0.00    +0.000 OA
ATOM      3  N   UNL     1       4.153   4.908  18.627  0.00  0.00    +0.000 N 
ATOM      4  C   UNL     1       3.754   5.092  20.023  0.00  0.00    +0.000 C 
ATOM      5  C   UNL     1       2.242   5.363  20.007  0.00  0.00    +0.000 C 
ATOM      6  C   UNL     1       1.773   6.615  20.764  0.00  0.00    +0.000 C 
ATOM      7  N   UNL     1       1.751   7.661  19.763  0.00  0.00    +0.000 N 
ATOM      8  C   UNL     1       1.399   8.955  19.949  0.00  0.00    +0.000 A 
ATOM      9  N   UNL     1       1.442   9.836  18.963  0.00  0.00    +0.000 NA
ATOM     10  C   UNL     1       1.066  11.091  19.387  0.00  0.00    +0.000 A 
ATOM     11  C   UNL     1       1.026  12.249  18.582  0.00  0.00    +0.000 A 
ATOM     12  C   UNL     1       0.654  13.475  19.141  0.00  0.00    +0.000 A 
ATOM     13  C   UNL     1       0.310  13.546  20.487  0.00  0.00    +0.000 A 
ATOM     14 CL   UNL     1      -0.122  15.071  21.162  0.00  0.00    +0.000 Cl
ATOM     15  C   UNL     1       0.319  12.410  21.306  0.00  0.00    +0.000 A 
ATOM     16  C   UNL     1       0.705  11.186  20.730  0.00  0.00    +0.000 A 
ATOM     17  S   UNL     1       0.845   9.621  21.443  0.00  0.00    +0.000 S 
ATOM     18  C   UNL     1       2.143   7.186  18.445  0.00  0.00    +0.000 C 
ATOM     19  C   UNL     1       1.941   5.672  18.538  0.00  0.00    +0.000 C 
ATOM     20  C   UNL     1       2.973   4.866  17.772  0.00  0.00    +0.000 C 
ENDROOT
BRANCH   1  24
ATOM     21  C   UNL     1       6.735   4.438  14.193  0.00  0.00    +0.000 A 
ATOM     22  C   UNL     1       5.602   3.756  14.619  0.00  0.00    +0.000 A 
ATOM     23  C   UNL     1       5.188   3.843  15.950  0.00  0.00    +0.000 A 
ATOM     24  C   UNL     1       5.946   4.541  16.904  0.00  0.00    +0.000 A 
ATOM     25  C   UNL     1       7.053   5.293  16.458  0.00  0.00    +0.000 A 
ATOM     26  C   UNL     1       7.437   5.226  15.105  0.00  0.00    +0.000 A 
BRANCH  21  28
ATOM     27  C   UNL     1       6.325   3.270  12.164  0.00  0.00    +0.000 C 
ATOM     28  O   UNL     1       7.047   4.273  12.870  0.00  0.00    +0.000 OA
ENDBRANCH  21  28
BRANCH  25  29
ATOM     29  O   UNL     1       7.766   6.036  17.369  0.00  0.00    +0.000 OA
ATOM     30  C   UNL     1       7.424   7.423  17.457  0.00  0.00    +0.000 C 
ENDBRANCH  25  29
ENDBRANCH   1  24
TORSDOF 3
ENDMDL
MODEL 2
REMARK VINA RESULT:      -7.8      5.390     10.389
REMARK  Name = 
REMARK  5 active torsions:
REMARK  status: ('A' for Active; 'I' for Inactive)
REMARK    1  A    between atoms: C_1  and  O_2
REMARK    2  A    between atoms: O_2  and  C_3
REMARK    3  A    between atoms: C_6  and  C_7
REMARK    4  A    between atoms: C_27  and  O_28
REMARK    5  A    between atoms: O_28  and  C_29
REMARK                            x       y       z     vdW  Elec       q    Type
REMARK                         _______ _______ _______ _____ _____    ______ ____
ROOT
ATOM      1  C   UNL     1       0.514  12.534  20.810  0.00  0.00    +0.000 C 
ATOM      2  O   UNL     1       1.455  13.277  21.089  0.00  0.00    +0.000 OA
ATOM      3  N   UNL     1       0.636  11.582  19.792  0.00  0.00    +0.000 N 
ATOM      4  C   UNL     1       1.923  11.412  19.116  0.00  0.00    +0.000 C 
ATOM      5  C   UNL     1       1.693  10.373  18.007  0.00  0.00    +0.000 C 
ATOM      6  C   UNL     1       2.669   9.187  17.981  0.00  0.00    +0.000 C 
ATOM      7  N   UNL     1       2.021   8.163  18.775  0.00  0.00    +0.000 N 
ATOM      8  C   UNL     1       2.495   6.924  19.044  0.00  0.00    +0.000 A 
ATOM      9  N   UNL     1       1.828   6.074  19.808  0.00  0.00    +0.000 NA
ATOM     10  C   UNL     1       2.510   4.888  19.963  0.00  0.00    +0.000 A 
ATOM     11  C   UNL     1       2.075   3.790  20.734  0.00  0.00    +0.000 A 
ATOM     12  C   UNL     1       2.876   2.649  20.837  0.00  0.00    +0.000 A 
ATOM     13  C   UNL     1       4.094   2.596  20.168  0.00  0.00    +0.000 A 
ATOM     14 CL   UNL     1       5.078   1.190  20.328  0.00  0.00    +0.000 Cl
ATOM     15  C   UNL     1       4.543   3.661  19.378  0.00  0.00    +0.000 A 
ATOM     16  C   UNL     1       3.729   4.806  19.292  0.00  0.00    +0.000 A 
ATOM     17  S   UNL     1       3.981   6.284  18.438  0.00  0.00    +0.000 S 
ATOM     18  C   UNL     1       0.725   8.582  19.283  0.00  0.00    +0.000 C 
ATOM     19  C   UNL     1       0.343   9.747  18.367  0.00  0.00    +0.000 C 
ATOM     20  C   UNL     1      -0.407  10.862  19.070  0.00  0.00    +0.000 C 
ENDROOT
BRANCH   1  24
ATOM     21  C   UNL     1      -3.144  12.815  23.100  0.00  0.00    +0.000 A 
ATOM     22  C   UNL     1      -2.912  13.648  22.012  0.00  0.00    +0.000 A 
ATOM     23  C   UNL     1      -1.743  13.514  21.260  0.00  0.00    +0.000 A 
ATOM     24  C   UNL     1      -0.740  12.605  21.630  0.00  0.00    +0.000 A 
ATOM     25  C   UNL     1      -1.006  11.709  22.687  0.00  0.00    +0.000 A 
ATOM     26  C   UNL     1      -2.206  11.832  23.413  0.00  0.00    +0.000 A 
BRANCH  21  28
ATOM     27  C   UNL     1      -5.450  13.374  22.967  0.00  0.00    +0.000 C 
ATOM     28  O   UNL     1      -4.318  13.043  23.765  0.00  0.00    +0.000 OA
ENDBRANCH  21  28
BRANCH  25  29
ATOM     29  O   UNL     1      -0.060  10.768  23.019  0.00  0.00    +0.000 OA
ATOM     30  C   UNL     1      -0.434   9.402  22.817  0.00  0.00    +0.000 C 
ENDBRANCH  25  29
ENDBRANCH   1  24
TORSDOF 3
ENDMDL
MODEL 3
REMARK VINA RESULT:      -7.7      7.225     12.049
REMARK  Name = 
REMARK  5 active torsions:
REMARK  status: ('A' for Active; 'I' for Inactive)
REMARK    1  A    between atoms: C_1  and  O_2
REMARK    2  A    between atoms: O_2  and  C_3
REMARK    3  A    between atoms: C_6  and  C_7
REMARK    4  A    between atoms: C_27  and  O_28
REMARK    5  A    between atoms: O_28  and  C_29
REMARK                            x       y       z     vdW  Elec       q    Type
REMARK                         _______ _______ _______ _____ _____    ______ ____
ROOT
ATOM      1  C   UNL     1      -5.912  13.516  20.809  0.00  0.00    +0.000 C 
ATOM      2  O   UNL     1      -6.759  12.869  21.425  0.00  0.00    +0.000 OA
ATOM      3  N   UNL     1      -4.575  13.511  21.218  0.00  0.00    +0.000 N 
ATOM      4  C   UNL     1      -4.168  12.660  22.337  0.00  0.00    +0.000 C 
ATOM      5  C   UNL     1      -2.681  12.958  22.587  0.00  0.00    +0.000 C 
ATOM      6  C   UNL     1      -1.748  11.739  22.637  0.00  0.00    +0.000 C 
ATOM      7  N   UNL     1      -1.266  11.590  21.279  0.00  0.00    +0.000 N 
ATOM      8  C   UNL     1      -0.409  10.648  20.821  0.00  0.00    +0.000 A 
ATOM      9  N   UNL     1      -0.056  10.590  19.548  0.00  0.00    +0.000 NA
ATOM     10  C   UNL     1       0.803   9.540  19.307  0.00  0.00    +0.000 A 
ATOM     11  C   UNL     1       1.342   9.197  18.050  0.00  0.00    +0.000 A 
ATOM     12  C   UNL     1       2.182   8.085  17.931  0.00  0.00    +0.000 A 
ATOM     13  C   UNL     1       2.493   7.329  19.056  0.00  0.00    +0.000 A 
ATOM     14 CL   UNL     1       3.509   5.949  18.883  0.00  0.00    +0.000 Cl
ATOM     15  C   UNL     1       1.990   7.658  20.321  0.00  0.00    +0.000 A 
ATOM     16  C   UNL     1       1.139   8.773  20.421  0.00  0.00    +0.000 A 
ATOM     17  S   UNL     1       0.340   9.437  21.799  0.00  0.00    +0.000 S 
ATOM     18  C   UNL     1      -1.791  12.608  20.383  0.00  0.00    +0.000 C 
ATOM     19  C   UNL     1      -2.245  13.719  21.332  0.00  0.00    +0.000 C 
ATOM     20  C   UNL     1      -3.502  14.438  20.880  0.00  0.00    +0.000 C 
ENDROOT
BRANCH   1  24
ATOM     21  C   UNL     1      -7.068  15.718  17.270  0.00  0.00    +0.000 A 
ATOM     22  C   UNL     1      -6.904  16.358  18.492  0.00  0.00    +0.000 A 
ATOM     23  C   UNL     1      -6.489  15.638  19.614  0.00  0.00    +0.000 A 
ATOM     24  C   UNL     1      -6.316  14.245  19.561  0.00  0.00    +0.000 A 
ATOM     25  C   UNL     1      -6.411  13.606  18.307  0.00  0.00    +0.000 A 
ATOM     26  C   UNL     1      -6.793  14.354  17.176  0.00  0.00    +0.000 A 
BRANCH  21  28
ATOM     27  C   UNL     1      -7.070  17.884  16.294  0.00  0.00    +0.000 C 
ATOM     28  O   UNL     1      -7.483  16.523  16.244  0.00  0.00    +0.000 OA
ENDBRANCH  21  28
BRANCH  25  29
ATOM     29  O   UNL     1      -6.178  12.254  18.227  0.00  0.00    +0.000 OA
ATOM     30  C   UNL     1      -5.114  11.848  17.361  0.00  0.00    +0.000 C 
ENDBRANCH  25  29
ENDBRANCH   1  24
TORSDOF 3
ENDMDL
MODEL 4
REMARK VINA RESULT:      -7.7      2.636      3.821
REMARK  Name = 
REMARK  5 active torsions:
REMARK  status: ('A' for Active; 'I' for Inactive)
REMARK    1  A    between atoms: C_1  and  O_2
REMARK    2  A    between atoms: O_2  and  C_3
REMARK    3  A    between atoms: C_6  and  C_7
REMARK    4  A    between atoms: C_27  and  O_28
REMARK    5  A    between atoms: O_28  and  C_29
REMARK                            x       y       z     vdW  Elec       q    Type
REMARK                         _______ _______ _______ _____ _____    ______ ____
ROOT
ATOM      1  C   UNL     1       3.297   6.542  18.951  0.00  0.00    +0.000 C 
ATOM      2  O   UNL     1       3.433   6.003  20.049  0.00  0.00    +0.000 OA
ATOM      3  N   UNL     1       2.376   7.579  18.775  0.00  0.00    +0.000 N 
ATOM      4  C   UNL     1       1.632   8.085  19.930  0.00  0.00    +0.000 C 
ATOM      5  C   UNL     1       0.653   9.136  19.385  0.00  0.00    +0.000 C 
ATOM      6  C   UNL     1       0.680  10.506  20.080  0.00  0.00    +0.000 C 
ATOM      7  N   UNL     1       1.618  11.292  19.303  0.00  0.00    +0.000 N 
ATOM      8  C   UNL     1       1.977  12.578  19.525  0.00  0.00    +0.000 A 
ATOM      9  N   UNL     1       2.868  13.193  18.764  0.00  0.00    +0.000 NA
ATOM     10  C   UNL     1       3.095  14.482  19.189  0.00  0.00    +0.000 A 
ATOM     11  C   UNL     1       4.002  15.389  18.602  0.00  0.00    +0.000 A 
ATOM     12  C   UNL     1       4.164  16.666  19.148  0.00  0.00    +0.000 A 
ATOM     13  C   UNL     1       3.420  17.042  20.261  0.00  0.00    +0.000 A 
ATOM     14 CL   UNL     1       3.654  18.611  20.933  0.00  0.00    +0.000 Cl
ATOM     15  C   UNL     1       2.497  16.172  20.853  0.00  0.00    +0.000 A 
ATOM     16  C   UNL     1       2.352  14.888  20.297  0.00  0.00    +0.000 A 
ATOM     17  S   UNL     1       1.337  13.579  20.780  0.00  0.00    +0.000 S 
ATOM     18  C   UNL     1       2.169  10.557  18.177  0.00  0.00    +0.000 C 
ATOM     19  C   UNL     1       1.168   9.417  17.971  0.00  0.00    +0.000 C 
ATOM     20  C   UNL     1       1.805   8.109  17.542  0.00  0.00    +0.000 C 
ENDROOT
BRANCH   1  24
ATOM     21  C   UNL     1       5.945   5.440  15.712  0.00  0.00    +0.000 A 
ATOM     22  C   UNL     1       6.116   6.633  16.405  0.00  0.00    +0.000 A 
ATOM     23  C   UNL     1       5.276   6.951  17.475  0.00  0.00    +0.000 A 
ATOM     24  C   UNL     1       4.192   6.128  17.819  0.00  0.00    +0.000 A 
ATOM     25  C   UNL     1       4.063   4.884  17.166  0.00  0.00    +0.000 A 
ATOM     26  C   UNL     1       4.940   4.560  16.114  0.00  0.00    +0.000 A 
BRANCH  21  28
ATOM     27  C   UNL     1       6.497   4.201  13.761  0.00  0.00    +0.000 C 
ATOM     28  O   UNL     1       6.821   5.239  14.680  0.00  0.00    +0.000 OA
ENDBRANCH  21  28
BRANCH  25  29
ATOM     29  O   UNL     1       3.046   4.038  17.538  0.00  0.00    +0.000 OA
ATOM     30  C   UNL     1       3.445   2.788  18.110  0.00  0.00    +0.000 C 
ENDBRANCH  25  29
ENDBRANCH   1  24
TORSDOF 3
ENDMDL
MODEL 5
REMARK VINA RESULT:      -7.6      7.427     12.228
REMARK  Name = 
REMARK  5 active torsions:
REMARK  status: ('A' for Active; 'I' for Inactive)
REMARK    1  A    between atoms: C_1  and  O_2
REMARK    2  A    between atoms: O_2  and  C_3
REMARK    3  A    between atoms: C_6  and  C_7
REMARK    4  A    between atoms: C_27  and  O_28
REMARK    5  A    between atoms: O_28  and  C_29
REMARK                            x       y       z     vdW  Elec       q    Type
REMARK                         _______ _______ _______ _____ _____    ______ ____
ROOT
ATOM      1  C   UNL     1      -5.802  13.467  20.756  0.00  0.00    +0.000 C 
ATOM      2  O   UNL     1      -6.657  12.832  21.372  0.00  0.00    +0.000 OA
ATOM      3  N   UNL     1      -4.467  13.454  21.172  0.00  0.00    +0.000 N 
ATOM      4  C   UNL     1      -4.072  12.607  22.300  0.00  0.00    +0.000 C 
ATOM      5  C   UNL     1      -2.585  12.895  22.555  0.00  0.00    +0.000 C 
ATOM      6  C   UNL     1      -1.662  11.668  22.619  0.00  0.00    +0.000 C 
ATOM      7  N   UNL     1      -1.174  11.506  21.265  0.00  0.00    +0.000 N 
ATOM      8  C   UNL     1      -0.322  10.554  20.817  0.00  0.00    +0.000 A 
ATOM      9  N   UNL     1       0.037  10.483  19.547  0.00  0.00    +0.000 NA
ATOM     10  C   UNL     1       0.888   9.425  19.318  0.00  0.00    +0.000 A 
ATOM     11  C   UNL     1       1.431   9.069  18.066  0.00  0.00    +0.000 A 
ATOM     12  C   UNL     1       2.262   7.950  17.959  0.00  0.00    +0.000 A 
ATOM     13  C   UNL     1       2.561   7.199  19.091  0.00  0.00    +0.000 A 
ATOM     14 CL   UNL     1       3.567   5.809  18.933  0.00  0.00    +0.000 Cl
ATOM     15  C   UNL     1       2.054   7.540  20.351  0.00  0.00    +0.000 A 
ATOM     16  C   UNL     1       1.212   8.663  20.440  0.00  0.00    +0.000 A 
ATOM     17  S   UNL     1       0.411   9.343  21.809  0.00  0.00    +0.000 S 
ATOM     18  C   UNL     1      -1.686  12.522  20.358  0.00  0.00    +0.000 C 
ATOM     19  C   UNL     1      -2.136  13.643  21.298  0.00  0.00    +0.000 C 
ATOM     20  C   UNL     1      -3.384  14.370  20.833  0.00  0.00    +0.000 C 
ENDROOT
BRANCH   1  24
ATOM     21  C   UNL     1      -6.939  15.449  17.084  0.00  0.00    +0.000 A 
ATOM     22  C   UNL     1      -6.708  14.080  17.118  0.00  0.00    +0.000 A 
ATOM     23  C   UNL     1      -6.383  13.451  18.322  0.00  0.00    +0.000 A 
ATOM     24  C   UNL     1      -6.193  14.190  19.501  0.00  0.00    +0.000 A 
ATOM     25  C   UNL     1      -6.499  15.567  19.483  0.00  0.00    +0.000 A 
ATOM     26  C   UNL     1      -6.862  16.180  18.269  0.00  0.00    +0.000 A 
BRANCH  21  28
ATOM     27  C   UNL     1      -7.300  17.373  15.736  0.00  0.00    +0.000 C 
ATOM     28  O   UNL     1      -7.243  15.955  15.849  0.00  0.00    +0.000 OA
ENDBRANCH  21  28
BRANCH  25  29
ATOM     29  O   UNL     1      -6.383  16.292  20.645  0.00  0.00    +0.000 OA
ATOM     30  C   UNL     1      -7.610  16.664  21.281  0.00  0.00    +0.000 C 
ENDBRANCH  25  29
ENDBRANCH   1  24
TORSDOF 3
ENDMDL
MODEL 6
REMARK VINA RESULT:      -7.4      3.184      4.615
REMARK  Name = 
REMARK  5 active torsions:
REMARK  status: ('A' for Active; 'I' for Inactive)
REMARK    1  A    between atoms: C_1  and  O_2
REMARK    2  A    between atoms: O_2  and  C_3
REMARK    3  A    between atoms: C_6  and  C_7
REMARK    4  A    between atoms: C_27  and  O_28
REMARK    5  A    between atoms: O_28  and  C_29
REMARK                            x       y       z     vdW  Elec       q    Type
REMARK                         _______ _______ _______ _____ _____    ______ ____
ROOT
ATOM      1  C   UNL     1       2.431   6.848  19.239  0.00  0.00    +0.000 C 
ATOM      2  O   UNL     1       2.429   6.346  20.362  0.00  0.00    +0.000 OA
ATOM      3  N   UNL     1       1.764   8.053  18.995  0.00  0.00    +0.000 N 
ATOM      4  C   UNL     1       1.133   8.764  20.108  0.00  0.00    +0.000 C 
ATOM      5  C   UNL     1       0.418   9.978  19.493  0.00  0.00    +0.000 C 
ATOM      6  C   UNL     1       0.736  11.340  20.129  0.00  0.00    +0.000 C 
ATOM      7  N   UNL     1       1.835  11.863  19.342  0.00  0.00    +0.000 N 
ATOM      8  C   UNL     1       2.466  13.048  19.517  0.00  0.00    +0.000 A 
ATOM      9  N   UNL     1       3.481  13.414  18.752  0.00  0.00    +0.000 NA
ATOM     10  C   UNL     1       3.981  14.641  19.126  0.00  0.00    +0.000 A 
ATOM     11  C   UNL     1       5.074  15.298  18.523  0.00  0.00    +0.000 A 
ATOM     12  C   UNL     1       5.506  16.532  19.017  0.00  0.00    +0.000 A 
ATOM     13  C   UNL     1       4.847  17.116  20.094  0.00  0.00    +0.000 A 
ATOM     14 CL   UNL     1       5.411  18.626  20.702  0.00  0.00    +0.000 Cl
ATOM     15  C   UNL     1       3.746  16.499  20.700  0.00  0.00    +0.000 A 
ATOM     16  C   UNL     1       3.330  15.253  20.197  0.00  0.00    +0.000 A 
ATOM     17  S   UNL     1       2.044  14.223  20.710  0.00  0.00    +0.000 S 
ATOM     18  C   UNL     1       2.227  10.971  18.263  0.00  0.00    +0.000 C 
ATOM     19  C   UNL     1       1.003  10.070  18.082  0.00  0.00    +0.000 C 
ATOM     20  C   UNL     1       1.342   8.635  17.727  0.00  0.00    +0.000 C 
ENDROOT
BRANCH   1  24
ATOM     21  C   UNL     1       4.803   5.055  16.097  0.00  0.00    +0.000 A 
ATOM     22  C   UNL     1       5.050   6.351  16.532  0.00  0.00    +0.000 A 
ATOM     23  C   UNL     1       4.301   6.898  17.577  0.00  0.00    +0.000 A 
ATOM     24  C   UNL     1       3.229   6.194  18.149  0.00  0.00    +0.000 A 
ATOM     25  C   UNL     1       3.025   4.853  17.760  0.00  0.00    +0.000 A 
ATOM     26  C   UNL     1       3.814   4.303  16.732  0.00  0.00    +0.000 A 
BRANCH  21  28
ATOM     27  C   UNL     1       7.001   4.711  15.263  0.00  0.00    +0.000 C 
ATOM     28  O   UNL     1       5.594   4.629  15.065  0.00  0.00    +0.000 OA
ENDBRANCH  21  28
BRANCH  25  29
ATOM     29  O   UNL     1       2.022   4.130  18.360  0.00  0.00    +0.000 OA
ATOM     30  C   UNL     1       2.434   2.975  19.098  0.00  0.00    +0.000 C 
ENDBRANCH  25  29
ENDBRANCH   1  24
TORSDOF 3
ENDMDL
MODEL 7
REMARK VINA RESULT:      -7.3      7.250     12.196
REMARK  Name = 
REMARK  5 active torsions:
REMARK  status: ('A' for Active; 'I' for Inactive)
REMARK    1  A    between atoms: C_1  and  O_2
REMARK    2  A    between atoms: O_2  and  C_3
REMARK    3  A    between atoms: C_6  and  C_7
REMARK    4  A    between atoms: C_27  and  O_28
REMARK    5  A    between atoms: O_28  and  C_29
REMARK                            x       y       z     vdW  Elec       q    Type
REMARK                         _______ _______ _______ _____ _____    ______ ____
ROOT
ATOM      1  C   UNL     1      -5.364  13.232  22.037  0.00  0.00    +0.000 C 
ATOM      2  O   UNL     1      -6.146  12.530  22.679  0.00  0.00    +0.000 OA
ATOM      3  N   UNL     1      -3.987  13.164  22.275  0.00  0.00    +0.000 N 
ATOM      4  C   UNL     1      -3.470  12.188  23.235  0.00  0.00    +0.000 C 
ATOM      5  C   UNL     1      -1.956  12.438  23.331  0.00  0.00    +0.000 C 
ATOM      6  C   UNL     1      -1.056  11.209  23.131  0.00  0.00    +0.000 C 
ATOM      7  N   UNL     1      -0.747  11.208  21.716  0.00  0.00    +0.000 N 
ATOM      8  C   UNL     1       0.024  10.313  21.054  0.00  0.00    +0.000 A 
ATOM      9  N   UNL     1       0.219  10.393  19.749  0.00  0.00    +0.000 NA
ATOM     10  C   UNL     1       1.014   9.367  19.290  0.00  0.00    +0.000 A 
ATOM     11  C   UNL     1       1.388   9.161  17.946  0.00  0.00    +0.000 A 
ATOM     12  C   UNL     1       2.178   8.059  17.603  0.00  0.00    +0.000 A 
ATOM     13  C   UNL     1       2.603   7.178  18.591  0.00  0.00    +0.000 A 
ATOM     14 CL   UNL     1       3.555   5.813  18.143  0.00  0.00    +0.000 Cl
ATOM     15  C   UNL     1       2.266   7.368  19.936  0.00  0.00    +0.000 A 
ATOM     16  C   UNL     1       1.463   8.476  20.263  0.00  0.00    +0.000 A 
ATOM     17  S   UNL     1       0.854   8.990  21.794  0.00  0.00    +0.000 S 
ATOM     18  C   UNL     1      -1.349  12.326  21.008  0.00  0.00    +0.000 C 
ATOM     19  C   UNL     1      -1.656  13.329  22.123  0.00  0.00    +0.000 C 
ATOM     20  C   UNL     1      -2.939  14.110  21.911  0.00  0.00    +0.000 C 
ENDROOT
BRANCH   1  24
ATOM     21  C   UNL     1      -6.905  15.644  18.795  0.00  0.00    +0.000 A 
ATOM     22  C   UNL     1      -6.553  14.315  18.596  0.00  0.00    +0.000 A 
ATOM     23  C   UNL     1      -6.097  13.540  19.665  0.00  0.00    +0.000 A 
ATOM     24  C   UNL     1      -5.897  14.101  20.937  0.00  0.00    +0.000 A 
ATOM     25  C   UNL     1      -6.323  15.428  21.157  0.00  0.00    +0.000 A 
ATOM     26  C   UNL     1      -6.816  16.185  20.077  0.00  0.00    +0.000 A 
BRANCH  21  28
ATOM     27  C   UNL     1      -7.850  15.503  16.619  0.00  0.00    +0.000 C 
ATOM     28  O   UNL     1      -7.331  16.305  17.674  0.00  0.00    +0.000 OA
ENDBRANCH  21  28
BRANCH  25  29
ATOM     29  O   UNL     1      -6.195  15.969  22.413  0.00  0.00    +0.000 OA
ATOM     30  C   UNL     1      -5.845  17.356  22.469  0.00  0.00    +0.000 C 
ENDBRANCH  25  29
ENDBRANCH   1  24
TORSDOF 3
ENDMDL
MODEL 8
REMARK VINA RESULT:      -7.2      1.972      2.486
REMARK  Name = 
REMARK  5 active torsions:
REMARK  status: ('A' for Active; 'I' for Inactive)
REMARK    1  A    between atoms: C_1  and  O_2
REMARK    2  A    between atoms: O_2  and  C_3
REMARK    3  A    between atoms: C_6  and  C_7
REMARK    4  A    between atoms: C_27  and  O_28
REMARK    5  A    between atoms: O_28  and  C_29
REMARK                            x       y       z     vdW  Elec       q    Type
REMARK                         _______ _______ _______ _____ _____    ______ ____
ROOT
ATOM      1  C   UNL     1       4.188   5.857  18.655  0.00  0.00    +0.000 C 
ATOM      2  O   UNL     1       4.606   5.444  19.736  0.00  0.00    +0.000 OA
ATOM      3  N   UNL     1       3.066   6.691  18.596  0.00  0.00    +0.000 N 
ATOM      4  C   UNL     1       2.439   7.143  19.839  0.00  0.00    +0.000 C 
ATOM      5  C   UNL     1       1.198   7.950  19.427  0.00  0.00    +0.000 C 
ATOM      6  C   UNL     1       1.072   9.354  20.039  0.00  0.00    +0.000 C 
ATOM      7  N   UNL     1       1.697  10.232  19.071  0.00  0.00    +0.000 N 
ATOM      8  C   UNL     1       1.831  11.576  19.163  0.00  0.00    +0.000 A 
ATOM      9  N   UNL     1       2.446  12.279  18.227  0.00  0.00    +0.000 NA
ATOM     10  C   UNL     1       2.485  13.619  18.541  0.00  0.00    +0.000 A 
ATOM     11  C   UNL     1       3.088  14.626  17.759  0.00  0.00    +0.000 A 
ATOM     12  C   UNL     1       3.086  15.951  18.205  0.00  0.00    +0.000 A 
ATOM     13  C   UNL     1       2.478  16.274  19.414  0.00  0.00    +0.000 A 
ATOM     14 CL   UNL     1       2.509  17.908  19.957  0.00  0.00    +0.000 Cl
ATOM     15  C   UNL     1       1.853  15.300  20.202  0.00  0.00    +0.000 A 
ATOM     16  C   UNL     1       1.871  13.970  19.743  0.00  0.00    +0.000 A 
ATOM     17  S   UNL     1       1.225  12.541  20.462  0.00  0.00    +0.000 S 
ATOM     18  C   UNL     1       2.187   9.521  17.901  0.00  0.00    +0.000 C 
ATOM     19  C   UNL     1       1.407   8.204  17.932  0.00  0.00    +0.000 C 
ATOM     20  C   UNL     1       2.207   7.005  17.461  0.00  0.00    +0.000 C 
ENDROOT
BRANCH   1  24
ATOM     21  C   UNL     1       6.301   4.807  15.030  0.00  0.00    +0.000 A 
ATOM     22  C   UNL     1       5.282   4.003  15.525  0.00  0.00    +0.000 A 
ATOM     23  C   UNL     1       4.583   4.381  16.674  0.00  0.00    +0.000 A 
ATOM     24  C   UNL     1       4.946   5.524  17.404  0.00  0.00    +0.000 A 
ATOM     25  C   UNL     1       5.930   6.378  16.863  0.00  0.00    +0.000 A 
ATOM     26  C   UNL     1       6.600   6.003  15.683  0.00  0.00    +0.000 A 
BRANCH  21  28
ATOM     27  C   UNL     1       6.100   3.631  12.975  0.00  0.00    +0.000 C 
ATOM     28  O   UNL     1       6.918   4.333  13.904  0.00  0.00    +0.000 OA
ENDBRANCH  21  28
BRANCH  25  29
ATOM     29  O   UNL     1       6.250   7.535  17.532  0.00  0.00    +0.000 OA
ATOM     30  C   UNL     1       7.646   7.821  17.664  0.00  0.00    +0.000 C 
ENDBRANCH  25  29
ENDBRANCH   1  24
TORSDOF 3
ENDMDL
MODEL 9
REMARK VINA RESULT:      -7.2      5.424     10.563
REMARK  Name = 
REMARK  5 active torsions:
REMARK  status: ('A' for Active; 'I' for Inactive)
REMARK    1  A    between atoms: C_1  and  O_2
REMARK    2  A    between atoms: O_2  and  C_3
REMARK    3  A    between atoms: C_6  and  C_7
REMARK    4  A    between atoms: C_27  and  O_28
REMARK    5  A    between atoms: O_28  and  C_29
REMARK                            x       y       z     vdW  Elec       q    Type
REMARK                         _______ _______ _______ _____ _____    ______ ____
ROOT
ATOM      1  C   UNL     1       0.448  12.488  20.777  0.00  0.00    +0.000 C 
ATOM      2  O   UNL     1       1.375  13.239  21.078  0.00  0.00    +0.000 OA
ATOM      3  N   UNL     1       0.600  11.541  19.759  0.00  0.00    +0.000 N 
ATOM      4  C   UNL     1       1.903  11.387  19.108  0.00  0.00    +0.000 C 
ATOM      5  C   UNL     1       1.706  10.351  17.991  0.00  0.00    +0.000 C 
ATOM      6  C   UNL     1       2.695   9.175  17.980  0.00  0.00    +0.000 C 
ATOM      7  N   UNL     1       2.041   8.141  18.757  0.00  0.00    +0.000 N 
ATOM      8  C   UNL     1       2.522   6.905  19.031  0.00  0.00    +0.000 A 
ATOM      9  N   UNL     1       1.848   6.046  19.776  0.00  0.00    +0.000 NA
ATOM     10  C   UNL     1       2.538   4.866  19.942  0.00  0.00    +0.000 A 
ATOM     11  C   UNL     1       2.099   3.761  20.699  0.00  0.00    +0.000 A 
ATOM     12  C   UNL     1       2.910   2.627  20.814  0.00  0.00    +0.000 A 
ATOM     13  C   UNL     1       4.142   2.589  20.169  0.00  0.00    +0.000 A 
ATOM     14 CL   UNL     1       5.136   1.193  20.345  0.00  0.00    +0.000 Cl
ATOM     15  C   UNL     1       4.595   3.663  19.393  0.00  0.00    +0.000 A 
ATOM     16  C   UNL     1       3.772   4.799  19.295  0.00  0.00    +0.000 A 
ATOM     17  S   UNL     1       4.027   6.283  18.452  0.00  0.00    +0.000 S 
ATOM     18  C   UNL     1       0.730   8.545  19.239  0.00  0.00    +0.000 C 
ATOM     19  C   UNL     1       0.356   9.710  18.320  0.00  0.00    +0.000 C 
ATOM     20  C   UNL     1      -0.420  10.815  19.012  0.00  0.00    +0.000 C 
ENDROOT
BRANCH   1  24
ATOM     21  C   UNL     1      -3.173  12.566  23.142  0.00  0.00    +0.000 A 
ATOM     22  C   UNL     1      -2.159  11.654  23.411  0.00  0.00    +0.000 A 
ATOM     23  C   UNL     1      -0.980  11.672  22.663  0.00  0.00    +0.000 A 
ATOM     24  C   UNL     1      -0.824  12.542  21.572  0.00  0.00    +0.000 A 
ATOM     25  C   UNL     1      -1.819  13.516  21.345  0.00  0.00    +0.000 A 
ATOM     26  C   UNL     1      -2.986  13.510  22.132  0.00  0.00    +0.000 A 
BRANCH  21  28
ATOM     27  C   UNL     1      -5.465  13.096  23.476  0.00  0.00    +0.000 C 
ATOM     28  O   UNL     1      -4.283  12.449  23.934  0.00  0.00    +0.000 OA
ENDBRANCH  21  28
BRANCH  25  29
ATOM     29  O   UNL     1      -1.649  14.418  20.322  0.00  0.00    +0.000 OA
ATOM     30  C   UNL     1      -1.435  15.779  20.711  0.00  0.00    +0.000 C 
ENDBRANCH  25  29
ENDBRANCH   1  24
TORSDOF 3
ENDMDL
