MODEL 1
REMARK VINA RESULT:      -8.6      0.000      0.000
REMARK  Name = 
REMARK  9 active torsions:
REMARK  status: ('A' for Active; 'I' for Inactive)
REMARK    1  A    between atoms: C_1  and  O_2
REMARK    2  A    between atoms: O_2  and  C_3
REMARK    3  A    between atoms: C_6  and  C_7
REMARK    4  A    between atoms: C_7  and  N_8
REMARK    5  A    between atoms: N_8  and  C_17
REMARK    6  A    between atoms: C_9  and  C_11
REMARK    7  A    between atoms: N_13  and  C_14
REMARK    8  A    between atoms: C_26  and  O_27
REMARK    9  A    between atoms: O_27  and  C_28
REMARK                            x       y       z     vdW  Elec       q    Type
REMARK                         _______ _______ _______ _____ _____    ______ ____
ROOT
ATOM      1  N   UNL     1      -0.192  10.862  18.954  0.00  0.00    +0.000 N 
ATOM      2  C   UNL     1      -0.015  12.266  18.899  0.00  0.00    +0.000 C 
ATOM      3  O   UNL     1      -0.671  12.949  18.105  0.00  0.00    +0.000 OA
ENDROOT
BRANCH   1   4
ATOM      4  C   UNL     1      -1.515  10.410  18.502  0.00  0.00    +0.000 C 
ATOM      5  C   UNL     1      -1.548   9.856  17.080  0.00  0.00    +0.000 C 
ATOM      6  C   UNL     1      -3.042   9.750  16.757  0.00  0.00    +0.000 C 
ATOM      7  C   UNL     1      -3.399  10.244  15.360  0.00  0.00    +0.000 C 
ATOM      8  N   UNL     1      -3.714  11.651  15.572  0.00  0.00    +0.000 NA
ATOM      9  C   UNL     1      -4.503  11.688  16.802  0.00  0.00    +0.000 C 
ATOM     10  C   UNL     1      -3.758  10.728  17.716  0.00  0.00    +0.000 C 
ATOM     11  C   UNL     1      -2.652  11.412  18.534  0.00  0.00    +0.000 C 
ATOM     12  H   UNL     1      -4.236  12.041  14.790  0.00  0.00    +0.000 HD
ENDBRANCH   1   4
BRANCH   2  13
ATOM     13  C   UNL     1       0.912  12.969  19.805  0.00  0.00    +0.000 A 
ATOM     14  C   UNL     1       2.222  13.259  19.464  0.00  0.00    +0.000 A 
ATOM     15  N   UNL     1       2.699  14.066  20.450  0.00  0.00    +0.000 N 
ATOM     16  C   UNL     1       3.976  14.733  20.429  0.00  0.00    +0.000 C 
ATOM     17  C   UNL     1       1.719  14.198  21.389  0.00  0.00    +0.000 A 
ATOM     18  N   UNL     1       0.623  13.564  21.027  0.00  0.00    +0.000 NA
ENDBRANCH   2  13
BRANCH   1  19
ATOM     19  C   UNL     1       0.648  10.008  19.812  0.00  0.00    +0.000 C 
BRANCH  19  23
ATOM     20  C   UNL     1       3.328   7.008  18.142  0.00  0.00    +0.000 A 
ATOM     21  C   UNL     1       2.788   8.040  17.337  0.00  0.00    +0.000 A 
ATOM     22  C   UNL     1       1.869   8.965  17.845  0.00  0.00    +0.000 A 
ATOM     23  C   UNL     1       1.443   8.885  19.173  0.00  0.00    +0.000 A 
ATOM     24  C   UNL     1       1.903   7.791  19.937  0.00  0.00    +0.000 A 
ATOM     25  C   UNL     1       2.835   6.858  19.440  0.00  0.00    +0.000 A 
BRANCH  20  27
ATOM     26  C   UNL     1       5.348   6.737  16.947  0.00  0.00    +0.000 C 
ATOM     27  O   UNL     1       4.268   6.131  17.661  0.00  0.00    +0.000 OA
ENDBRANCH  20  27
BRANCH  25  28
ATOM     28  O   UNL     1       2.955   5.763  20.251  0.00  0.00    +0.000 OA
BRANCH  28  29
ATOM     29  C   UNL     1       1.949   4.801  20.548  0.00  0.00    +0.000 C 
ATOM     30  C   UNL     1       1.480   4.120  19.269  0.00  0.00    +0.000 C 
ATOM     31  C   UNL     1       0.860   2.797  19.681  0.00  0.00    +0.000 C 
ATOM     32  C   UNL     1       1.271   2.534  21.124  0.00  0.00    +0.000 C 
ATOM     33  C   UNL     1       2.138   3.706  21.588  0.00  0.00    +0.000 C 
ENDBRANCH  28  29
ENDBRANCH  25  28
ENDBRANCH  19  23
ENDBRANCH   1  19
TORSDOF 7
ENDMDL
MODEL 2
REMARK VINA RESULT:      -8.0      1.180      4.809
REMARK  Name = 
REMARK  9 active torsions:
REMARK  status: ('A' for Active; 'I' for Inactive)
REMARK    1  A    between atoms: C_1  and  O_2
REMARK    2  A    between atoms: O_2  and  C_3
REMARK    3  A    between atoms: C_6  and  C_7
REMARK    4  A    between atoms: C_7  and  N_8
REMARK    5  A    between atoms: N_8  and  C_17
REMARK    6  A    between atoms: C_9  and  C_11
REMARK    7  A    between atoms: N_13  and  C_14
REMARK    8  A    between atoms: C_26  and  O_27
REMARK    9  A    between atoms: O_27  and  C_28
REMARK                            x       y       z     vdW  Elec       q    Type
REMARK                         _______ _______ _______ _____ _____    ______ ____
ROOT
ATOM      1  N   UNL     1       0.432  11.651  19.626  0.00  0.00    +0.000 N 
ATOM      2  C   UNL     1      -0.582  12.222  18.820  0.00  0.00    +0.000 C 
ATOM      3  O   UNL     1      -0.511  13.406  18.470  0.00  0.00    +0.000 OA
ENDROOT
BRANCH   1   4
ATOM      4  C   UNL     1       1.740  12.310  19.497  0.00  0.00    +0.000 C 
ATOM      5  C   UNL     1       1.984  13.442  20.493  0.00  0.00    +0.000 C 
ATOM      6  C   UNL     1       3.240  14.139  19.961  0.00  0.00    +0.000 C 
ATOM      7  C   UNL     1       3.150  15.660  19.988  0.00  0.00    +0.000 C 
ATOM      8  N   UNL     1       2.612  15.987  18.673  0.00  0.00    +0.000 NA
ATOM      9  C   UNL     1       3.322  15.114  17.740  0.00  0.00    +0.000 C 
ATOM     10  C   UNL     1       3.330  13.776  18.463  0.00  0.00    +0.000 C 
ATOM     11  C   UNL     1       2.093  12.919  18.155  0.00  0.00    +0.000 C 
ATOM     12  H   UNL     1       2.759  16.968  18.441  0.00  0.00    +0.000 HD
ENDBRANCH   1   4
BRANCH   2  13
ATOM     13  C   UNL     1      -1.725  11.430  18.331  0.00  0.00    +0.000 A 
ATOM     14  C   UNL     1      -3.027  11.654  18.746  0.00  0.00    +0.000 A 
ATOM     15  N   UNL     1      -3.815  10.877  17.954  0.00  0.00    +0.000 N 
ATOM     16  C   UNL     1      -5.254  10.907  17.934  0.00  0.00    +0.000 C 
ATOM     17  C   UNL     1      -2.996  10.158  17.132  0.00  0.00    +0.000 A 
ATOM     18  N   UNL     1      -1.732  10.477  17.320  0.00  0.00    +0.000 NA
ENDBRANCH   2  13
BRANCH   1  19
ATOM     19  C   UNL     1       0.326  10.276  20.148  0.00  0.00    +0.000 C 
BRANCH  19  23
ATOM     20  C   UNL     1       2.928   7.319  18.288  0.00  0.00    +0.000 A 
ATOM     21  C   UNL     1       2.338   8.359  17.530  0.00  0.00    +0.000 A 
ATOM     22  C   UNL     1       1.442   9.270  18.100  0.00  0.00    +0.000 A 
ATOM     23  C   UNL     1       1.091   9.168  19.449  0.00  0.00    +0.000 A 
ATOM     24  C   UNL     1       1.600   8.067  20.171  0.00  0.00    +0.000 A 
ATOM     25  C   UNL     1       2.508   7.148  19.609  0.00  0.00    +0.000 A 
BRANCH  20  27
ATOM     26  C   UNL     1       4.709   7.035  16.763  0.00  0.00    +0.000 C 
ATOM     27  O   UNL     1       3.845   6.456  17.743  0.00  0.00    +0.000 OA
ENDBRANCH  20  27
BRANCH  25  28
ATOM     28  O   UNL     1       2.681   6.043  20.397  0.00  0.00    +0.000 OA
BRANCH  28  29
ATOM     29  C   UNL     1       1.770   4.962  20.569  0.00  0.00    +0.000 C 
ATOM     30  C   UNL     1       1.439   4.335  19.221  0.00  0.00    +0.000 C 
ATOM     31  C   UNL     1       0.945   2.927  19.504  0.00  0.00    +0.000 C 
ATOM     32  C   UNL     1       1.312   2.600  20.946  0.00  0.00    +0.000 C 
ATOM     33  C   UNL     1       2.026   3.817  21.539  0.00  0.00    +0.000 C 
ENDBRANCH  28  29
ENDBRANCH  25  28
ENDBRANCH  19  23
ENDBRANCH   1  19
TORSDOF 7
ENDMDL
MODEL 3
REMARK VINA RESULT:      -7.7      0.831      1.060
REMARK  Name = 
REMARK  9 active torsions:
REMARK  status: ('A' for Active; 'I' for Inactive)
REMARK    1  A    between atoms: C_1  and  O_2
REMARK    2  A    between atoms: O_2  and  C_3
REMARK    3  A    between atoms: C_6  and  C_7
REMARK    4  A    between atoms: C_7  and  N_8
REMARK    5  A    between atoms: N_8  and  C_17
REMARK    6  A    between atoms: C_9  and  C_11
REMARK    7  A    between atoms: N_13  and  C_14
REMARK    8  A    between atoms: C_26  and  O_27
REMARK    9  A    between atoms: O_27  and  C_28
REMARK                            x       y       z     vdW  Elec       q    Type
REMARK                         _______ _______ _______ _____ _____    ______ ____
ROOT
ATOM      1  N   UNL     1      -0.134  11.161  18.859  0.00  0.00    +0.000 N 
ATOM      2  C   UNL     1       0.007  12.558  18.674  0.00  0.00    +0.000 C 
ATOM      3  O   UNL     1      -0.741  13.165  17.899  0.00  0.00    +0.000 OA
ENDROOT
BRANCH   1   4
ATOM      4  C   UNL     1      -1.487  10.656  18.582  0.00  0.00    +0.000 C 
ATOM      5  C   UNL     1      -1.656  10.008  17.210  0.00  0.00    +0.000 C 
ATOM      6  C   UNL     1      -3.173   9.854  17.056  0.00  0.00    +0.000 C 
ATOM      7  C   UNL     1      -3.688  10.246  15.677  0.00  0.00    +0.000 C 
ATOM      8  N   UNL     1      -4.013  11.659  15.830  0.00  0.00    +0.000 NA
ATOM      9  C   UNL     1      -4.668  11.764  17.132  0.00  0.00    +0.000 C 
ATOM     10  C   UNL     1      -3.807  10.880  18.021  0.00  0.00    +0.000 C 
ATOM     11  C   UNL     1      -2.638  11.638  18.670  0.00  0.00    +0.000 C 
ATOM     12  H   UNL     1      -4.624  11.987  15.084  0.00  0.00    +0.000 HD
ENDBRANCH   1   4
BRANCH   2  13
ATOM     13  C   UNL     1       1.004  13.344  19.422  0.00  0.00    +0.000 A 
ATOM     14  C   UNL     1       0.665  14.192  20.463  0.00  0.00    +0.000 A 
ATOM     15  N   UNL     1       1.840  14.589  21.024  0.00  0.00    +0.000 N 
ATOM     16  C   UNL     1       1.960  15.359  22.235  0.00  0.00    +0.000 C 
ATOM     17  C   UNL     1       2.854  14.044  20.293  0.00  0.00    +0.000 A 
ATOM     18  N   UNL     1       2.388  13.275  19.330  0.00  0.00    +0.000 NA
ENDBRANCH   2  13
BRANCH   1  19
ATOM     19  C   UNL     1       0.805  10.390  19.693  0.00  0.00    +0.000 C 
BRANCH  19  23
ATOM     20  C   UNL     1       3.202   7.097  18.149  0.00  0.00    +0.000 A 
ATOM     21  C   UNL     1       2.823   8.181  17.321  0.00  0.00    +0.000 A 
ATOM     22  C   UNL     1       1.993   9.207  17.785  0.00  0.00    +0.000 A 
ATOM     23  C   UNL     1       1.496   9.181  19.091  0.00  0.00    +0.000 A 
ATOM     24  C   UNL     1       1.790   8.045  19.874  0.00  0.00    +0.000 A 
ATOM     25  C   UNL     1       2.632   7.009  19.421  0.00  0.00    +0.000 A 
BRANCH  20  27
ATOM     26  C   UNL     1       5.379   6.563  17.404  0.00  0.00    +0.000 C 
ATOM     27  O   UNL     1       4.057   6.116  17.712  0.00  0.00    +0.000 OA
ENDBRANCH  20  27
BRANCH  25  28
ATOM     28  O   UNL     1       2.587   5.911  20.235  0.00  0.00    +0.000 OA
BRANCH  28  29
ATOM     29  C   UNL     1       2.173   4.596  19.879  0.00  0.00    +0.000 C 
ATOM     30  C   UNL     1       3.378   3.667  19.810  0.00  0.00    +0.000 C 
ATOM     31  C   UNL     1       2.849   2.253  19.973  0.00  0.00    +0.000 C 
ATOM     32  C   UNL     1       1.418   2.361  20.484  0.00  0.00    +0.000 C 
ATOM     33  C   UNL     1       1.078   3.847  20.626  0.00  0.00    +0.000 C 
ENDBRANCH  28  29
ENDBRANCH  25  28
ENDBRANCH  19  23
ENDBRANCH   1  19
TORSDOF 7
ENDMDL
MODEL 4
REMARK VINA RESULT:      -7.6      3.746      8.933
REMARK  Name = 
REMARK  9 active torsions:
REMARK  status: ('A' for Active; 'I' for Inactive)
REMARK    1  A    between atoms: C_1  and  O_2
REMARK    2  A    between atoms: O_2  and  C_3
REMARK    3  A    between atoms: C_6  and  C_7
REMARK    4  A    between atoms: C_7  and  N_8
REMARK    5  A    between atoms: N_8  and  C_17
REMARK    6  A    between atoms: C_9  and  C_11
REMARK    7  A    between atoms: N_13  and  C_14
REMARK    8  A    between atoms: C_26  and  O_27
REMARK    9  A    between atoms: O_27  and  C_28
REMARK                            x       y       z     vdW  Elec       q    Type
REMARK                         _______ _______ _______ _____ _____    ______ ____
ROOT
ATOM      1  N   UNL     1       3.741   5.336  18.133  0.00  0.00    +0.000 N 
ATOM      2  C   UNL     1       3.174   4.084  17.791  0.00  0.00    +0.000 C 
ATOM      3  O   UNL     1       3.502   3.513  16.745  0.00  0.00    +0.000 OA
ENDROOT
BRANCH   1   4
ATOM      4  C   UNL     1       5.065   5.573  17.541  0.00  0.00    +0.000 C 
ATOM      5  C   UNL     1       6.225   4.924  18.293  0.00  0.00    +0.000 C 
ATOM      6  C   UNL     1       7.473   5.559  17.670  0.00  0.00    +0.000 C 
ATOM      7  C   UNL     1       8.524   5.966  18.696  0.00  0.00    +0.000 C 
ATOM      8  N   UNL     1       8.175   7.348  19.002  0.00  0.00    +0.000 NA
ATOM      9  C   UNL     1       7.847   7.956  17.715  0.00  0.00    +0.000 C 
ATOM     10  C   UNL     1       7.006   6.887  17.035  0.00  0.00    +0.000 C 
ATOM     11  C   UNL     1       5.507   7.010  17.352  0.00  0.00    +0.000 C 
ATOM     12  H   UNL     1       8.945   7.838  19.454  0.00  0.00    +0.000 HD
ENDBRANCH   1   4
BRANCH   2  13
ATOM     13  C   UNL     1       2.219   3.395  18.678  0.00  0.00    +0.000 A 
ATOM     14  C   UNL     1       2.512   3.071  19.992  0.00  0.00    +0.000 A 
ATOM     15  N   UNL     1       1.348   2.627  20.540  0.00  0.00    +0.000 N 
ATOM     16  C   UNL     1       1.153   2.324  21.934  0.00  0.00    +0.000 C 
ATOM     17  C   UNL     1       0.402   2.625  19.557  0.00  0.00    +0.000 A 
ATOM     18  N   UNL     1       0.886   3.095  18.427  0.00  0.00    +0.000 NA
ENDBRANCH   2  13
BRANCH   1  19
ATOM     19  C   UNL     1       3.295   6.092  19.317  0.00  0.00    +0.000 C 
BRANCH  19  23
ATOM     20  C   UNL     1       0.768   9.592  18.740  0.00  0.00    +0.000 A 
ATOM     21  C   UNL     1       1.429   8.975  17.650  0.00  0.00    +0.000 A 
ATOM     22  C   UNL     1       2.301   7.897  17.833  0.00  0.00    +0.000 A 
ATOM     23  C   UNL     1       2.558   7.402  19.115  0.00  0.00    +0.000 A 
ATOM     24  C   UNL     1       1.980   8.089  20.203  0.00  0.00    +0.000 A 
ATOM     25  C   UNL     1       1.094   9.171  20.031  0.00  0.00    +0.000 A 
BRANCH  20  27
ATOM     26  C   UNL     1      -1.354  10.241  17.930  0.00  0.00    +0.000 C 
ATOM     27  O   UNL     1      -0.126  10.617  18.558  0.00  0.00    +0.000 OA
ENDBRANCH  20  27
BRANCH  25  28
ATOM     28  O   UNL     1       0.846   9.830  21.205  0.00  0.00    +0.000 OA
BRANCH  28  29
ATOM     29  C   UNL     1      -0.233  10.716  21.479  0.00  0.00    +0.000 C 
ATOM     30  C   UNL     1      -0.880  10.360  22.810  0.00  0.00    +0.000 C 
ATOM     31  C   UNL     1      -1.608  11.604  23.289  0.00  0.00    +0.000 C 
ATOM     32  C   UNL     1      -1.109  12.772  22.447  0.00  0.00    +0.000 C 
ATOM     33  C   UNL     1      -0.080  12.231  21.452  0.00  0.00    +0.000 C 
ENDBRANCH  28  29
ENDBRANCH  25  28
ENDBRANCH  19  23
ENDBRANCH   1  19
TORSDOF 7
ENDMDL
MODEL 5
REMARK VINA RESULT:      -7.6      3.619      8.029
REMARK  Name = 
REMARK  9 active torsions:
REMARK  status: ('A' for Active; 'I' for Inactive)
REMARK    1  A    between atoms: C_1  and  O_2
REMARK    2  A    between atoms: O_2  and  C_3
REMARK    3  A    between atoms: C_6  and  C_7
REMARK    4  A    between atoms: C_7  and  N_8
REMARK    5  A    between atoms: N_8  and  C_17
REMARK    6  A    between atoms: C_9  and  C_11
REMARK    7  A    between atoms: N_13  and  C_14
REMARK    8  A    between atoms: C_26  and  O_27
REMARK    9  A    between atoms: O_27  and  C_28
REMARK                            x       y       z     vdW  Elec       q    Type
REMARK                         _______ _______ _______ _____ _____    ______ ____
ROOT
ATOM      1  N   UNL     1       4.312   5.453  18.424  0.00  0.00    +0.000 N 
ATOM      2  C   UNL     1       5.725   5.466  18.522  0.00  0.00    +0.000 C 
ATOM      3  O   UNL     1       6.315   4.596  19.174  0.00  0.00    +0.000 OA
ENDROOT
BRANCH   1   4
ATOM      4  C   UNL     1       3.714   4.122  18.601  0.00  0.00    +0.000 C 
ATOM      5  C   UNL     1       2.379   3.924  17.886  0.00  0.00    +0.000 C 
ATOM      6  C   UNL     1       1.840   2.611  18.465  0.00  0.00    +0.000 C 
ATOM      7  C   UNL     1       0.356   2.661  18.808  0.00  0.00    +0.000 C 
ATOM      8  N   UNL     1       0.349   3.087  20.202  0.00  0.00    +0.000 NA
ATOM      9  C   UNL     1       1.426   2.332  20.840  0.00  0.00    +0.000 C 
ATOM     10  C   UNL     1       2.553   2.416  19.821  0.00  0.00    +0.000 C 
ATOM     11  C   UNL     1       3.448   3.650  20.016  0.00  0.00    +0.000 C 
ATOM     12  H   UNL     1      -0.546   2.896  20.648  0.00  0.00    +0.000 HD
ENDBRANCH   1   4
BRANCH   2  13
ATOM     13  C   UNL     1       6.544   6.473  17.823  0.00  0.00    +0.000 A 
ATOM     14  C   UNL     1       6.802   7.728  18.348  0.00  0.00    +0.000 A 
ATOM     15  N   UNL     1       7.729   8.296  17.530  0.00  0.00    +0.000 N 
ATOM     16  C   UNL     1       8.401   9.544  17.782  0.00  0.00    +0.000 C 
ATOM     17  C   UNL     1       7.967   7.427  16.506  0.00  0.00    +0.000 A 
ATOM     18  N   UNL     1       7.282   6.312  16.658  0.00  0.00    +0.000 NA
ENDBRANCH   2  13
BRANCH   1  19
ATOM     19  C   UNL     1       3.572   6.532  17.745  0.00  0.00    +0.000 C 
BRANCH  19  23
ATOM     20  C   UNL     1       0.980   9.148  20.072  0.00  0.00    +0.000 A 
ATOM     21  C   UNL     1       1.620   8.032  20.664  0.00  0.00    +0.000 A 
ATOM     22  C   UNL     1       2.395   7.143  19.911  0.00  0.00    +0.000 A 
ATOM     23  C   UNL     1       2.548   7.326  18.534  0.00  0.00    +0.000 A 
ATOM     24  C   UNL     1       1.822   8.377  17.935  0.00  0.00    +0.000 A 
ATOM     25  C   UNL     1       1.045   9.284  18.683  0.00  0.00    +0.000 A 
BRANCH  20  27
ATOM     26  C   UNL     1       0.922  11.294  21.057  0.00  0.00    +0.000 C 
ATOM     27  O   UNL     1       0.261  10.050  20.816  0.00  0.00    +0.000 OA
ENDBRANCH  20  27
BRANCH  25  28
ATOM     28  O   UNL     1       0.248  10.061  17.889  0.00  0.00    +0.000 OA
BRANCH  28  29
ATOM     29  C   UNL     1      -1.175  10.095  17.873  0.00  0.00    +0.000 C 
ATOM     30  C   UNL     1      -1.675  11.447  18.365  0.00  0.00    +0.000 C 
ATOM     31  C   UNL     1      -3.084  11.615  17.825  0.00  0.00    +0.000 C 
ATOM     32  C   UNL     1      -3.285  10.557  16.747  0.00  0.00    +0.000 C 
ATOM     33  C   UNL     1      -1.993   9.744  16.638  0.00  0.00    +0.000 C 
ENDBRANCH  28  29
ENDBRANCH  25  28
ENDBRANCH  19  23
ENDBRANCH   1  19
TORSDOF 7
ENDMDL
MODEL 6
REMARK VINA RESULT:      -7.4      1.494      5.383
REMARK  Name = 
REMARK  9 active torsions:
REMARK  status: ('A' for Active; 'I' for Inactive)
REMARK    1  A    between atoms: C_1  and  O_2
REMARK    2  A    between atoms: O_2  and  C_3
REMARK    3  A    between atoms: C_6  and  C_7
REMARK    4  A    between atoms: C_7  and  N_8
REMARK    5  A    between atoms: N_8  and  C_17
REMARK    6  A    between atoms: C_9  and  C_11
REMARK    7  A    between atoms: N_13  and  C_14
REMARK    8  A    between atoms: C_26  and  O_27
REMARK    9  A    between atoms: O_27  and  C_28
REMARK                            x       y       z     vdW  Elec       q    Type
REMARK                         _______ _______ _______ _____ _____    ______ ____
ROOT
ATOM      1  N   UNL     1      -0.217  11.883  19.008  0.00  0.00    +0.000 N 
ATOM      2  C   UNL     1      -1.627  11.866  18.880  0.00  0.00    +0.000 C 
ATOM      3  O   UNL     1      -2.329  12.604  19.581  0.00  0.00    +0.000 OA
ENDROOT
BRANCH   1   4
ATOM      4  C   UNL     1       0.320  13.153  19.520  0.00  0.00    +0.000 C 
ATOM      5  C   UNL     1       1.223  13.902  18.544  0.00  0.00    +0.000 C 
ATOM      6  C   UNL     1       1.874  14.992  19.402  0.00  0.00    +0.000 C 
ATOM      7  C   UNL     1       3.366  15.159  19.144  0.00  0.00    +0.000 C 
ATOM      8  N   UNL     1       3.977  14.260  20.115  0.00  0.00    +0.000 NA
ATOM      9  C   UNL     1       3.219  14.455  21.349  0.00  0.00    +0.000 C 
ATOM     10  C   UNL     1       1.779  14.500  20.863  0.00  0.00    +0.000 C 
ATOM     11  C   UNL     1       1.120  13.113  20.806  0.00  0.00    +0.000 C 
ATOM     12  H   UNL     1       4.964  14.471  20.254  0.00  0.00    +0.000 HD
ENDBRANCH   1   4
BRANCH   2  13
ATOM     13  C   UNL     1      -2.308  11.015  17.886  0.00  0.00    +0.000 A 
ATOM     14  C   UNL     1      -2.501  11.403  16.571  0.00  0.00    +0.000 A 
ATOM     15  N   UNL     1      -2.979  10.308  15.921  0.00  0.00    +0.000 N 
ATOM     16  C   UNL     1      -3.180  10.212  14.498  0.00  0.00    +0.000 C 
ATOM     17  C   UNL     1      -3.130   9.312  16.841  0.00  0.00    +0.000 A 
ATOM     18  N   UNL     1      -2.720   9.697  18.032  0.00  0.00    +0.000 NA
ENDBRANCH   2  13
BRANCH   1  19
ATOM     19  C   UNL     1       0.641  10.944  18.264  0.00  0.00    +0.000 C 
BRANCH  19  23
ATOM     20  C   UNL     1       1.919   7.231  20.150  0.00  0.00    +0.000 A 
ATOM     21  C   UNL     1       1.151   8.188  20.856  0.00  0.00    +0.000 A 
ATOM     22  C   UNL     1       0.797   9.415  20.287  0.00  0.00    +0.000 A 
ATOM     23  C   UNL     1       1.211   9.741  18.992  0.00  0.00    +0.000 A 
ATOM     24  C   UNL     1       2.065   8.830  18.335  0.00  0.00    +0.000 A 
ATOM     25  C   UNL     1       2.421   7.587  18.896  0.00  0.00    +0.000 A 
BRANCH  20  27
ATOM     26  C   UNL     1       1.148   5.066  20.694  0.00  0.00    +0.000 C 
ATOM     27  O   UNL     1       2.224   6.006  20.688  0.00  0.00    +0.000 OA
ENDBRANCH  20  27
BRANCH  25  28
ATOM     28  O   UNL     1       3.433   6.978  18.205  0.00  0.00    +0.000 OA
BRANCH  28  29
ATOM     29  C   UNL     1       3.432   5.658  17.670  0.00  0.00    +0.000 C 
ATOM     30  C   UNL     1       4.415   4.781  18.435  0.00  0.00    +0.000 C 
ATOM     31  C   UNL     1       3.985   3.343  18.207  0.00  0.00    +0.000 C 
ATOM     32  C   UNL     1       2.579   3.378  17.623  0.00  0.00    +0.000 C 
ATOM     33  C   UNL     1       2.159   4.844  17.491  0.00  0.00    +0.000 C 
ENDBRANCH  28  29
ENDBRANCH  25  28
ENDBRANCH  19  23
ENDBRANCH   1  19
TORSDOF 7
ENDMDL
MODEL 7
REMARK VINA RESULT:      -7.3      3.893      8.263
REMARK  Name = 
REMARK  9 active torsions:
REMARK  status: ('A' for Active; 'I' for Inactive)
REMARK    1  A    between atoms: C_1  and  O_2
REMARK    2  A    between atoms: O_2  and  C_3
REMARK    3  A    between atoms: C_6  and  C_7
REMARK    4  A    between atoms: C_7  and  N_8
REMARK    5  A    between atoms: N_8  and  C_17
REMARK    6  A    between atoms: C_9  and  C_11
REMARK    7  A    between atoms: N_13  and  C_14
REMARK    8  A    between atoms: C_26  and  O_27
REMARK    9  A    between atoms: O_27  and  C_28
REMARK                            x       y       z     vdW  Elec       q    Type
REMARK                         _______ _______ _______ _____ _____    ______ ____
ROOT
ATOM      1  N   UNL     1       4.330   5.395  18.439  0.00  0.00    +0.000 N 
ATOM      2  C   UNL     1       5.745   5.390  18.494  0.00  0.00    +0.000 C 
ATOM      3  O   UNL     1       6.346   4.491  19.093  0.00  0.00    +0.000 OA
ENDROOT
BRANCH   1   4
ATOM      4  C   UNL     1       3.724   4.064  18.583  0.00  0.00    +0.000 C 
ATOM      5  C   UNL     1       2.386   3.892  17.866  0.00  0.00    +0.000 C 
ATOM      6  C   UNL     1       1.840   2.569  18.412  0.00  0.00    +0.000 C 
ATOM      7  C   UNL     1       0.357   2.620  18.759  0.00  0.00    +0.000 C 
ATOM      8  N   UNL     1       0.354   3.010  20.164  0.00  0.00    +0.000 NA
ATOM      9  C   UNL     1       1.428   2.233  20.780  0.00  0.00    +0.000 C 
ATOM     10  C   UNL     1       2.553   2.335  19.762  0.00  0.00    +0.000 C 
ATOM     11  C   UNL     1       3.457   3.558  19.986  0.00  0.00    +0.000 C 
ATOM     12  H   UNL     1      -0.541   2.814  20.607  0.00  0.00    +0.000 HD
ENDBRANCH   1   4
BRANCH   2  13
ATOM     13  C   UNL     1       6.553   6.416  17.808  0.00  0.00    +0.000 A 
ATOM     14  C   UNL     1       6.821   7.656  18.363  0.00  0.00    +0.000 A 
ATOM     15  N   UNL     1       7.735   8.246  17.545  0.00  0.00    +0.000 N 
ATOM     16  C   UNL     1       8.411   9.487  17.819  0.00  0.00    +0.000 C 
ATOM     17  C   UNL     1       7.954   7.404  16.494  0.00  0.00    +0.000 A 
ATOM     18  N   UNL     1       7.272   6.286  16.627  0.00  0.00    +0.000 NA
ENDBRANCH   2  13
BRANCH   1  19
ATOM     19  C   UNL     1       3.581   6.506  17.825  0.00  0.00    +0.000 C 
BRANCH  19  23
ATOM     20  C   UNL     1       1.103   8.975  20.420  0.00  0.00    +0.000 A 
ATOM     21  C   UNL     1       1.524   7.684  20.819  0.00  0.00    +0.000 A 
ATOM     22  C   UNL     1       2.258   6.852  19.965  0.00  0.00    +0.000 A 
ATOM     23  C   UNL     1       2.586   7.275  18.674  0.00  0.00    +0.000 A 
ATOM     24  C   UNL     1       2.072   8.517  18.247  0.00  0.00    +0.000 A 
ATOM     25  C   UNL     1       1.339   9.367  19.100  0.00  0.00    +0.000 A 
BRANCH  20  27
ATOM     26  C   UNL     1       0.252   9.308  22.599  0.00  0.00    +0.000 C 
ATOM     27  O   UNL     1       0.427   9.812  21.273  0.00  0.00    +0.000 OA
ENDBRANCH  20  27
BRANCH  25  28
ATOM     28  O   UNL     1       0.742  10.393  18.421  0.00  0.00    +0.000 OA
BRANCH  28  29
ATOM     29  C   UNL     1       0.555  11.729  18.878  0.00  0.00    +0.000 C 
ATOM     30  C   UNL     1       1.803  12.557  18.604  0.00  0.00    +0.000 C 
ATOM     31  C   UNL     1       1.368  14.012  18.594  0.00  0.00    +0.000 C 
ATOM     32  C   UNL     1      -0.153  14.029  18.505  0.00  0.00    +0.000 C 
ATOM     33  C   UNL     1      -0.640  12.579  18.467  0.00  0.00    +0.000 C 
ENDBRANCH  28  29
ENDBRANCH  25  28
ENDBRANCH  19  23
ENDBRANCH   1  19
TORSDOF 7
ENDMDL
MODEL 8
REMARK VINA RESULT:      -7.2      3.937      8.956
REMARK  Name = 
REMARK  9 active torsions:
REMARK  status: ('A' for Active; 'I' for Inactive)
REMARK    1  A    between atoms: C_1  and  O_2
REMARK    2  A    between atoms: O_2  and  C_3
REMARK    3  A    between atoms: C_6  and  C_7
REMARK    4  A    between atoms: C_7  and  N_8
REMARK    5  A    between atoms: N_8  and  C_17
REMARK    6  A    between atoms: C_9  and  C_11
REMARK    7  A    between atoms: N_13  and  C_14
REMARK    8  A    between atoms: C_26  and  O_27
REMARK    9  A    between atoms: O_27  and  C_28
REMARK                            x       y       z     vdW  Elec       q    Type
REMARK                         _______ _______ _______ _____ _____    ______ ____
ROOT
ATOM      1  N   UNL     1       3.355   5.638  18.550  0.00  0.00    +0.000 N 
ATOM      2  C   UNL     1       3.060   4.284  18.257  0.00  0.00    +0.000 C 
ATOM      3  O   UNL     1       3.606   3.717  17.303  0.00  0.00    +0.000 OA
ENDROOT
BRANCH   1   4
ATOM      4  C   UNL     1       4.680   6.074  18.085  0.00  0.00    +0.000 C 
ATOM      5  C   UNL     1       4.929   5.873  16.592  0.00  0.00    +0.000 C 
ATOM      6  C   UNL     1       6.434   6.108  16.431  0.00  0.00    +0.000 C 
ATOM      7  C   UNL     1       7.116   5.090  15.526  0.00  0.00    +0.000 C 
ATOM      8  N   UNL     1       7.545   4.051  16.455  0.00  0.00    +0.000 NA
ATOM      9  C   UNL     1       8.074   4.767  17.614  0.00  0.00    +0.000 C 
ATOM     10  C   UNL     1       7.055   5.875  17.826  0.00  0.00    +0.000 C 
ATOM     11  C   UNL     1       5.897   5.460  18.747  0.00  0.00    +0.000 C 
ATOM     12  H   UNL     1       8.254   3.448  16.042  0.00  0.00    +0.000 HD
ENDBRANCH   1   4
BRANCH   2  13
ATOM     13  C   UNL     1       2.139   3.491  19.091  0.00  0.00    +0.000 A 
ATOM     14  C   UNL     1       2.435   3.117  20.391  0.00  0.00    +0.000 A 
ATOM     15  N   UNL     1       1.295   2.574  20.897  0.00  0.00    +0.000 N 
ATOM     16  C   UNL     1       1.101   2.186  22.270  0.00  0.00    +0.000 C 
ATOM     17  C   UNL     1       0.364   2.562  19.900  0.00  0.00    +0.000 A 
ATOM     18  N   UNL     1       0.832   3.121  18.803  0.00  0.00    +0.000 NA
ENDBRANCH   2  13
BRANCH   1  19
ATOM     19  C   UNL     1       2.646   6.374  19.612  0.00  0.00    +0.000 C 
BRANCH  19  23
ATOM     20  C   UNL     1       0.986  10.319  18.803  0.00  0.00    +0.000 A 
ATOM     21  C   UNL     1       1.660   9.585  17.798  0.00  0.00    +0.000 A 
ATOM     22  C   UNL     1       2.262   8.351  18.064  0.00  0.00    +0.000 A 
ATOM     23  C   UNL     1       2.225   7.808  19.352  0.00  0.00    +0.000 A 
ATOM     24  C   UNL     1       1.645   8.593  20.371  0.00  0.00    +0.000 A 
ATOM     25  C   UNL     1       1.029   9.834  20.113  0.00  0.00    +0.000 A 
BRANCH  20  27
ATOM     26  C   UNL     1       1.205  12.651  18.498  0.00  0.00    +0.000 C 
ATOM     27  O   UNL     1       0.351  11.506  18.533  0.00  0.00    +0.000 OA
ENDBRANCH  20  27
BRANCH  25  28
ATOM     28  O   UNL     1       0.751  10.524  21.261  0.00  0.00    +0.000 OA
BRANCH  28  29
ATOM     29  C   UNL     1      -0.463  11.191  21.588  0.00  0.00    +0.000 C 
ATOM     30  C   UNL     1      -1.067  10.593  22.852  0.00  0.00    +0.000 C 
ATOM     31  C   UNL     1      -1.996  11.644  23.432  0.00  0.00    +0.000 C 
ATOM     32  C   UNL     1      -1.681  12.962  22.734  0.00  0.00    +0.000 C 
ATOM     33  C   UNL     1      -0.560  12.704  21.725  0.00  0.00    +0.000 C 
ENDBRANCH  28  29
ENDBRANCH  25  28
ENDBRANCH  19  23
ENDBRANCH   1  19
TORSDOF 7
ENDMDL
MODEL 9
REMARK VINA RESULT:      -7.2      1.167      2.957
REMARK  Name = 
REMARK  9 active torsions:
REMARK  status: ('A' for Active; 'I' for Inactive)
REMARK    1  A    between atoms: C_1  and  O_2
REMARK    2  A    between atoms: O_2  and  C_3
REMARK    3  A    between atoms: C_6  and  C_7
REMARK    4  A    between atoms: C_7  and  N_8
REMARK    5  A    between atoms: N_8  and  C_17
REMARK    6  A    between atoms: C_9  and  C_11
REMARK    7  A    between atoms: N_13  and  C_14
REMARK    8  A    between atoms: C_26  and  O_27
REMARK    9  A    between atoms: O_27  and  C_28
REMARK                            x       y       z     vdW  Elec       q    Type
REMARK                         _______ _______ _______ _____ _____    ______ ____
ROOT
ATOM      1  N   UNL     1       0.055  11.010  19.183  0.00  0.00    +0.000 N 
ATOM      2  C   UNL     1       0.298  12.354  18.807  0.00  0.00    +0.000 C 
ATOM      3  O   UNL     1      -0.220  12.822  17.787  0.00  0.00    +0.000 OA
ENDROOT
BRANCH   1   4
ATOM      4  C   UNL     1      -1.218  10.472  18.682  0.00  0.00    +0.000 C 
ATOM      5  C   UNL     1      -1.146   9.865  17.283  0.00  0.00    +0.000 C 
ATOM      6  C   UNL     1      -2.613   9.668  16.887  0.00  0.00    +0.000 C 
ATOM      7  C   UNL     1      -2.919  10.090  15.455  0.00  0.00    +0.000 C 
ATOM      8  N   UNL     1      -3.316  11.486  15.595  0.00  0.00    +0.000 NA
ATOM      9  C   UNL     1      -4.171  11.525  16.779  0.00  0.00    +0.000 C 
ATOM     10  C   UNL     1      -3.428  10.640  17.768  0.00  0.00    +0.000 C 
ATOM     11  C   UNL     1      -2.404  11.412  18.614  0.00  0.00    +0.000 C 
ATOM     12  H   UNL     1      -3.815  11.818  14.771  0.00  0.00    +0.000 HD
ENDBRANCH   1   4
BRANCH   2  13
ATOM     13  C   UNL     1       1.129  13.253  19.628  0.00  0.00    +0.000 A 
ATOM     14  C   UNL     1       0.592  14.180  20.506  0.00  0.00    +0.000 A 
ATOM     15  N   UNL     1       1.641  14.681  21.213  0.00  0.00    +0.000 N 
ATOM     16  C   UNL     1       1.529  15.568  22.343  0.00  0.00    +0.000 C 
ATOM     17  C   UNL     1       2.781  14.115  20.722  0.00  0.00    +0.000 A 
ATOM     18  N   UNL     1       2.510  13.239  19.778  0.00  0.00    +0.000 NA
ENDBRANCH   2  13
BRANCH   1  19
ATOM     19  C   UNL     1       0.739  10.391  20.332  0.00  0.00    +0.000 C 
BRANCH  19  23
ATOM     20  C   UNL     1       2.020   6.290  19.614  0.00  0.00    +0.000 A 
ATOM     21  C   UNL     1       1.407   6.665  20.833  0.00  0.00    +0.000 A 
ATOM     22  C   UNL     1       1.058   7.993  21.105  0.00  0.00    +0.000 A 
ATOM     23  C   UNL     1       1.323   9.000  20.173  0.00  0.00    +0.000 A 
ATOM     24  C   UNL     1       2.029   8.636  19.007  0.00  0.00    +0.000 A 
ATOM     25  C   UNL     1       2.379   7.301  18.719  0.00  0.00    +0.000 A 
BRANCH  20  27
ATOM     26  C   UNL     1       2.920   4.250  20.393  0.00  0.00    +0.000 C 
ATOM     27  O   UNL     1       2.317   4.982  19.324  0.00  0.00    +0.000 OA
ENDBRANCH  20  27
BRANCH  25  28
ATOM     28  O   UNL     1       3.255   7.209  17.673  0.00  0.00    +0.000 OA
BRANCH  28  29
ATOM     29  C   UNL     1       4.482   6.488  17.644  0.00  0.00    +0.000 C 
ATOM     30  C   UNL     1       4.326   5.218  16.818  0.00  0.00    +0.000 C 
ATOM     31  C   UNL     1       5.721   4.808  16.378  0.00  0.00    +0.000 C 
ATOM     32  C   UNL     1       6.642   5.995  16.631  0.00  0.00    +0.000 C 
ATOM     33  C   UNL     1       5.802   7.126  17.230  0.00  0.00    +0.000 C 
ENDBRANCH  28  29
ENDBRANCH  25  28
ENDBRANCH  19  23
ENDBRANCH   1  19
TORSDOF 7
ENDMDL
