MODEL 1
REMARK VINA RESULT:      -7.8      0.000      0.000
REMARK  Name = 
REMARK  8 active torsions:
REMARK  status: ('A' for Active; 'I' for Inactive)
REMARK    1  A    between atoms: C_1  and  C_2
REMARK    2  A    between atoms: C_2  and  C_3
REMARK    3  A    between atoms: C_2  and  C_4
REMARK    4  A    between atoms: C_2  and  O_5
REMARK    5  A    between atoms: O_5  and  C_6
REMARK    6  A    between atoms: N_11  and  C_12
REMARK    7  A    between atoms: C_18  and  C_19
REMARK    8  A    between atoms: N_21  and  C_22
REMARK                            x       y       z     vdW  Elec       q    Type
REMARK                         _______ _______ _______ _____ _____    ______ ____
ROOT
ATOM      1  C   UNL     1       2.350   6.036  18.269  0.00  0.00    +0.000 A 
ATOM      2  C   UNL     1       1.522   4.929  18.261  0.00  0.00    +0.000 A 
ATOM      3  C   UNL     1       2.228   3.858  17.655  0.00  0.00    +0.000 A 
ATOM      4  C   UNL     1       3.489   4.316  17.346  0.00  0.00    +0.000 A 
ATOM      5  C   UNL     1       4.648   3.730  16.761  0.00  0.00    +0.000 A 
ATOM      6  C   UNL     1       5.786   4.452  16.641  0.00  0.00    +0.000 A 
ATOM      7  C   UNL     1       5.865   5.833  17.104  0.00  0.00    +0.000 A 
ATOM      8  C   UNL     1       4.767   6.371  17.655  0.00  0.00    +0.000 A 
ATOM      9  N   UNL     1       3.580   5.643  17.750  0.00  0.00    +0.000 N 
ENDROOT
BRANCH   1  15
ATOM     10  C   UNL     1       0.941  11.053  20.112  0.00  0.00    +0.000 C 
ATOM     11  O   UNL     1       0.980  11.987  19.328  0.00  0.00    +0.000 OA
ATOM     12  N   UNL     1       1.161   9.756  19.696  0.00  0.00    +0.000 N 
ATOM     13  C   UNL     1       1.184   9.469  18.256  0.00  0.00    +0.000 C 
ATOM     14  C   UNL     1       2.310   8.482  17.912  0.00  0.00    +0.000 C 
ATOM     15  N   UNL     1       2.147   7.293  18.758  0.00  0.00    +0.000 N 
ATOM     16  C   UNL     1       2.205   7.573  20.206  0.00  0.00    +0.000 C 
ATOM     17  C   UNL     1       1.119   8.603  20.576  0.00  0.00    +0.000 C 
BRANCH  10  18
ATOM     18  O   UNL     1       0.686  11.153  21.461  0.00  0.00    +0.000 OA
BRANCH  18  20
ATOM     19  C   UNL     1      -0.447  13.160  22.269  0.00  0.00    +0.000 C 
ATOM     20  C   UNL     1      -0.600  11.690  21.869  0.00  0.00    +0.000 C 
ATOM     21  C   UNL     1      -1.150  10.858  23.032  0.00  0.00    +0.000 C 
ATOM     22  C   UNL     1      -1.594  11.653  20.683  0.00  0.00    +0.000 C 
ENDBRANCH  18  20
ENDBRANCH  10  18
ENDBRANCH   1  15
BRANCH   7  23
ATOM     23  C   UNL     1       7.058   6.746  17.001  0.00  0.00    +0.000 C 
ATOM     24  O   UNL     1       7.929   6.558  16.153  0.00  0.00    +0.000 OA
ATOM     25  N   UNL     1       7.098   7.808  17.874  0.00  0.00    +0.000 N 
ATOM     26  H   UNL     1       6.409   7.890  18.605  0.00  0.00    +0.000 HD
BRANCH  25  27
ATOM     27  C   UNL     1       8.198   8.756  17.857  0.00  0.00    +0.000 C 
ATOM     28  C   UNL     1       7.761  10.177  17.523  0.00  0.00    +0.000 C 
ATOM     29  C   UNL     1       8.948  11.024  17.966  0.00  0.00    +0.000 C 
ATOM     30  C   UNL     1       9.577  10.273  19.140  0.00  0.00    +0.000 C 
ATOM     31  C   UNL     1       8.853   8.929  19.225  0.00  0.00    +0.000 C 
ENDBRANCH  25  27
ENDBRANCH   7  23
TORSDOF 5
ENDMDL
MODEL 2
REMARK VINA RESULT:      -7.4      3.147      3.926
REMARK  Name = 
REMARK  8 active torsions:
REMARK  status: ('A' for Active; 'I' for Inactive)
REMARK    1  A    between atoms: C_1  and  C_2
REMARK    2  A    between atoms: C_2  and  C_3
REMARK    3  A    between atoms: C_2  and  C_4
REMARK    4  A    between atoms: C_2  and  O_5
REMARK    5  A    between atoms: O_5  and  C_6
REMARK    6  A    between atoms: N_11  and  C_12
REMARK    7  A    between atoms: C_18  and  C_19
REMARK    8  A    between atoms: N_21  and  C_22
REMARK                            x       y       z     vdW  Elec       q    Type
REMARK                         _______ _______ _______ _____ _____    ______ ____
ROOT
ATOM      1  C   UNL     1       2.096   5.595  20.119  0.00  0.00    +0.000 A 
ATOM      2  C   UNL     1       1.697   4.731  21.122  0.00  0.00    +0.000 A 
ATOM      3  C   UNL     1       2.116   3.423  20.767  0.00  0.00    +0.000 A 
ATOM      4  C   UNL     1       2.802   3.518  19.576  0.00  0.00    +0.000 A 
ATOM      5  C   UNL     1       3.475   2.585  18.735  0.00  0.00    +0.000 A 
ATOM      6  C   UNL     1       4.120   3.015  17.626  0.00  0.00    +0.000 A 
ATOM      7  C   UNL     1       4.153   4.427  17.262  0.00  0.00    +0.000 A 
ATOM      8  C   UNL     1       3.517   5.294  18.065  0.00  0.00    +0.000 A 
ATOM      9  N   UNL     1       2.820   4.853  19.190  0.00  0.00    +0.000 N 
ENDROOT
BRANCH   1  15
ATOM     10  C   UNL     1       1.021  10.958  19.320  0.00  0.00    +0.000 C 
ATOM     11  O   UNL     1       1.509  11.504  18.344  0.00  0.00    +0.000 OA
ATOM     12  N   UNL     1       1.145   9.599  19.519  0.00  0.00    +0.000 N 
ATOM     13  C   UNL     1       1.642   8.765  18.417  0.00  0.00    +0.000 C 
ATOM     14  C   UNL     1       2.622   7.701  18.934  0.00  0.00    +0.000 C 
ATOM     15  N   UNL     1       1.954   6.946  20.003  0.00  0.00    +0.000 N 
ATOM     16  C   UNL     1       1.527   7.776  21.146  0.00  0.00    +0.000 C 
ATOM     17  C   UNL     1       0.581   8.889  20.652  0.00  0.00    +0.000 C 
BRANCH  10  18
ATOM     18  O   UNL     1       0.312  11.588  20.317  0.00  0.00    +0.000 OA
BRANCH  18  20
ATOM     19  C   UNL     1      -1.709  11.336  18.968  0.00  0.00    +0.000 C 
ATOM     20  C   UNL     1      -0.946  12.219  19.959  0.00  0.00    +0.000 C 
ATOM     21  C   UNL     1      -0.666  13.602  19.361  0.00  0.00    +0.000 C 
ATOM     22  C   UNL     1      -1.845  12.363  21.211  0.00  0.00    +0.000 C 
ENDBRANCH  18  20
ENDBRANCH  10  18
ENDBRANCH   1  15
BRANCH   7  23
ATOM     23  C   UNL     1       4.809   5.025  16.046  0.00  0.00    +0.000 C 
ATOM     24  O   UNL     1       4.976   6.240  15.949  0.00  0.00    +0.000 OA
ATOM     25  N   UNL     1       5.237   4.144  15.081  0.00  0.00    +0.000 N 
ATOM     26  H   UNL     1       5.019   3.163  15.157  0.00  0.00    +0.000 HD
BRANCH  25  27
ATOM     27  C   UNL     1       5.890   4.612  13.871  0.00  0.00    +0.000 C 
ATOM     28  C   UNL     1       7.337   5.038  14.096  0.00  0.00    +0.000 C 
ATOM     29  C   UNL     1       7.915   5.076  12.687  0.00  0.00    +0.000 C 
ATOM     30  C   UNL     1       7.152   4.012  11.897  0.00  0.00    +0.000 C 
ATOM     31  C   UNL     1       6.033   3.519  12.814  0.00  0.00    +0.000 C 
ENDBRANCH  25  27
ENDBRANCH   7  23
TORSDOF 5
ENDMDL
MODEL 3
REMARK VINA RESULT:      -7.2      2.982      8.373
REMARK  Name = 
REMARK  8 active torsions:
REMARK  status: ('A' for Active; 'I' for Inactive)
REMARK    1  A    between atoms: C_1  and  C_2
REMARK    2  A    between atoms: C_2  and  C_3
REMARK    3  A    between atoms: C_2  and  C_4
REMARK    4  A    between atoms: C_2  and  O_5
REMARK    5  A    between atoms: O_5  and  C_6
REMARK    6  A    between atoms: N_11  and  C_12
REMARK    7  A    between atoms: C_18  and  C_19
REMARK    8  A    between atoms: N_21  and  C_22
REMARK                            x       y       z     vdW  Elec       q    Type
REMARK                         _______ _______ _______ _____ _____    ______ ____
ROOT
ATOM      1  C   UNL     1       3.375   4.915  19.040  0.00  0.00    +0.000 A 
ATOM      2  C   UNL     1       3.117   3.913  19.956  0.00  0.00    +0.000 A 
ATOM      3  C   UNL     1       2.289   4.451  20.974  0.00  0.00    +0.000 A 
ATOM      4  C   UNL     1       2.019   5.759  20.638  0.00  0.00    +0.000 A 
ATOM      5  C   UNL     1       1.244   6.800  21.226  0.00  0.00    +0.000 A 
ATOM      6  C   UNL     1       1.129   7.995  20.602  0.00  0.00    +0.000 A 
ATOM      7  C   UNL     1       1.781   8.252  19.322  0.00  0.00    +0.000 A 
ATOM      8  C   UNL     1       2.506   7.262  18.780  0.00  0.00    +0.000 A 
ATOM      9  N   UNL     1       2.656   6.039  19.436  0.00  0.00    +0.000 N 
ENDROOT
BRANCH   1  15
ATOM     10  C   UNL     1       6.750   4.620  14.673  0.00  0.00    +0.000 C 
ATOM     11  O   UNL     1       7.429   5.597  14.402  0.00  0.00    +0.000 OA
ATOM     12  N   UNL     1       5.978   4.577  15.815  0.00  0.00    +0.000 N 
ATOM     13  C   UNL     1       6.175   5.606  16.842  0.00  0.00    +0.000 C 
ATOM     14  C   UNL     1       4.829   6.077  17.412  0.00  0.00    +0.000 C 
ATOM     15  N   UNL     1       4.093   4.896  17.881  0.00  0.00    +0.000 N 
ATOM     16  C   UNL     1       3.826   3.898  16.827  0.00  0.00    +0.000 C 
ATOM     17  C   UNL     1       5.157   3.442  16.197  0.00  0.00    +0.000 C 
BRANCH  10  18
ATOM     18  O   UNL     1       6.660   3.475  13.915  0.00  0.00    +0.000 OA
BRANCH  18  20
ATOM     19  C   UNL     1       7.244   4.683  11.873  0.00  0.00    +0.000 C 
ATOM     20  C   UNL     1       6.343   3.619  12.505  0.00  0.00    +0.000 C 
ATOM     21  C   UNL     1       4.864   3.991  12.354  0.00  0.00    +0.000 C 
ATOM     22  C   UNL     1       6.628   2.293  11.757  0.00  0.00    +0.000 C 
ENDBRANCH  18  20
ENDBRANCH  10  18
ENDBRANCH   1  15
BRANCH   7  23
ATOM     23  C   UNL     1       1.754   9.542  18.545  0.00  0.00    +0.000 C 
ATOM     24  O   UNL     1       2.143   9.586  17.379  0.00  0.00    +0.000 OA
ATOM     25  N   UNL     1       1.244  10.641  19.193  0.00  0.00    +0.000 N 
ATOM     26  H   UNL     1       1.004  10.588  20.171  0.00  0.00    +0.000 HD
BRANCH  25  27
ATOM     27  C   UNL     1       1.162  11.933  18.535  0.00  0.00    +0.000 C 
ATOM     28  C   UNL     1      -0.148  12.663  18.804  0.00  0.00    +0.000 C 
ATOM     29  C   UNL     1       0.157  14.098  18.390  0.00  0.00    +0.000 C 
ATOM     30  C   UNL     1       1.648  14.299  18.662  0.00  0.00    +0.000 C 
ATOM     31  C   UNL     1       2.201  12.927  19.049  0.00  0.00    +0.000 C 
ENDBRANCH  25  27
ENDBRANCH   7  23
TORSDOF 5
ENDMDL
MODEL 4
REMARK VINA RESULT:      -7.0      3.431      7.604
REMARK  Name = 
REMARK  8 active torsions:
REMARK  status: ('A' for Active; 'I' for Inactive)
REMARK    1  A    between atoms: C_1  and  C_2
REMARK    2  A    between atoms: C_2  and  C_3
REMARK    3  A    between atoms: C_2  and  C_4
REMARK    4  A    between atoms: C_2  and  O_5
REMARK    5  A    between atoms: O_5  and  C_6
REMARK    6  A    between atoms: N_11  and  C_12
REMARK    7  A    between atoms: C_18  and  C_19
REMARK    8  A    between atoms: N_21  and  C_22
REMARK                            x       y       z     vdW  Elec       q    Type
REMARK                         _______ _______ _______ _____ _____    ______ ____
ROOT
ATOM      1  C   UNL     1       0.132  10.628  18.716  0.00  0.00    +0.000 A 
ATOM      2  C   UNL     1      -1.185  10.627  18.296  0.00  0.00    +0.000 A 
ATOM      3  C   UNL     1      -1.630  11.973  18.242  0.00  0.00    +0.000 A 
ATOM      4  C   UNL     1      -0.563  12.774  18.586  0.00  0.00    +0.000 A 
ATOM      5  C   UNL     1      -0.367  14.181  18.692  0.00  0.00    +0.000 A 
ATOM      6  C   UNL     1       0.853  14.673  19.008  0.00  0.00    +0.000 A 
ATOM      7  C   UNL     1       1.992  13.793  19.244  0.00  0.00    +0.000 A 
ATOM      8  C   UNL     1       1.792  12.471  19.139  0.00  0.00    +0.000 A 
ATOM      9  N   UNL     1       0.529  11.956  18.847  0.00  0.00    +0.000 N 
ENDROOT
BRANCH   1  15
ATOM     10  C   UNL     1       3.212   6.080  19.338  0.00  0.00    +0.000 C 
ATOM     11  O   UNL     1       3.271   5.571  20.445  0.00  0.00    +0.000 OA
ATOM     12  N   UNL     1       2.370   7.142  19.080  0.00  0.00    +0.000 N 
ATOM     13  C   UNL     1       1.348   7.493  20.074  0.00  0.00    +0.000 C 
ATOM     14  C   UNL     1       1.238   9.018  20.232  0.00  0.00    +0.000 C 
ATOM     15  N   UNL     1       1.006   9.598  18.903  0.00  0.00    +0.000 N 
ATOM     16  C   UNL     1       2.075   9.310  17.927  0.00  0.00    +0.000 C 
ATOM     17  C   UNL     1       2.248   7.785  17.784  0.00  0.00    +0.000 C 
BRANCH  10  18
ATOM     18  O   UNL     1       3.942   5.689  18.238  0.00  0.00    +0.000 OA
BRANCH  18  20
ATOM     19  C   UNL     1       4.590   4.113  16.489  0.00  0.00    +0.000 C 
ATOM     20  C   UNL     1       3.803   4.316  17.786  0.00  0.00    +0.000 C 
ATOM     21  C   UNL     1       2.318   3.997  17.585  0.00  0.00    +0.000 C 
ATOM     22  C   UNL     1       4.410   3.348  18.831  0.00  0.00    +0.000 C 
ENDBRANCH  18  20
ENDBRANCH  10  18
ENDBRANCH   1  15
BRANCH   7  23
ATOM     23  C   UNL     1       3.386  14.214  19.628  0.00  0.00    +0.000 C 
ATOM     24  O   UNL     1       3.785  14.099  20.787  0.00  0.00    +0.000 OA
ATOM     25  N   UNL     1       4.186  14.692  18.618  0.00  0.00    +0.000 N 
ATOM     26  H   UNL     1       3.806  14.843  17.697  0.00  0.00    +0.000 HD
BRANCH  25  27
ATOM     27  C   UNL     1       5.551  15.117  18.876  0.00  0.00    +0.000 C 
ATOM     28  C   UNL     1       6.531  14.681  17.793  0.00  0.00    +0.000 C 
ATOM     29  C   UNL     1       7.748  15.563  18.044  0.00  0.00    +0.000 C 
ATOM     30  C   UNL     1       7.202  16.866  18.626  0.00  0.00    +0.000 C 
ATOM     31  C   UNL     1       5.711  16.636  18.868  0.00  0.00    +0.000 C 
ENDBRANCH  25  27
ENDBRANCH   7  23
TORSDOF 5
ENDMDL
MODEL 5
REMARK VINA RESULT:      -6.9      3.159      3.944
REMARK  Name = 
REMARK  8 active torsions:
REMARK  status: ('A' for Active; 'I' for Inactive)
REMARK    1  A    between atoms: C_1  and  C_2
REMARK    2  A    between atoms: C_2  and  C_3
REMARK    3  A    between atoms: C_2  and  C_4
REMARK    4  A    between atoms: C_2  and  O_5
REMARK    5  A    between atoms: O_5  and  C_6
REMARK    6  A    between atoms: N_11  and  C_12
REMARK    7  A    between atoms: C_18  and  C_19
REMARK    8  A    between atoms: N_21  and  C_22
REMARK                            x       y       z     vdW  Elec       q    Type
REMARK                         _______ _______ _______ _____ _____    ______ ____
ROOT
ATOM      1  C   UNL     1       2.133   5.744  20.124  0.00  0.00    +0.000 A 
ATOM      2  C   UNL     1       1.756   4.903  21.154  0.00  0.00    +0.000 A 
ATOM      3  C   UNL     1       2.198   3.593  20.836  0.00  0.00    +0.000 A 
ATOM      4  C   UNL     1       2.876   3.666  19.639  0.00  0.00    +0.000 A 
ATOM      5  C   UNL     1       3.562   2.720  18.824  0.00  0.00    +0.000 A 
ATOM      6  C   UNL     1       4.194   3.128  17.699  0.00  0.00    +0.000 A 
ATOM      7  C   UNL     1       4.198   4.530  17.292  0.00  0.00    +0.000 A 
ATOM      8  C   UNL     1       3.549   5.408  18.072  0.00  0.00    +0.000 A 
ATOM      9  N   UNL     1       2.866   4.988  19.214  0.00  0.00    +0.000 N 
ENDROOT
BRANCH   1  15
ATOM     10  C   UNL     1       0.962  11.059  19.157  0.00  0.00    +0.000 C 
ATOM     11  O   UNL     1       1.459  11.589  18.177  0.00  0.00    +0.000 OA
ATOM     12  N   UNL     1       1.110   9.708  19.395  0.00  0.00    +0.000 N 
ATOM     13  C   UNL     1       1.649   8.856  18.327  0.00  0.00    +0.000 C 
ATOM     14  C   UNL     1       2.640   7.828  18.894  0.00  0.00    +0.000 C 
ATOM     15  N   UNL     1       1.965   7.088  19.968  0.00  0.00    +0.000 N 
ATOM     16  C   UNL     1       1.495   7.939  21.079  0.00  0.00    +0.000 C 
ATOM     17  C   UNL     1       0.537   9.017  20.535  0.00  0.00    +0.000 C 
BRANCH  10  18
ATOM     18  O   UNL     1       0.218  11.699  20.121  0.00  0.00    +0.000 OA
BRANCH  18  20
ATOM     19  C   UNL     1      -0.022  13.433  21.825  0.00  0.00    +0.000 C 
ATOM     20  C   UNL     1       0.591  13.058  20.474  0.00  0.00    +0.000 C 
ATOM     21  C   UNL     1       0.121  14.014  19.372  0.00  0.00    +0.000 C 
ATOM     22  C   UNL     1       2.127  13.163  20.637  0.00  0.00    +0.000 C 
ENDBRANCH  18  20
ENDBRANCH  10  18
ENDBRANCH   1  15
BRANCH   7  23
ATOM     23  C   UNL     1       4.836   5.103  16.055  0.00  0.00    +0.000 C 
ATOM     24  O   UNL     1       4.991   6.316  15.927  0.00  0.00    +0.000 OA
ATOM     25  N   UNL     1       5.262   4.202  15.108  0.00  0.00    +0.000 N 
ATOM     26  H   UNL     1       5.053   3.221  15.210  0.00  0.00    +0.000 HD
BRANCH  25  27
ATOM     27  C   UNL     1       5.900   4.645  13.880  0.00  0.00    +0.000 C 
ATOM     28  C   UNL     1       7.359   5.042  14.070  0.00  0.00    +0.000 C 
ATOM     29  C   UNL     1       7.908   5.055  12.649  0.00  0.00    +0.000 C 
ATOM     30  C   UNL     1       7.105   4.002  11.885  0.00  0.00    +0.000 C 
ATOM     31  C   UNL     1       5.996   3.541  12.830  0.00  0.00    +0.000 C 
ENDBRANCH  25  27
ENDBRANCH   7  23
TORSDOF 5
ENDMDL
MODEL 6
REMARK VINA RESULT:      -6.9      6.682     10.830
REMARK  Name = 
REMARK  8 active torsions:
REMARK  status: ('A' for Active; 'I' for Inactive)
REMARK    1  A    between atoms: C_1  and  C_2
REMARK    2  A    between atoms: C_2  and  C_3
REMARK    3  A    between atoms: C_2  and  C_4
REMARK    4  A    between atoms: C_2  and  O_5
REMARK    5  A    between atoms: O_5  and  C_6
REMARK    6  A    between atoms: N_11  and  C_12
REMARK    7  A    between atoms: C_18  and  C_19
REMARK    8  A    between atoms: N_21  and  C_22
REMARK                            x       y       z     vdW  Elec       q    Type
REMARK                         _______ _______ _______ _____ _____    ______ ____
ROOT
ATOM      1  C   UNL     1      -4.529  13.509  22.975  0.00  0.00    +0.000 A 
ATOM      2  C   UNL     1      -5.169  13.935  24.123  0.00  0.00    +0.000 A 
ATOM      3  C   UNL     1      -6.561  13.720  23.955  0.00  0.00    +0.000 A 
ATOM      4  C   UNL     1      -6.742  13.125  22.726  0.00  0.00    +0.000 A 
ATOM      5  C   UNL     1      -7.875  12.650  22.005  0.00  0.00    +0.000 A 
ATOM      6  C   UNL     1      -7.710  12.045  20.806  0.00  0.00    +0.000 A 
ATOM      7  C   UNL     1      -6.387  11.857  20.222  0.00  0.00    +0.000 A 
ATOM      8  C   UNL     1      -5.329  12.308  20.913  0.00  0.00    +0.000 A 
ATOM      9  N   UNL     1      -5.495  12.964  22.134  0.00  0.00    +0.000 N 
ENDROOT
BRANCH   1  15
ATOM     10  C   UNL     1       0.673  13.191  21.132  0.00  0.00    +0.000 C 
ATOM     11  O   UNL     1       1.287  12.152  21.315  0.00  0.00    +0.000 OA
ATOM     12  N   UNL     1      -0.664  13.301  21.455  0.00  0.00    +0.000 N 
ATOM     13  C   UNL     1      -1.417  12.083  21.777  0.00  0.00    +0.000 C 
ATOM     14  C   UNL     1      -2.360  12.320  22.967  0.00  0.00    +0.000 C 
ATOM     15  N   UNL     1      -3.204  13.482  22.655  0.00  0.00    +0.000 N 
ATOM     16  C   UNL     1      -2.446  14.725  22.410  0.00  0.00    +0.000 C 
ATOM     17  C   UNL     1      -1.451  14.504  21.254  0.00  0.00    +0.000 C 
BRANCH  10  18
ATOM     18  O   UNL     1       1.199  14.347  20.604  0.00  0.00    +0.000 OA
BRANCH  18  20
ATOM     19  C   UNL     1       1.480  15.749  18.624  0.00  0.00    +0.000 C 
ATOM     20  C   UNL     1       1.590  14.338  19.205  0.00  0.00    +0.000 C 
ATOM     21  C   UNL     1       0.699  13.355  18.438  0.00  0.00    +0.000 C 
ATOM     22  C   UNL     1       3.073  13.915  19.070  0.00  0.00    +0.000 C 
ENDBRANCH  18  20
ENDBRANCH  10  18
ENDBRANCH   1  15
BRANCH   7  23
ATOM     23  C   UNL     1      -6.075  11.229  18.890  0.00  0.00    +0.000 C 
ATOM     24  O   UNL     1      -6.975  10.914  18.112  0.00  0.00    +0.000 OA
ATOM     25  N   UNL     1      -4.745  11.062  18.583  0.00  0.00    +0.000 N 
ATOM     26  H   UNL     1      -4.037  11.261  19.272  0.00  0.00    +0.000 HD
BRANCH  25  27
ATOM     27  C   UNL     1      -4.332  10.474  17.321  0.00  0.00    +0.000 C 
ATOM     28  C   UNL     1      -4.115  11.506  16.220  0.00  0.00    +0.000 C 
ATOM     29  C   UNL     1      -3.312  10.741  15.175  0.00  0.00    +0.000 C 
ATOM     30  C   UNL     1      -2.485   9.719  15.955  0.00  0.00    +0.000 C 
ATOM     31  C   UNL     1      -2.967   9.793  17.403  0.00  0.00    +0.000 C 
ENDBRANCH  25  27
ENDBRANCH   7  23
TORSDOF 5
ENDMDL
MODEL 7
REMARK VINA RESULT:      -6.9      3.136      3.931
REMARK  Name = 
REMARK  8 active torsions:
REMARK  status: ('A' for Active; 'I' for Inactive)
REMARK    1  A    between atoms: C_1  and  C_2
REMARK    2  A    between atoms: C_2  and  C_3
REMARK    3  A    between atoms: C_2  and  C_4
REMARK    4  A    between atoms: C_2  and  O_5
REMARK    5  A    between atoms: O_5  and  C_6
REMARK    6  A    between atoms: N_11  and  C_12
REMARK    7  A    between atoms: C_18  and  C_19
REMARK    8  A    between atoms: N_21  and  C_22
REMARK                            x       y       z     vdW  Elec       q    Type
REMARK                         _______ _______ _______ _____ _____    ______ ____
ROOT
ATOM      1  C   UNL     1       1.921   5.469  19.806  0.00  0.00    +0.000 A 
ATOM      2  C   UNL     1       1.283   4.723  20.778  0.00  0.00    +0.000 A 
ATOM      3  C   UNL     1       1.554   3.353  20.529  0.00  0.00    +0.000 A 
ATOM      4  C   UNL     1       2.389   3.290  19.435  0.00  0.00    +0.000 A 
ATOM      5  C   UNL     1       3.023   2.230  18.725  0.00  0.00    +0.000 A 
ATOM      6  C   UNL     1       3.855   2.508  17.695  0.00  0.00    +0.000 A 
ATOM      7  C   UNL     1       4.132   3.881  17.287  0.00  0.00    +0.000 A 
ATOM      8  C   UNL     1       3.530   4.868  17.967  0.00  0.00    +0.000 A 
ATOM      9  N   UNL     1       2.643   4.587  19.007  0.00  0.00    +0.000 N 
ENDROOT
BRANCH   1  15
ATOM     10  C   UNL     1       1.676  10.888  18.739  0.00  0.00    +0.000 C 
ATOM     11  O   UNL     1       2.239  11.305  17.740  0.00  0.00    +0.000 OA
ATOM     12  N   UNL     1       1.591   9.537  19.005  0.00  0.00    +0.000 N 
ATOM     13  C   UNL     1       1.952   8.584  17.948  0.00  0.00    +0.000 C 
ATOM     14  C   UNL     1       2.760   7.409  18.521  0.00  0.00    +0.000 C 
ATOM     15  N   UNL     1       1.987   6.819  19.622  0.00  0.00    +0.000 N 
ATOM     16  C   UNL     1       1.694   7.760  20.722  0.00  0.00    +0.000 C 
ATOM     17  C   UNL     1       0.929   8.978  20.169  0.00  0.00    +0.000 C 
BRANCH  10  18
ATOM     18  O   UNL     1       1.074  11.667  19.701  0.00  0.00    +0.000 OA
BRANCH  18  20
ATOM     19  C   UNL     1      -0.974  11.546  18.375  0.00  0.00    +0.000 C 
ATOM     20  C   UNL     1      -0.129  12.393  19.330  0.00  0.00    +0.000 C 
ATOM     21  C   UNL     1       0.264  13.725  18.684  0.00  0.00    +0.000 C 
ATOM     22  C   UNL     1      -1.000  12.655  20.582  0.00  0.00    +0.000 C 
ENDBRANCH  18  20
ENDBRANCH  10  18
ENDBRANCH   1  15
BRANCH   7  23
ATOM     23  C   UNL     1       5.012   4.317  16.146  0.00  0.00    +0.000 C 
ATOM     24  O   UNL     1       5.036   5.491  15.778  0.00  0.00    +0.000 OA
ATOM     25  N   UNL     1       5.803   3.350  15.572  0.00  0.00    +0.000 N 
ATOM     26  H   UNL     1       5.704   2.385  15.847  0.00  0.00    +0.000 HD
BRANCH  25  27
ATOM     27  C   UNL     1       6.696   3.663  14.470  0.00  0.00    +0.000 C 
ATOM     28  C   UNL     1       5.997   3.675  13.116  0.00  0.00    +0.000 C 
ATOM     29  C   UNL     1       6.984   4.412  12.218  0.00  0.00    +0.000 C 
ATOM     30  C   UNL     1       7.717   5.396  13.129  0.00  0.00    +0.000 C 
ATOM     31  C   UNL     1       7.269   5.075  14.555  0.00  0.00    +0.000 C 
ENDBRANCH  25  27
ENDBRANCH   7  23
TORSDOF 5
ENDMDL
MODEL 8
REMARK VINA RESULT:      -6.6      3.057      3.849
REMARK  Name = 
REMARK  8 active torsions:
REMARK  status: ('A' for Active; 'I' for Inactive)
REMARK    1  A    between atoms: C_1  and  C_2
REMARK    2  A    between atoms: C_2  and  C_3
REMARK    3  A    between atoms: C_2  and  C_4
REMARK    4  A    between atoms: C_2  and  O_5
REMARK    5  A    between atoms: O_5  and  C_6
REMARK    6  A    between atoms: N_11  and  C_12
REMARK    7  A    between atoms: C_18  and  C_19
REMARK    8  A    between atoms: N_21  and  C_22
REMARK                            x       y       z     vdW  Elec       q    Type
REMARK                         _______ _______ _______ _____ _____    ______ ____
ROOT
ATOM      1  C   UNL     1       1.868   5.354  19.827  0.00  0.00    +0.000 A 
ATOM      2  C   UNL     1       1.019   4.662  20.670  0.00  0.00    +0.000 A 
ATOM      3  C   UNL     1       1.322   3.281  20.562  0.00  0.00    +0.000 A 
ATOM      4  C   UNL     1       2.381   3.157  19.690  0.00  0.00    +0.000 A 
ATOM      5  C   UNL     1       3.145   2.060  19.198  0.00  0.00    +0.000 A 
ATOM      6  C   UNL     1       4.191   2.281  18.369  0.00  0.00    +0.000 A 
ATOM      7  C   UNL     1       4.569   3.629  17.960  0.00  0.00    +0.000 A 
ATOM      8  C   UNL     1       3.842   4.652  18.433  0.00  0.00    +0.000 A 
ATOM      9  N   UNL     1       2.740   4.429  19.261  0.00  0.00    +0.000 N 
ENDROOT
BRANCH   1  15
ATOM     10  C   UNL     1       1.826  10.740  18.585  0.00  0.00    +0.000 C 
ATOM     11  O   UNL     1       2.337  11.093  17.536  0.00  0.00    +0.000 OA
ATOM     12  N   UNL     1       1.691   9.405  18.905  0.00  0.00    +0.000 N 
ATOM     13  C   UNL     1       1.926   8.400  17.861  0.00  0.00    +0.000 C 
ATOM     14  C   UNL     1       2.712   7.203  18.419  0.00  0.00    +0.000 C 
ATOM     15  N   UNL     1       1.990   6.691  19.591  0.00  0.00    +0.000 N 
ATOM     16  C   UNL     1       1.825   7.681  20.674  0.00  0.00    +0.000 C 
ATOM     17  C   UNL     1       1.085   8.921  20.132  0.00  0.00    +0.000 C 
BRANCH  10  18
ATOM     18  O   UNL     1       1.334  11.581  19.558  0.00  0.00    +0.000 OA
BRANCH  18  20
ATOM     19  C   UNL     1      -0.641  12.565  20.606  0.00  0.00    +0.000 C 
ATOM     20  C   UNL     1       0.083  12.268  19.290  0.00  0.00    +0.000 C 
ATOM     21  C   UNL     1      -0.783  11.402  18.369  0.00  0.00    +0.000 C 
ATOM     22  C   UNL     1       0.359  13.634  18.616  0.00  0.00    +0.000 C 
ENDBRANCH  18  20
ENDBRANCH  10  18
ENDBRANCH   1  15
BRANCH   7  23
ATOM     23  C   UNL     1       5.688   4.002  17.024  0.00  0.00    +0.000 C 
ATOM     24  O   UNL     1       6.661   4.642  17.424  0.00  0.00    +0.000 OA
ATOM     25  N   UNL     1       5.579   3.562  15.727  0.00  0.00    +0.000 N 
ATOM     26  H   UNL     1       4.737   3.106  15.415  0.00  0.00    +0.000 HD
BRANCH  25  27
ATOM     27  C   UNL     1       6.606   3.858  14.742  0.00  0.00    +0.000 C 
ATOM     28  C   UNL     1       6.153   3.606  13.309  0.00  0.00    +0.000 C 
ATOM     29  C   UNL     1       7.187   4.356  12.477  0.00  0.00    +0.000 C 
ATOM     30  C   UNL     1       7.633   5.537  13.339  0.00  0.00    +0.000 C 
ATOM     31  C   UNL     1       6.987   5.336  14.709  0.00  0.00    +0.000 C 
ENDBRANCH  25  27
ENDBRANCH   7  23
TORSDOF 5
ENDMDL
MODEL 9
REMARK VINA RESULT:      -6.5      3.494      7.485
REMARK  Name = 
REMARK  8 active torsions:
REMARK  status: ('A' for Active; 'I' for Inactive)
REMARK    1  A    between atoms: C_1  and  C_2
REMARK    2  A    between atoms: C_2  and  C_3
REMARK    3  A    between atoms: C_2  and  C_4
REMARK    4  A    between atoms: C_2  and  O_5
REMARK    5  A    between atoms: O_5  and  C_6
REMARK    6  A    between atoms: N_11  and  C_12
REMARK    7  A    between atoms: C_18  and  C_19
REMARK    8  A    between atoms: N_21  and  C_22
REMARK                            x       y       z     vdW  Elec       q    Type
REMARK                         _______ _______ _______ _____ _____    ______ ____
ROOT
ATOM      1  C   UNL     1       0.365  12.588  21.399  0.00  0.00    +0.000 A 
ATOM      2  C   UNL     1      -0.510  12.964  22.401  0.00  0.00    +0.000 A 
ATOM      3  C   UNL     1      -1.139  11.792  22.896  0.00  0.00    +0.000 A 
ATOM      4  C   UNL     1      -0.603  10.719  22.219  0.00  0.00    +0.000 A 
ATOM      5  C   UNL     1      -0.795   9.308  22.276  0.00  0.00    +0.000 A 
ATOM      6  C   UNL     1      -0.051   8.491  21.494  0.00  0.00    +0.000 A 
ATOM      7  C   UNL     1       0.960   9.019  20.585  0.00  0.00    +0.000 A 
ATOM      8  C   UNL     1       1.131  10.349  20.545  0.00  0.00    +0.000 A 
ATOM      9  N   UNL     1       0.343  11.199  21.322  0.00  0.00    +0.000 N 
ENDROOT
BRANCH   1  15
ATOM     10  C   UNL     1       3.456  16.091  18.445  0.00  0.00    +0.000 C 
ATOM     11  O   UNL     1       3.174  16.260  17.271  0.00  0.00    +0.000 OA
ATOM     12  N   UNL     1       2.660  15.329  19.273  0.00  0.00    +0.000 N 
ATOM     13  C   UNL     1       1.326  14.932  18.804  0.00  0.00    +0.000 C 
ATOM     14  C   UNL     1       1.022  13.476  19.186  0.00  0.00    +0.000 C 
ATOM     15  N   UNL     1       1.213  13.335  20.636  0.00  0.00    +0.000 N 
ATOM     16  C   UNL     1       2.579  13.657  21.094  0.00  0.00    +0.000 C 
ATOM     17  C   UNL     1       2.937  15.098  20.680  0.00  0.00    +0.000 C 
BRANCH  10  18
ATOM     18  O   UNL     1       4.559  16.612  19.084  0.00  0.00    +0.000 OA
BRANCH  18  20
ATOM     19  C   UNL     1       6.902  16.941  18.479  0.00  0.00    +0.000 C 
ATOM     20  C   UNL     1       5.831  15.934  18.903  0.00  0.00    +0.000 C 
ATOM     21  C   UNL     1       5.669  14.827  17.855  0.00  0.00    +0.000 C 
ATOM     22  C   UNL     1       6.302  15.320  20.244  0.00  0.00    +0.000 C 
ENDBRANCH  18  20
ENDBRANCH  10  18
ENDBRANCH   1  15
BRANCH   7  23
ATOM     23  C   UNL     1       1.828   8.221  19.648  0.00  0.00    +0.000 C 
ATOM     24  O   UNL     1       2.209   8.697  18.579  0.00  0.00    +0.000 OA
ATOM     25  N   UNL     1       2.193   6.964  20.067  0.00  0.00    +0.000 N 
ATOM     26  H   UNL     1       1.803   6.577  20.912  0.00  0.00    +0.000 HD
BRANCH  25  27
ATOM     27  C   UNL     1       3.036   6.112  19.246  0.00  0.00    +0.000 C 
ATOM     28  C   UNL     1       3.520   4.864  19.975  0.00  0.00    +0.000 C 
ATOM     29  C   UNL     1       3.999   3.960  18.845  0.00  0.00    +0.000 C 
ATOM     30  C   UNL     1       3.125   4.306  17.640  0.00  0.00    +0.000 C 
ATOM     31  C   UNL     1       2.294   5.522  18.048  0.00  0.00    +0.000 C 
ENDBRANCH  25  27
ENDBRANCH   7  23
TORSDOF 5
ENDMDL
