MODEL 1
REMARK VINA RESULT:      -6.7      0.000      0.000
REMARK  Name = 
REMARK  5 active torsions:
REMARK  status: ('A' for Active; 'I' for Inactive)
REMARK    1  A    between atoms: C_1  and  O_2
REMARK    2  A    between atoms: O_2  and  C_3
REMARK    3  A    between atoms: C_3  and  C_5
REMARK    4  A    between atoms: C_16  and  C_17
REMARK    5  A    between atoms: C_26  and  C_28
REMARK                            x       y       z     vdW  Elec       q    Type
REMARK                         _______ _______ _______ _____ _____    ______ ____
ROOT
ATOM      1  C   UNL     1       0.708  11.537  20.884  0.00  0.00    +0.000 C 
ATOM      2  C   UNL     1       1.392  12.922  20.794  0.00  0.00    +0.000 C 
ATOM      3  C   UNL     1       0.713  13.805  19.814  0.00  0.00    +0.000 A 
ATOM      4  C   UNL     1      -0.129  13.305  18.845  0.00  0.00    +0.000 A 
ATOM      5  N   UNL     1      -0.582  14.361  18.096  0.00  0.00    +0.000 N 
ATOM      6  C   UNL     1      -0.213  15.548  18.701  0.00  0.00    +0.000 A 
ATOM      7  C   UNL     1      -0.603  16.862  18.420  0.00  0.00    +0.000 A 
ATOM      8  C   UNL     1      -0.104  17.876  19.245  0.00  0.00    +0.000 A 
ATOM      9  C   UNL     1       0.769  17.588  20.291  0.00  0.00    +0.000 A 
ATOM     10  C   UNL     1       1.159  16.270  20.552  0.00  0.00    +0.000 A 
ATOM     11  C   UNL     1       0.642  15.224  19.757  0.00  0.00    +0.000 A 
ATOM     12  C   UNL     1      -0.605  11.884  18.688  0.00  0.00    +0.000 C 
ATOM     13  N   UNL     1       0.234  11.006  19.563  0.00  0.00    +0.000 N 
ATOM     14  C   UNL     1       0.752   9.820  19.023  0.00  0.00    +0.000 C 
ATOM     15  O   UNL     1       0.679   9.577  17.819  0.00  0.00    +0.000 OA
ATOM     16  H   UNL     1      -1.223  14.299  17.317  0.00  0.00    +0.000 HD
ENDROOT
BRANCH  12  17
ATOM     17  C   UNL     1      -2.137  11.733  18.845  0.00  0.00    +0.000 A 
ATOM     18  C   UNL     1      -2.858  10.865  17.987  0.00  0.00    +0.000 A 
ATOM     19 CL   UNL     1      -2.122   9.791  16.851  0.00  0.00    +0.000 Cl
ATOM     20  C   UNL     1      -4.265  10.836  17.958  0.00  0.00    +0.000 A 
ATOM     21  C   UNL     1      -5.008  11.673  18.770  0.00  0.00    +0.000 A 
ATOM     22  C   UNL     1      -4.344  12.495  19.661  0.00  0.00    +0.000 A 
ATOM     23  C   UNL     1      -2.938  12.509  19.727  0.00  0.00    +0.000 A 
ATOM     24 CL   UNL     1      -2.352  13.555  20.976  0.00  0.00    +0.000 Cl
ENDBRANCH  12  17
BRANCH   1  25
ATOM     25  C   UNL     1      -0.292  11.429  22.041  0.00  0.00    +0.000 C 
ATOM     26  O   UNL     1      -0.430  12.284  22.907  0.00  0.00    +0.000 OA
BRANCH  25  28
ATOM     27  C   UNL     1      -0.400   9.337  23.108  0.00  0.00    +0.000 C 
ATOM     28  O   UNL     1      -0.879  10.199  22.073  0.00  0.00    +0.000 OA
ENDBRANCH  25  28
ENDBRANCH   1  25
BRANCH  14  29
ATOM     29  C   UNL     1       1.457   8.860  19.979  0.00  0.00    +0.000 C 
ATOM     30 CL   UNL     1       2.268   7.535  19.116  0.00  0.00    +0.000 Cl
ENDBRANCH  14  29
TORSDOF 4
ENDMDL
MODEL 2
REMARK VINA RESULT:      -6.4      3.010      5.181
REMARK  Name = 
REMARK  5 active torsions:
REMARK  status: ('A' for Active; 'I' for Inactive)
REMARK    1  A    between atoms: C_1  and  O_2
REMARK    2  A    between atoms: O_2  and  C_3
REMARK    3  A    between atoms: C_3  and  C_5
REMARK    4  A    between atoms: C_16  and  C_17
REMARK    5  A    between atoms: C_26  and  C_28
REMARK                            x       y       z     vdW  Elec       q    Type
REMARK                         _______ _______ _______ _____ _____    ______ ____
ROOT
ATOM      1  C   UNL     1      -0.668  15.133  21.087  0.00  0.00    +0.000 C 
ATOM      2  C   UNL     1      -2.057  15.727  21.418  0.00  0.00    +0.000 C 
ATOM      3  C   UNL     1      -3.096  14.672  21.513  0.00  0.00    +0.000 A 
ATOM      4  C   UNL     1      -2.911  13.419  20.972  0.00  0.00    +0.000 A 
ATOM      5  N   UNL     1      -4.045  12.685  21.213  0.00  0.00    +0.000 N 
ATOM      6  C   UNL     1      -4.867  13.379  22.082  0.00  0.00    +0.000 A 
ATOM      7  C   UNL     1      -6.020  12.963  22.756  0.00  0.00    +0.000 A 
ATOM      8  C   UNL     1      -6.625  13.874  23.629  0.00  0.00    +0.000 A 
ATOM      9  C   UNL     1      -6.110  15.158  23.797  0.00  0.00    +0.000 A 
ATOM     10  C   UNL     1      -4.963  15.563  23.106  0.00  0.00    +0.000 A 
ATOM     11  C   UNL     1      -4.313  14.650  22.248  0.00  0.00    +0.000 A 
ATOM     12  C   UNL     1      -1.656  12.864  20.348  0.00  0.00    +0.000 C 
ATOM     13  N   UNL     1      -0.710  13.998  20.105  0.00  0.00    +0.000 N 
ATOM     14  C   UNL     1      -0.078  14.088  18.856  0.00  0.00    +0.000 C 
ATOM     15  O   UNL     1      -0.409  13.368  17.915  0.00  0.00    +0.000 OA
ATOM     16  H   UNL     1      -4.195  11.724  20.938  0.00  0.00    +0.000 HD
ENDROOT
BRANCH  12  17
ATOM     17  C   UNL     1      -1.078  11.651  21.115  0.00  0.00    +0.000 A 
ATOM     18  C   UNL     1      -0.535  10.552  20.402  0.00  0.00    +0.000 A 
ATOM     19 CL   UNL     1      -0.299  10.526  18.691  0.00  0.00    +0.000 Cl
ATOM     20  C   UNL     1      -0.176   9.349  21.038  0.00  0.00    +0.000 A 
ATOM     21  C   UNL     1      -0.350   9.187  22.400  0.00  0.00    +0.000 A 
ATOM     22  C   UNL     1      -0.825  10.254  23.140  0.00  0.00    +0.000 A 
ATOM     23  C   UNL     1      -1.155  11.475  22.524  0.00  0.00    +0.000 A 
ATOM     24 CL   UNL     1      -1.643  12.677  23.672  0.00  0.00    +0.000 Cl
ENDBRANCH  12  17
BRANCH   1  25
ATOM     25  C   UNL     1       0.206  14.906  22.326  0.00  0.00    +0.000 C 
ATOM     26  O   UNL     1       0.004  15.438  23.411  0.00  0.00    +0.000 OA
BRANCH  25  28
ATOM     27  C   UNL     1       2.522  14.943  21.925  0.00  0.00    +0.000 C 
ATOM     28  O   UNL     1       1.318  14.179  22.020  0.00  0.00    +0.000 OA
ENDBRANCH  25  28
ENDBRANCH   1  25
BRANCH  14  29
ATOM     29  C   UNL     1       1.010  15.149  18.692  0.00  0.00    +0.000 C 
ATOM     30 CL   UNL     1       2.579  14.434  18.262  0.00  0.00    +0.000 Cl
ENDBRANCH  14  29
TORSDOF 4
ENDMDL
MODEL 3
REMARK VINA RESULT:      -6.0      2.178      5.196
REMARK  Name = 
REMARK  5 active torsions:
REMARK  status: ('A' for Active; 'I' for Inactive)
REMARK    1  A    between atoms: C_1  and  O_2
REMARK    2  A    between atoms: O_2  and  C_3
REMARK    3  A    between atoms: C_3  and  C_5
REMARK    4  A    between atoms: C_16  and  C_17
REMARK    5  A    between atoms: C_26  and  C_28
REMARK                            x       y       z     vdW  Elec       q    Type
REMARK                         _______ _______ _______ _____ _____    ______ ____
ROOT
ATOM      1  C   UNL     1       0.552  10.447  19.792  0.00  0.00    +0.000 C 
ATOM      2  C   UNL     1      -0.262   9.769  18.665  0.00  0.00    +0.000 C 
ATOM      3  C   UNL     1      -1.580  10.422  18.471  0.00  0.00    +0.000 A 
ATOM      4  C   UNL     1      -2.140  11.230  19.438  0.00  0.00    +0.000 A 
ATOM      5  N   UNL     1      -3.353  11.667  18.969  0.00  0.00    +0.000 N 
ATOM      6  C   UNL     1      -3.484  11.323  17.636  0.00  0.00    +0.000 A 
ATOM      7  C   UNL     1      -4.444  11.713  16.696  0.00  0.00    +0.000 A 
ATOM      8  C   UNL     1      -4.292  11.247  15.385  0.00  0.00    +0.000 A 
ATOM      9  C   UNL     1      -3.239  10.405  15.038  0.00  0.00    +0.000 A 
ATOM     10  C   UNL     1      -2.293  10.015  15.993  0.00  0.00    +0.000 A 
ATOM     11  C   UNL     1      -2.402  10.501  17.314  0.00  0.00    +0.000 A 
ATOM     12  C   UNL     1      -1.509  11.693  20.725  0.00  0.00    +0.000 C 
ATOM     13  N   UNL     1      -0.277  10.876  20.967  0.00  0.00    +0.000 N 
ATOM     14  C   UNL     1      -0.073  10.334  22.244  0.00  0.00    +0.000 C 
ATOM     15  O   UNL     1      -0.951  10.368  23.104  0.00  0.00    +0.000 OA
ATOM     16  H   UNL     1      -3.987  12.282  19.459  0.00  0.00    +0.000 HD
ENDROOT
BRANCH  12  17
ATOM     17  C   UNL     1      -1.330  13.228  20.801  0.00  0.00    +0.000 A 
ATOM     18  C   UNL     1      -1.606  13.918  22.008  0.00  0.00    +0.000 A 
ATOM     19 CL   UNL     1      -1.973  13.142  23.507  0.00  0.00    +0.000 Cl
ATOM     20  C   UNL     1      -1.647  15.323  22.077  0.00  0.00    +0.000 A 
ATOM     21  C   UNL     1      -1.426  16.095  20.951  0.00  0.00    +0.000 A 
ATOM     22  C   UNL     1      -1.099  15.462  19.766  0.00  0.00    +0.000 A 
ATOM     23  C   UNL     1      -1.019  14.060  19.690  0.00  0.00    +0.000 A 
ATOM     24 CL   UNL     1      -0.511  13.517  18.126  0.00  0.00    +0.000 Cl
ENDBRANCH  12  17
BRANCH   1  25
ATOM     25  C   UNL     1       1.558  11.482  19.276  0.00  0.00    +0.000 C 
ATOM     26  O   UNL     1       2.083  11.433  18.170  0.00  0.00    +0.000 OA
BRANCH  25  28
ATOM     27  C   UNL     1       2.647  13.498  19.804  0.00  0.00    +0.000 C 
ATOM     28  O   UNL     1       1.913  12.358  20.258  0.00  0.00    +0.000 OA
ENDBRANCH  25  28
ENDBRANCH   1  25
BRANCH  14  29
ATOM     29  C   UNL     1       1.269   9.653  22.513  0.00  0.00    +0.000 C 
ATOM     30 CL   UNL     1       1.426   8.119  21.631  0.00  0.00    +0.000 Cl
ENDBRANCH  14  29
TORSDOF 4
ENDMDL
MODEL 4
REMARK VINA RESULT:      -6.0      1.370      1.456
REMARK  Name = 
REMARK  5 active torsions:
REMARK  status: ('A' for Active; 'I' for Inactive)
REMARK    1  A    between atoms: C_1  and  O_2
REMARK    2  A    between atoms: O_2  and  C_3
REMARK    3  A    between atoms: C_3  and  C_5
REMARK    4  A    between atoms: C_16  and  C_17
REMARK    5  A    between atoms: C_26  and  C_28
REMARK                            x       y       z     vdW  Elec       q    Type
REMARK                         _______ _______ _______ _____ _____    ______ ____
ROOT
ATOM      1  C   UNL     1       0.248  12.413  21.589  0.00  0.00    +0.000 C 
ATOM      2  C   UNL     1       1.060  13.685  21.249  0.00  0.00    +0.000 C 
ATOM      3  C   UNL     1       0.485  14.409  20.089  0.00  0.00    +0.000 A 
ATOM      4  C   UNL     1      -0.384  13.800  19.210  0.00  0.00    +0.000 A 
ATOM      5  N   UNL     1      -0.724  14.720  18.250  0.00  0.00    +0.000 N 
ATOM      6  C   UNL     1      -0.254  15.967  18.619  0.00  0.00    +0.000 A 
ATOM      7  C   UNL     1      -0.514  17.226  18.068  0.00  0.00    +0.000 A 
ATOM      8  C   UNL     1       0.064  18.338  18.691  0.00  0.00    +0.000 A 
ATOM      9  C   UNL     1       0.889  18.190  19.804  0.00  0.00    +0.000 A 
ATOM     10  C   UNL     1       1.148  16.922  20.336  0.00  0.00    +0.000 A 
ATOM     11  C   UNL     1       0.548  15.788  19.748  0.00  0.00    +0.000 A 
ATOM     12  C   UNL     1      -0.989  12.425  19.322  0.00  0.00    +0.000 C 
ATOM     13  N   UNL     1      -0.252  11.670  20.384  0.00  0.00    +0.000 N 
ATOM     14  C   UNL     1       0.161  10.359  20.110  0.00  0.00    +0.000 C 
ATOM     15  O   UNL     1       0.086   9.885  18.977  0.00  0.00    +0.000 OA
ATOM     16  H   UNL     1      -1.354  14.559  17.477  0.00  0.00    +0.000 HD
ENDROOT
BRANCH  12  17
ATOM     17  C   UNL     1      -2.531  12.446  19.452  0.00  0.00    +0.000 A 
ATOM     18  C   UNL     1      -3.318  11.508  18.737  0.00  0.00    +0.000 A 
ATOM     19 CL   UNL     1      -2.669  10.185  17.834  0.00  0.00    +0.000 Cl
ATOM     20  C   UNL     1      -4.720  11.604  18.665  0.00  0.00    +0.000 A 
ATOM     21  C   UNL     1      -5.393  12.637  19.292  0.00  0.00    +0.000 A 
ATOM     22  C   UNL     1      -4.668  13.541  20.046  0.00  0.00    +0.000 A 
ATOM     23  C   UNL     1      -3.269  13.437  20.155  0.00  0.00    +0.000 A 
ATOM     24 CL   UNL     1      -2.606  14.632  21.220  0.00  0.00    +0.000 Cl
ENDBRANCH  12  17
BRANCH   1  25
ATOM     25  C   UNL     1      -0.778  12.630  22.708  0.00  0.00    +0.000 C 
ATOM     26  O   UNL     1      -0.691  13.513  23.553  0.00  0.00    +0.000 OA
BRANCH  25  28
ATOM     27  C   UNL     1      -2.878  11.915  23.486  0.00  0.00    +0.000 C 
ATOM     28  O   UNL     1      -1.695  11.622  22.739  0.00  0.00    +0.000 OA
ENDBRANCH  25  28
ENDBRANCH   1  25
BRANCH  14  29
ATOM     29  C   UNL     1       0.757   9.552  21.264  0.00  0.00    +0.000 C 
ATOM     30 CL   UNL     1      -0.453   8.507  22.039  0.00  0.00    +0.000 Cl
ENDBRANCH  14  29
TORSDOF 4
ENDMDL
MODEL 5
REMARK VINA RESULT:      -5.9      3.014      5.736
REMARK  Name = 
REMARK  5 active torsions:
REMARK  status: ('A' for Active; 'I' for Inactive)
REMARK    1  A    between atoms: C_1  and  O_2
REMARK    2  A    between atoms: O_2  and  C_3
REMARK    3  A    between atoms: C_3  and  C_5
REMARK    4  A    between atoms: C_16  and  C_17
REMARK    5  A    between atoms: C_26  and  C_28
REMARK                            x       y       z     vdW  Elec       q    Type
REMARK                         _______ _______ _______ _____ _____    ______ ____
ROOT
ATOM      1  C   UNL     1      -1.563  15.462  21.300  0.00  0.00    +0.000 C 
ATOM      2  C   UNL     1      -3.087  15.715  21.209  0.00  0.00    +0.000 C 
ATOM      3  C   UNL     1      -3.840  14.455  20.998  0.00  0.00    +0.000 A 
ATOM      4  C   UNL     1      -3.227  13.310  20.535  0.00  0.00    +0.000 A 
ATOM      5  N   UNL     1      -4.184  12.333  20.435  0.00  0.00    +0.000 N 
ATOM      6  C   UNL     1      -5.356  12.771  21.024  0.00  0.00    +0.000 A 
ATOM      7  C   UNL     1      -6.527  12.069  21.332  0.00  0.00    +0.000 A 
ATOM      8  C   UNL     1      -7.546  12.767  21.989  0.00  0.00    +0.000 A 
ATOM      9  C   UNL     1      -7.408  14.118  22.298  0.00  0.00    +0.000 A 
ATOM     10  C   UNL     1      -6.235  14.809  21.974  0.00  0.00    +0.000 A 
ATOM     11  C   UNL     1      -5.177  14.119  21.344  0.00  0.00    +0.000 A 
ATOM     12  C   UNL     1      -1.755  13.086  20.307  0.00  0.00    +0.000 C 
ATOM     13  N   UNL     1      -1.063  14.413  20.350  0.00  0.00    +0.000 N 
ATOM     14  C   UNL     1      -0.140  14.720  19.341  0.00  0.00    +0.000 C 
ATOM     15  O   UNL     1      -0.016  14.009  18.345  0.00  0.00    +0.000 OA
ATOM     16  H   UNL     1      -4.026  11.382  20.129  0.00  0.00    +0.000 HD
ENDROOT
BRANCH  12  17
ATOM     17  C   UNL     1      -1.158  11.981  21.210  0.00  0.00    +0.000 A 
ATOM     18  C   UNL     1      -0.186  11.088  20.694  0.00  0.00    +0.000 A 
ATOM     19 CL   UNL     1       0.543  11.242  19.136  0.00  0.00    +0.000 Cl
ATOM     20  C   UNL     1       0.244   9.953  21.406  0.00  0.00    +0.000 A 
ATOM     21  C   UNL     1      -0.280   9.656  22.651  0.00  0.00    +0.000 A 
ATOM     22  C   UNL     1      -1.190  10.531  23.214  0.00  0.00    +0.000 A 
ATOM     23  C   UNL     1      -1.603  11.689  22.529  0.00  0.00    +0.000 A 
ATOM     24 CL   UNL     1      -2.677  12.662  23.477  0.00  0.00    +0.000 Cl
ENDBRANCH  12  17
BRANCH   1  25
ATOM     25  C   UNL     1      -1.052  15.351  22.740  0.00  0.00    +0.000 C 
ATOM     26  O   UNL     1      -0.034  14.748  23.060  0.00  0.00    +0.000 OA
BRANCH  25  28
ATOM     27  C   UNL     1      -1.570  15.751  24.999  0.00  0.00    +0.000 C 
ATOM     28  O   UNL     1      -1.954  15.860  23.626  0.00  0.00    +0.000 OA
ENDBRANCH  25  28
ENDBRANCH   1  25
BRANCH  14  29
ATOM     29  C   UNL     1       0.677  16.002  19.501  0.00  0.00    +0.000 C 
ATOM     30 CL   UNL     1       0.244  17.224  18.285  0.00  0.00    +0.000 Cl
ENDBRANCH  14  29
TORSDOF 4
ENDMDL
MODEL 6
REMARK VINA RESULT:      -5.9      2.270      3.301
REMARK  Name = 
REMARK  5 active torsions:
REMARK  status: ('A' for Active; 'I' for Inactive)
REMARK    1  A    between atoms: C_1  and  O_2
REMARK    2  A    between atoms: O_2  and  C_3
REMARK    3  A    between atoms: C_3  and  C_5
REMARK    4  A    between atoms: C_16  and  C_17
REMARK    5  A    between atoms: C_26  and  C_28
REMARK                            x       y       z     vdW  Elec       q    Type
REMARK                         _______ _______ _______ _____ _____    ______ ____
ROOT
ATOM      1  C   UNL     1      -0.331  12.079  19.610  0.00  0.00    +0.000 C 
ATOM      2  C   UNL     1       0.457  13.331  19.156  0.00  0.00    +0.000 C 
ATOM      3  C   UNL     1      -0.212  14.584  19.582  0.00  0.00    +0.000 A 
ATOM      4  C   UNL     1      -1.539  14.610  19.953  0.00  0.00    +0.000 A 
ATOM      5  N   UNL     1      -1.859  15.904  20.276  0.00  0.00    +0.000 N 
ATOM      6  C   UNL     1      -0.707  16.668  20.322  0.00  0.00    +0.000 A 
ATOM      7  C   UNL     1      -0.509  17.973  20.786  0.00  0.00    +0.000 A 
ATOM      8  C   UNL     1       0.796  18.477  20.762  0.00  0.00    +0.000 A 
ATOM      9  C   UNL     1       1.852  17.716  20.268  0.00  0.00    +0.000 A 
ATOM     10  C   UNL     1       1.636  16.416  19.797  0.00  0.00    +0.000 A 
ATOM     11  C   UNL     1       0.335  15.870  19.844  0.00  0.00    +0.000 A 
ATOM     12  C   UNL     1      -2.467  13.436  20.124  0.00  0.00    +0.000 C 
ATOM     13  N   UNL     1      -1.820  12.231  19.515  0.00  0.00    +0.000 N 
ATOM     14  C   UNL     1      -2.586  11.416  18.668  0.00  0.00    +0.000 C 
ATOM     15  O   UNL     1      -3.704  11.758  18.285  0.00  0.00    +0.000 OA
ATOM     16  H   UNL     1      -2.764  16.226  20.593  0.00  0.00    +0.000 HD
ENDROOT
BRANCH  12  17
ATOM     17  C   UNL     1      -2.979  13.269  21.575  0.00  0.00    +0.000 A 
ATOM     18  C   UNL     1      -4.321  12.882  21.815  0.00  0.00    +0.000 A 
ATOM     19 CL   UNL     1      -5.427  12.394  20.581  0.00  0.00    +0.000 Cl
ATOM     20  C   UNL     1      -4.890  12.904  23.103  0.00  0.00    +0.000 A 
ATOM     21  C   UNL     1      -4.153  13.319  24.197  0.00  0.00    +0.000 A 
ATOM     22  C   UNL     1      -2.823  13.653  24.013  0.00  0.00    +0.000 A 
ATOM     23  C   UNL     1      -2.231  13.602  22.738  0.00  0.00    +0.000 A 
ATOM     24 CL   UNL     1      -0.542  13.981  22.785  0.00  0.00    +0.000 Cl
ENDBRANCH  12  17
BRANCH   1  25
ATOM     25  C   UNL     1       0.193  11.475  20.918  0.00  0.00    +0.000 C 
ATOM     26  O   UNL     1       1.334  11.634  21.337  0.00  0.00    +0.000 OA
BRANCH  25  28
ATOM     27  C   UNL     1      -0.516  10.337  22.849  0.00  0.00    +0.000 C 
ATOM     28  O   UNL     1      -0.713  10.612  21.461  0.00  0.00    +0.000 OA
ENDBRANCH  25  28
ENDBRANCH   1  25
BRANCH  14  29
ATOM     29  C   UNL     1      -1.959  10.104  18.198  0.00  0.00    +0.000 C 
ATOM     30 CL   UNL     1      -2.285   9.788  16.480  0.00  0.00    +0.000 Cl
ENDBRANCH  14  29
TORSDOF 4
ENDMDL
MODEL 7
REMARK VINA RESULT:      -5.9      2.129      3.399
REMARK  Name = 
REMARK  5 active torsions:
REMARK  status: ('A' for Active; 'I' for Inactive)
REMARK    1  A    between atoms: C_1  and  O_2
REMARK    2  A    between atoms: O_2  and  C_3
REMARK    3  A    between atoms: C_3  and  C_5
REMARK    4  A    between atoms: C_16  and  C_17
REMARK    5  A    between atoms: C_26  and  C_28
REMARK                            x       y       z     vdW  Elec       q    Type
REMARK                         _______ _______ _______ _____ _____    ______ ____
ROOT
ATOM      1  C   UNL     1      -0.452  11.551  18.772  0.00  0.00    +0.000 C 
ATOM      2  C   UNL     1       0.414  12.708  18.223  0.00  0.00    +0.000 C 
ATOM      3  C   UNL     1       0.004  14.016  18.789  0.00  0.00    +0.000 A 
ATOM      4  C   UNL     1      -1.228  14.198  19.380  0.00  0.00    +0.000 A 
ATOM      5  N   UNL     1      -1.309  15.506  19.787  0.00  0.00    +0.000 N 
ATOM      6  C   UNL     1      -0.072  16.108  19.656  0.00  0.00    +0.000 A 
ATOM      7  C   UNL     1       0.378  17.352  20.114  0.00  0.00    +0.000 A 
ATOM      8  C   UNL     1       1.718  17.681  19.882  0.00  0.00    +0.000 A 
ATOM      9  C   UNL     1       2.563  16.813  19.196  0.00  0.00    +0.000 A 
ATOM     10  C   UNL     1       2.096  15.577  18.735  0.00  0.00    +0.000 A 
ATOM     11  C   UNL     1       0.758  15.205  18.988  0.00  0.00    +0.000 A 
ATOM     12  C   UNL     1      -2.267  13.149  19.676  0.00  0.00    +0.000 C 
ATOM     13  N   UNL     1      -1.902  11.901  18.935  0.00  0.00    +0.000 N 
ATOM     14  C   UNL     1      -2.901  11.236  18.210  0.00  0.00    +0.000 C 
ATOM     15  O   UNL     1      -4.009  11.740  18.031  0.00  0.00    +0.000 OA
ATOM     16  H   UNL     1      -2.096  15.928  20.261  0.00  0.00    +0.000 HD
ENDROOT
BRANCH  12  17
ATOM     17  C   UNL     1      -2.551  12.980  21.188  0.00  0.00    +0.000 A 
ATOM     18  C   UNL     1      -3.875  12.755  21.642  0.00  0.00    +0.000 A 
ATOM     19 CL   UNL     1      -5.224  12.471  20.601  0.00  0.00    +0.000 Cl
ATOM     20  C   UNL     1      -4.216  12.789  23.008  0.00  0.00    +0.000 A 
ATOM     21  C   UNL     1      -3.260  13.055  23.971  0.00  0.00    +0.000 A 
ATOM     22  C   UNL     1      -1.947  13.225  23.574  0.00  0.00    +0.000 A 
ATOM     23  C   UNL     1      -1.585  13.160  22.216  0.00  0.00    +0.000 A 
ATOM     24 CL   UNL     1       0.124  13.319  21.986  0.00  0.00    +0.000 Cl
ENDBRANCH  12  17
BRANCH   1  25
ATOM     25  C   UNL     1       0.191  10.820  19.956  0.00  0.00    +0.000 C 
ATOM     26  O   UNL     1       1.396  10.814  20.183  0.00  0.00    +0.000 OA
BRANCH  25  28
ATOM     27  C   UNL     1      -0.247   9.483  21.839  0.00  0.00    +0.000 C 
ATOM     28  O   UNL     1      -0.720  10.049  20.615  0.00  0.00    +0.000 OA
ENDBRANCH  25  28
ENDBRANCH   1  25
BRANCH  14  29
ATOM     29  C   UNL     1      -2.547   9.877  17.606  0.00  0.00    +0.000 C 
ATOM     30 CL   UNL     1      -2.679   9.881  15.834  0.00  0.00    +0.000 Cl
ENDBRANCH  14  29
TORSDOF 4
ENDMDL
MODEL 8
REMARK VINA RESULT:      -5.9      2.410      5.073
REMARK  Name = 
REMARK  5 active torsions:
REMARK  status: ('A' for Active; 'I' for Inactive)
REMARK    1  A    between atoms: C_1  and  O_2
REMARK    2  A    between atoms: O_2  and  C_3
REMARK    3  A    between atoms: C_3  and  C_5
REMARK    4  A    between atoms: C_16  and  C_17
REMARK    5  A    between atoms: C_26  and  C_28
REMARK                            x       y       z     vdW  Elec       q    Type
REMARK                         _______ _______ _______ _____ _____    ______ ____
ROOT
ATOM      1  C   UNL     1      -1.648  12.970  19.662  0.00  0.00    +0.000 C 
ATOM      2  C   UNL     1      -0.774  14.202  19.330  0.00  0.00    +0.000 C 
ATOM      3  C   UNL     1       0.639  13.997  19.733  0.00  0.00    +0.000 A 
ATOM      4  C   UNL     1       1.002  13.025  20.641  0.00  0.00    +0.000 A 
ATOM      5  N   UNL     1       2.361  13.096  20.812  0.00  0.00    +0.000 N 
ATOM      6  C   UNL     1       2.900  13.955  19.872  0.00  0.00    +0.000 A 
ATOM      7  C   UNL     1       4.236  14.197  19.533  0.00  0.00    +0.000 A 
ATOM      8  C   UNL     1       4.488  15.092  18.487  0.00  0.00    +0.000 A 
ATOM      9  C   UNL     1       3.445  15.738  17.828  0.00  0.00    +0.000 A 
ATOM     10  C   UNL     1       2.115  15.494  18.186  0.00  0.00    +0.000 A 
ATOM     11  C   UNL     1       1.832  14.568  19.213  0.00  0.00    +0.000 A 
ATOM     12  C   UNL     1       0.123  11.963  21.250  0.00  0.00    +0.000 C 
ATOM     13  N   UNL     1      -1.305  12.315  20.968  0.00  0.00    +0.000 N 
ATOM     14  C   UNL     1      -2.230  12.251  22.020  0.00  0.00    +0.000 C 
ATOM     15  O   UNL     1      -1.870  12.083  23.184  0.00  0.00    +0.000 OA
ATOM     16  H   UNL     1       2.912  12.500  21.414  0.00  0.00    +0.000 HD
ENDROOT
BRANCH  12  17
ATOM     17  C   UNL     1       0.553  10.525  20.874  0.00  0.00    +0.000 A 
ATOM     18  C   UNL     1       0.509   9.494  21.846  0.00  0.00    +0.000 A 
ATOM     19 CL   UNL     1      -0.171   9.674  23.423  0.00  0.00    +0.000 Cl
ATOM     20  C   UNL     1       1.068   8.222  21.616  0.00  0.00    +0.000 A 
ATOM     21  C   UNL     1       1.698   7.930  20.420  0.00  0.00    +0.000 A 
ATOM     22  C   UNL     1       1.714   8.891  19.426  0.00  0.00    +0.000 A 
ATOM     23  C   UNL     1       1.128  10.154  19.628  0.00  0.00    +0.000 A 
ATOM     24 CL   UNL     1       1.203  11.144  18.209  0.00  0.00    +0.000 Cl
ENDBRANCH  12  17
BRANCH   1  25
ATOM     25  C   UNL     1      -1.836  12.021  18.473  0.00  0.00    +0.000 C 
ATOM     26  O   UNL     1      -1.675  12.350  17.304  0.00  0.00    +0.000 OA
BRANCH  25  28
ATOM     27  C   UNL     1      -2.810   9.988  17.806  0.00  0.00    +0.000 C 
ATOM     28  O   UNL     1      -2.361  10.827  18.872  0.00  0.00    +0.000 OA
ENDBRANCH  25  28
ENDBRANCH   1  25
BRANCH  14  29
ATOM     29  C   UNL     1      -3.706  12.446  21.672  0.00  0.00    +0.000 C 
ATOM     30 CL   UNL     1      -4.660  12.961  23.080  0.00  0.00    +0.000 Cl
ENDBRANCH  14  29
TORSDOF 4
ENDMDL
MODEL 9
REMARK VINA RESULT:      -5.8      2.532      4.926
REMARK  Name = 
REMARK  5 active torsions:
REMARK  status: ('A' for Active; 'I' for Inactive)
REMARK    1  A    between atoms: C_1  and  O_2
REMARK    2  A    between atoms: O_2  and  C_3
REMARK    3  A    between atoms: C_3  and  C_5
REMARK    4  A    between atoms: C_16  and  C_17
REMARK    5  A    between atoms: C_26  and  C_28
REMARK                            x       y       z     vdW  Elec       q    Type
REMARK                         _______ _______ _______ _____ _____    ______ ____
ROOT
ATOM      1  C   UNL     1       0.463  14.929  20.666  0.00  0.00    +0.000 C 
ATOM      2  C   UNL     1      -0.959  15.533  20.606  0.00  0.00    +0.000 C 
ATOM      3  C   UNL     1      -1.998  14.479  20.496  0.00  0.00    +0.000 A 
ATOM      4  C   UNL     1      -1.694  13.198  20.087  0.00  0.00    +0.000 A 
ATOM      5  N   UNL     1      -2.858  12.473  20.076  0.00  0.00    +0.000 N 
ATOM      6  C   UNL     1      -3.866  13.209  20.672  0.00  0.00    +0.000 A 
ATOM      7  C   UNL     1      -5.154  12.823  21.059  0.00  0.00    +0.000 A 
ATOM      8  C   UNL     1      -5.950  13.778  21.701  0.00  0.00    +0.000 A 
ATOM      9  C   UNL     1      -5.484  15.072  21.922  0.00  0.00    +0.000 A 
ATOM     10  C   UNL     1      -4.196  15.444  21.520  0.00  0.00    +0.000 A 
ATOM     11  C   UNL     1      -3.360  14.490  20.903  0.00  0.00    +0.000 A 
ATOM     12  C   UNL     1      -0.327  12.618  19.829  0.00  0.00    +0.000 C 
ATOM     13  N   UNL     1       0.659  13.742  19.769  0.00  0.00    +0.000 N 
ATOM     14  C   UNL     1       1.584  13.766  18.715  0.00  0.00    +0.000 C 
ATOM     15  O   UNL     1       1.493  12.995  17.762  0.00  0.00    +0.000 OA
ATOM     16  H   UNL     1      -2.943  11.498  19.826  0.00  0.00    +0.000 HD
ENDROOT
BRANCH  12  17
ATOM     17  C   UNL     1       0.031  11.452  20.780  0.00  0.00    +0.000 A 
ATOM     18  C   UNL     1       0.733  10.323  20.289  0.00  0.00    +0.000 A 
ATOM     19 CL   UNL     1       1.400  10.210  18.700  0.00  0.00    +0.000 Cl
ATOM     20  C   UNL     1       0.913   9.157  21.058  0.00  0.00    +0.000 A 
ATOM     21  C   UNL     1       0.395   9.064  22.337  0.00  0.00    +0.000 A 
ATOM     22  C   UNL     1      -0.249  10.164  22.874  0.00  0.00    +0.000 A 
ATOM     23  C   UNL     1      -0.405  11.348  22.130  0.00  0.00    +0.000 A 
ATOM     24 CL   UNL     1      -1.166  12.603  23.050  0.00  0.00    +0.000 Cl
ENDBRANCH  12  17
BRANCH   1  25
ATOM     25  C   UNL     1       0.997  14.775  22.095  0.00  0.00    +0.000 C 
ATOM     26  O   UNL     1       0.459  15.263  23.083  0.00  0.00    +0.000 OA
BRANCH  25  28
ATOM     27  C   UNL     1       3.322  15.073  22.278  0.00  0.00    +0.000 C 
ATOM     28  O   UNL     1       2.223  14.177  22.104  0.00  0.00    +0.000 OA
ENDBRANCH  25  28
ENDBRANCH   1  25
BRANCH  14  29
ATOM     29  C   UNL     1       2.687  14.823  18.771  0.00  0.00    +0.000 C 
ATOM     30 CL   UNL     1       2.192  16.344  17.997  0.00  0.00    +0.000 Cl
ENDBRANCH  14  29
TORSDOF 4
ENDMDL
