MODEL 1
REMARK VINA RESULT:      -8.2      0.000      0.000
REMARK  Name = 
REMARK  7 active torsions:
REMARK  status: ('A' for Active; 'I' for Inactive)
REMARK    1  A    between atoms: C_3  and  C_4
REMARK    2  A    between atoms: C_4  and  N_5
REMARK    3  A    between atoms: N_8  and  C_9
REMARK    4  A    between atoms: C_9  and  C_10
REMARK    5  A    between atoms: C_10  and  N_11
REMARK    6  A    between atoms: C_20  and  C_21
REMARK    7  A    between atoms: C_25  and  C_26
REMARK                            x       y       z     vdW  Elec       q    Type
REMARK                         _______ _______ _______ _____ _____    ______ ____
ROOT
ATOM      1  C   UNL     1      -1.299  12.138  18.076  0.00  0.00    +0.000 A 
ATOM      2  C   UNL     1      -0.527  13.294  18.215  0.00  0.00    +0.000 A 
ATOM      3  C   UNL     1       0.723  13.239  18.842  0.00  0.00    +0.000 A 
ATOM      4  C   UNL     1       1.139  12.011  19.375  0.00  0.00    +0.000 A 
ATOM      5  C   UNL     1       0.396  10.822  19.224  0.00  0.00    +0.000 A 
ATOM      6  C   UNL     1      -0.834  10.911  18.560  0.00  0.00    +0.000 A 
ENDROOT
BRANCH   5   7
ATOM      7  C   UNL     1       0.932   9.551  19.753  0.00  0.00    +0.000 A 
ATOM      8  C   UNL     1       0.584   9.030  21.005  0.00  0.00    +0.000 A 
ATOM      9  C   UNL     1       1.042   7.768  21.411  0.00  0.00    +0.000 A 
ATOM     10  C   UNL     1       1.856   6.995  20.572  0.00  0.00    +0.000 A 
ATOM     11  C   UNL     1       2.239   7.496  19.326  0.00  0.00    +0.000 A 
ATOM     12  C   UNL     1       1.782   8.771  18.956  0.00  0.00    +0.000 A 
BRANCH  11  13
ATOM     13  C   UNL     1       3.048   6.777  18.335  0.00  0.00    +0.000 A 
ATOM     14  N   UNL     1       3.119   5.459  18.277  0.00  0.00    +0.000 NA
ATOM     15  C   UNL     1       4.037   5.159  17.319  0.00  0.00    +0.000 A 
ATOM     16  C   UNL     1       4.499   3.903  16.909  0.00  0.00    +0.000 A 
ATOM     17  C   UNL     1       5.476   3.848  15.914  0.00  0.00    +0.000 A 
ATOM     18  C   UNL     1       5.970   5.024  15.338  0.00  0.00    +0.000 A 
ATOM     19  C   UNL     1       5.505   6.290  15.729  0.00  0.00    +0.000 A 
ATOM     20  C   UNL     1       4.534   6.314  16.733  0.00  0.00    +0.000 A 
ATOM     21  N   UNL     1       3.867   7.332  17.376  0.00  0.00    +0.000 N 
ATOM     22  H   UNL     1       3.985   8.317  17.199  0.00  0.00    +0.000 HD
ENDBRANCH  11  13
ENDBRANCH   5   7
BRANCH   3  23
ATOM     23  C   UNL     1       1.566  14.494  18.970  0.00  0.00    +0.000 C 
BRANCH  23  24
ATOM     24  N   UNL     1       2.934  14.302  19.501  0.00  0.00    +0.000 NA
ATOM     25  C   UNL     1       3.980  14.320  18.459  0.00  0.00    +0.000 C 
ATOM     26  C   UNL     1       4.254  15.698  17.804  0.00  0.00    +0.000 C 
ATOM     27  N   UNL     1       4.362  16.868  18.701  0.00  0.00    +0.000 NA
ATOM     28  C   UNL     1       3.409  16.762  19.837  0.00  0.00    +0.000 C 
ATOM     29  C   UNL     1       3.270  15.358  20.472  0.00  0.00    +0.000 C 
BRANCH  27  30
ATOM     30  C   UNL     1       5.721  17.093  19.223  0.00  0.00    +0.000 C 
BRANCH  30  31
ATOM     31  C   UNL     1       6.906  16.458  18.436  0.00  0.00    +0.000 C 
BRANCH  31  32
ATOM     32  N   UNL     1       8.074  16.269  19.321  0.00  0.00    +0.000 NA
ATOM     33  C   UNL     1       9.292  16.991  18.894  0.00  0.00    +0.000 C 
ATOM     34  C   UNL     1      10.031  16.331  17.723  0.00  0.00    +0.000 C 
ATOM     35  O   UNL     1      10.416  14.996  18.064  0.00  0.00    +0.000 OA
ATOM     36  C   UNL     1       9.265  14.211  18.394  0.00  0.00    +0.000 C 
ATOM     37  C   UNL     1       8.426  14.846  19.521  0.00  0.00    +0.000 C 
ENDBRANCH  31  32
ENDBRANCH  30  31
ENDBRANCH  27  30
ENDBRANCH  23  24
ENDBRANCH   3  23
TORSDOF 7
ENDMDL
MODEL 2
REMARK VINA RESULT:      -8.0      0.686      1.372
REMARK  Name = 
REMARK  7 active torsions:
REMARK  status: ('A' for Active; 'I' for Inactive)
REMARK    1  A    between atoms: C_3  and  C_4
REMARK    2  A    between atoms: C_4  and  N_5
REMARK    3  A    between atoms: N_8  and  C_9
REMARK    4  A    between atoms: C_9  and  C_10
REMARK    5  A    between atoms: C_10  and  N_11
REMARK    6  A    between atoms: C_20  and  C_21
REMARK    7  A    between atoms: C_25  and  C_26
REMARK                            x       y       z     vdW  Elec       q    Type
REMARK                         _______ _______ _______ _____ _____    ______ ____
ROOT
ATOM      1  C   UNL     1      -1.423  11.912  17.951  0.00  0.00    +0.000 A 
ATOM      2  C   UNL     1      -0.781  13.123  18.221  0.00  0.00    +0.000 A 
ATOM      3  C   UNL     1       0.373  13.152  19.011  0.00  0.00    +0.000 A 
ATOM      4  C   UNL     1       0.821  11.947  19.568  0.00  0.00    +0.000 A 
ATOM      5  C   UNL     1       0.213  10.705  19.291  0.00  0.00    +0.000 A 
ATOM      6  C   UNL     1      -0.920  10.712  18.467  0.00  0.00    +0.000 A 
ENDROOT
BRANCH   5   7
ATOM      7  C   UNL     1       0.783   9.466  19.860  0.00  0.00    +0.000 A 
ATOM      8  C   UNL     1       0.413   8.951  21.107  0.00  0.00    +0.000 A 
ATOM      9  C   UNL     1       0.910   7.716  21.550  0.00  0.00    +0.000 A 
ATOM     10  C   UNL     1       1.785   6.966  20.753  0.00  0.00    +0.000 A 
ATOM     11  C   UNL     1       2.190   7.463  19.512  0.00  0.00    +0.000 A 
ATOM     12  C   UNL     1       1.693   8.711  19.105  0.00  0.00    +0.000 A 
BRANCH  11  13
ATOM     13  C   UNL     1       3.062   6.764  18.562  0.00  0.00    +0.000 A 
ATOM     14  N   UNL     1       3.764   7.387  17.630  0.00  0.00    +0.000 NA
ATOM     15  C   UNL     1       4.357   6.422  16.877  0.00  0.00    +0.000 A 
ATOM     16  C   UNL     1       5.169   6.566  15.747  0.00  0.00    +0.000 A 
ATOM     17  C   UNL     1       5.644   5.414  15.120  0.00  0.00    +0.000 A 
ATOM     18  C   UNL     1       5.321   4.148  15.622  0.00  0.00    +0.000 A 
ATOM     19  C   UNL     1       4.519   3.988  16.763  0.00  0.00    +0.000 A 
ATOM     20  C   UNL     1       4.051   5.159  17.364  0.00  0.00    +0.000 A 
ATOM     21  N   UNL     1       3.249   5.403  18.455  0.00  0.00    +0.000 N 
ATOM     22  H   UNL     1       2.840   4.703  19.054  0.00  0.00    +0.000 HD
ENDBRANCH  11  13
ENDBRANCH   5   7
BRANCH   3  23
ATOM     23  C   UNL     1       1.077  14.470  19.280  0.00  0.00    +0.000 C 
BRANCH  23  24
ATOM     24  N   UNL     1       1.992  14.942  18.217  0.00  0.00    +0.000 NA
ATOM     25  C   UNL     1       2.247  16.396  18.258  0.00  0.00    +0.000 C 
ATOM     26  C   UNL     1       3.110  16.893  19.445  0.00  0.00    +0.000 C 
ATOM     27  N   UNL     1       4.327  16.119  19.774  0.00  0.00    +0.000 NA
ATOM     28  C   UNL     1       4.105  14.663  19.576  0.00  0.00    +0.000 C 
ATOM     29  C   UNL     1       3.299  14.268  18.316  0.00  0.00    +0.000 C 
BRANCH  27  30
ATOM     30  C   UNL     1       5.519  16.538  19.017  0.00  0.00    +0.000 C 
BRANCH  30  31
ATOM     31  C   UNL     1       6.530  15.430  18.599  0.00  0.00    +0.000 C 
BRANCH  31  32
ATOM     32  N   UNL     1       7.756  15.509  19.422  0.00  0.00    +0.000 NA
ATOM     33  C   UNL     1       8.611  16.683  19.139  0.00  0.00    +0.000 C 
ATOM     34  C   UNL     1       9.441  16.556  17.856  0.00  0.00    +0.000 C 
ATOM     35  O   UNL     1      10.291  15.406  17.922  0.00  0.00    +0.000 OA
ATOM     36  C   UNL     1       9.512  14.217  18.096  0.00  0.00    +0.000 C 
ATOM     37  C   UNL     1       8.594  14.294  19.332  0.00  0.00    +0.000 C 
ENDBRANCH  31  32
ENDBRANCH  30  31
ENDBRANCH  27  30
ENDBRANCH  23  24
ENDBRANCH   3  23
TORSDOF 7
ENDMDL
MODEL 3
REMARK VINA RESULT:      -7.9      4.227      7.151
REMARK  Name = 
REMARK  7 active torsions:
REMARK  status: ('A' for Active; 'I' for Inactive)
REMARK    1  A    between atoms: C_3  and  C_4
REMARK    2  A    between atoms: C_4  and  N_5
REMARK    3  A    between atoms: N_8  and  C_9
REMARK    4  A    between atoms: C_9  and  C_10
REMARK    5  A    between atoms: C_10  and  N_11
REMARK    6  A    between atoms: C_20  and  C_21
REMARK    7  A    between atoms: C_25  and  C_26
REMARK                            x       y       z     vdW  Elec       q    Type
REMARK                         _______ _______ _______ _____ _____    ______ ____
ROOT
ATOM      1  C   UNL     1       1.751   3.508  20.103  0.00  0.00    +0.000 A 
ATOM      2  C   UNL     1       1.049   4.614  20.588  0.00  0.00    +0.000 A 
ATOM      3  C   UNL     1       1.626   5.889  20.552  0.00  0.00    +0.000 A 
ATOM      4  C   UNL     1       2.940   6.005  20.078  0.00  0.00    +0.000 A 
ATOM      5  C   UNL     1       3.662   4.911  19.555  0.00  0.00    +0.000 A 
ATOM      6  C   UNL     1       3.038   3.658  19.576  0.00  0.00    +0.000 A 
ENDROOT
BRANCH   5   7
ATOM      7  C   UNL     1       5.018   5.124  19.009  0.00  0.00    +0.000 A 
ATOM      8  C   UNL     1       6.140   5.374  19.809  0.00  0.00    +0.000 A 
ATOM      9  C   UNL     1       7.420   5.463  19.243  0.00  0.00    +0.000 A 
ATOM     10  C   UNL     1       7.609   5.299  17.864  0.00  0.00    +0.000 A 
ATOM     11  C   UNL     1       6.508   5.070  17.037  0.00  0.00    +0.000 A 
ATOM     12  C   UNL     1       5.237   5.007  17.629  0.00  0.00    +0.000 A 
BRANCH  11  13
ATOM     13  C   UNL     1       6.568   4.837  15.589  0.00  0.00    +0.000 A 
ATOM     14  N   UNL     1       5.852   3.912  14.975  0.00  0.00    +0.000 NA
ATOM     15  C   UNL     1       6.247   3.913  13.673  0.00  0.00    +0.000 A 
ATOM     16  C   UNL     1       5.819   3.090  12.625  0.00  0.00    +0.000 A 
ATOM     17  C   UNL     1       6.396   3.263  11.367  0.00  0.00    +0.000 A 
ATOM     18  C   UNL     1       7.373   4.245  11.163  0.00  0.00    +0.000 A 
ATOM     19  C   UNL     1       7.801   5.087  12.201  0.00  0.00    +0.000 A 
ATOM     20  C   UNL     1       7.212   4.885  13.451  0.00  0.00    +0.000 A 
ATOM     21  N   UNL     1       7.379   5.481  14.680  0.00  0.00    +0.000 N 
ATOM     22  H   UNL     1       8.013   6.237  14.887  0.00  0.00    +0.000 HD
ENDBRANCH  11  13
ENDBRANCH   5   7
BRANCH   3  23
ATOM     23  C   UNL     1       0.848   7.090  21.059  0.00  0.00    +0.000 C 
BRANCH  23  24
ATOM     24  N   UNL     1       1.550   8.390  20.988  0.00  0.00    +0.000 NA
ATOM     25  C   UNL     1       1.030   9.287  19.936  0.00  0.00    +0.000 C 
ATOM     26  C   UNL     1      -0.379   9.879  20.194  0.00  0.00    +0.000 C 
ATOM     27  N   UNL     1      -0.657  10.410  21.546  0.00  0.00    +0.000 NA
ATOM     28  C   UNL     1       0.005   9.586  22.591  0.00  0.00    +0.000 C 
ATOM     29  C   UNL     1       1.442   9.113  22.268  0.00  0.00    +0.000 C 
BRANCH  27  30
ATOM     30  C   UNL     1      -0.273  11.821  21.720  0.00  0.00    +0.000 C 
BRANCH  30  31
ATOM     31  C   UNL     1      -0.980  12.874  20.816  0.00  0.00    +0.000 C 
BRANCH  31  32
ATOM     32  N   UNL     1      -0.513  14.237  21.145  0.00  0.00    +0.000 NA
ATOM     33  C   UNL     1      -0.906  15.274  20.166  0.00  0.00    +0.000 C 
ATOM     34  C   UNL     1      -0.074  15.264  18.878  0.00  0.00    +0.000 C 
ATOM     35  O   UNL     1       1.312  15.454  19.177  0.00  0.00    +0.000 OA
ATOM     36  C   UNL     1       1.783  14.419  20.047  0.00  0.00    +0.000 C 
ATOM     37  C   UNL     1       0.951  14.317  21.340  0.00  0.00    +0.000 C 
ENDBRANCH  31  32
ENDBRANCH  30  31
ENDBRANCH  27  30
ENDBRANCH  23  24
ENDBRANCH   3  23
TORSDOF 7
ENDMDL
MODEL 4
REMARK VINA RESULT:      -7.9      0.989      1.304
REMARK  Name = 
REMARK  7 active torsions:
REMARK  status: ('A' for Active; 'I' for Inactive)
REMARK    1  A    between atoms: C_3  and  C_4
REMARK    2  A    between atoms: C_4  and  N_5
REMARK    3  A    between atoms: N_8  and  C_9
REMARK    4  A    between atoms: C_9  and  C_10
REMARK    5  A    between atoms: C_10  and  N_11
REMARK    6  A    between atoms: C_20  and  C_21
REMARK    7  A    between atoms: C_25  and  C_26
REMARK                            x       y       z     vdW  Elec       q    Type
REMARK                         _______ _______ _______ _____ _____    ______ ____
ROOT
ATOM      1  C   UNL     1      -1.243  11.940  17.993  0.00  0.00    +0.000 A 
ATOM      2  C   UNL     1      -0.510  13.117  18.165  0.00  0.00    +0.000 A 
ATOM      3  C   UNL     1       0.727  13.092  18.819  0.00  0.00    +0.000 A 
ATOM      4  C   UNL     1       1.169  11.870  19.344  0.00  0.00    +0.000 A 
ATOM      5  C   UNL     1       0.467  10.661  19.161  0.00  0.00    +0.000 A 
ATOM      6  C   UNL     1      -0.750  10.721  18.471  0.00  0.00    +0.000 A 
ENDROOT
BRANCH   5   7
ATOM      7  C   UNL     1       1.031   9.400  19.685  0.00  0.00    +0.000 A 
ATOM      8  C   UNL     1       0.704   8.874  20.940  0.00  0.00    +0.000 A 
ATOM      9  C   UNL     1       1.189   7.621  21.342  0.00  0.00    +0.000 A 
ATOM     10  C   UNL     1       2.008   6.862  20.495  0.00  0.00    +0.000 A 
ATOM     11  C   UNL     1       2.369   7.368  19.245  0.00  0.00    +0.000 A 
ATOM     12  C   UNL     1       1.886   8.634  18.879  0.00  0.00    +0.000 A 
BRANCH  11  13
ATOM     13  C   UNL     1       3.180   6.663  18.246  0.00  0.00    +0.000 A 
ATOM     14  N   UNL     1       3.273   5.346  18.187  0.00  0.00    +0.000 NA
ATOM     15  C   UNL     1       4.186   5.062  17.220  0.00  0.00    +0.000 A 
ATOM     16  C   UNL     1       4.666   3.814  16.805  0.00  0.00    +0.000 A 
ATOM     17  C   UNL     1       5.633   3.775  15.801  0.00  0.00    +0.000 A 
ATOM     18  C   UNL     1       6.101   4.960  15.220  0.00  0.00    +0.000 A 
ATOM     19  C   UNL     1       5.620   6.217  15.616  0.00  0.00    +0.000 A 
ATOM     20  C   UNL     1       4.658   6.226  16.629  0.00  0.00    +0.000 A 
ATOM     21  N   UNL     1       3.980   7.232  17.279  0.00  0.00    +0.000 N 
ATOM     22  H   UNL     1       4.079   8.219  17.100  0.00  0.00    +0.000 HD
ENDBRANCH  11  13
ENDBRANCH   5   7
BRANCH   3  23
ATOM     23  C   UNL     1       1.527  14.371  18.981  0.00  0.00    +0.000 C 
BRANCH  23  24
ATOM     24  N   UNL     1       2.933  14.203  19.412  0.00  0.00    +0.000 NA
ATOM     25  C   UNL     1       3.901  14.239  18.298  0.00  0.00    +0.000 C 
ATOM     26  C   UNL     1       4.103  15.622  17.627  0.00  0.00    +0.000 C 
ATOM     27  N   UNL     1       4.255  16.794  18.517  0.00  0.00    +0.000 NA
ATOM     28  C   UNL     1       3.388  16.670  19.718  0.00  0.00    +0.000 C 
ATOM     29  C   UNL     1       3.320  15.264  20.359  0.00  0.00    +0.000 C 
BRANCH  27  30
ATOM     30  C   UNL     1       5.643  17.041  18.940  0.00  0.00    +0.000 C 
BRANCH  30  31
ATOM     31  C   UNL     1       6.646  15.853  18.844  0.00  0.00    +0.000 C 
BRANCH  31  32
ATOM     32  N   UNL     1       7.674  15.954  19.902  0.00  0.00    +0.000 NA
ATOM     33  C   UNL     1       8.850  15.081  19.701  0.00  0.00    +0.000 C 
ATOM     34  C   UNL     1       8.599  13.607  20.041  0.00  0.00    +0.000 C 
ATOM     35  O   UNL     1       8.186  13.471  21.404  0.00  0.00    +0.000 OA
ATOM     36  C   UNL     1       6.988  14.219  21.641  0.00  0.00    +0.000 C 
ATOM     37  C   UNL     1       7.137  15.704  21.257  0.00  0.00    +0.000 C 
ENDBRANCH  31  32
ENDBRANCH  30  31
ENDBRANCH  27  30
ENDBRANCH  23  24
ENDBRANCH   3  23
TORSDOF 7
ENDMDL
MODEL 5
REMARK VINA RESULT:      -7.6      0.849      1.505
REMARK  Name = 
REMARK  7 active torsions:
REMARK  status: ('A' for Active; 'I' for Inactive)
REMARK    1  A    between atoms: C_3  and  C_4
REMARK    2  A    between atoms: C_4  and  N_5
REMARK    3  A    between atoms: N_8  and  C_9
REMARK    4  A    between atoms: C_9  and  C_10
REMARK    5  A    between atoms: C_10  and  N_11
REMARK    6  A    between atoms: C_20  and  C_21
REMARK    7  A    between atoms: C_25  and  C_26
REMARK                            x       y       z     vdW  Elec       q    Type
REMARK                         _______ _______ _______ _____ _____    ______ ____
ROOT
ATOM      1  C   UNL     1      -1.350  12.253  18.542  0.00  0.00    +0.000 A 
ATOM      2  C   UNL     1      -0.408  13.241  18.243  0.00  0.00    +0.000 A 
ATOM      3  C   UNL     1       0.955  13.007  18.456  0.00  0.00    +0.000 A 
ATOM      4  C   UNL     1       1.332  11.786  19.033  0.00  0.00    +0.000 A 
ATOM      5  C   UNL     1       0.408  10.759  19.317  0.00  0.00    +0.000 A 
ATOM      6  C   UNL     1      -0.943  11.018  19.057  0.00  0.00    +0.000 A 
ENDROOT
BRANCH   5   7
ATOM      7  C   UNL     1       0.889   9.472  19.861  0.00  0.00    +0.000 A 
ATOM      8  C   UNL     1       0.441   8.932  21.072  0.00  0.00    +0.000 A 
ATOM      9  C   UNL     1       0.853   7.657  21.486  0.00  0.00    +0.000 A 
ATOM     10  C   UNL     1       1.720   6.890  20.696  0.00  0.00    +0.000 A 
ATOM     11  C   UNL     1       2.201   7.409  19.492  0.00  0.00    +0.000 A 
ATOM     12  C   UNL     1       1.788   8.696  19.114  0.00  0.00    +0.000 A 
BRANCH  11  13
ATOM     13  C   UNL     1       3.074   6.698  18.551  0.00  0.00    +0.000 A 
ATOM     14  N   UNL     1       3.816   7.314  17.646  0.00  0.00    +0.000 NA
ATOM     15  C   UNL     1       4.397   6.343  16.892  0.00  0.00    +0.000 A 
ATOM     16  C   UNL     1       5.239   6.480  15.782  0.00  0.00    +0.000 A 
ATOM     17  C   UNL     1       5.694   5.324  15.148  0.00  0.00    +0.000 A 
ATOM     18  C   UNL     1       5.320   4.061  15.621  0.00  0.00    +0.000 A 
ATOM     19  C   UNL     1       4.487   3.907  16.740  0.00  0.00    +0.000 A 
ATOM     20  C   UNL     1       4.041   5.082  17.350  0.00  0.00    +0.000 A 
ATOM     21  N   UNL     1       3.221   5.334  18.426  0.00  0.00    +0.000 N 
ATOM     22  H   UNL     1       2.776   4.638  19.003  0.00  0.00    +0.000 HD
ENDBRANCH  11  13
ENDBRANCH   5   7
BRANCH   3  23
ATOM     23  C   UNL     1       1.974  14.076  18.108  0.00  0.00    +0.000 C 
BRANCH  23  24
ATOM     24  N   UNL     1       2.163  15.141  19.118  0.00  0.00    +0.000 NA
ATOM     25  C   UNL     1       3.133  14.789  20.175  0.00  0.00    +0.000 C 
ATOM     26  C   UNL     1       4.616  14.723  19.731  0.00  0.00    +0.000 C 
ATOM     27  N   UNL     1       5.120  15.820  18.876  0.00  0.00    +0.000 NA
ATOM     28  C   UNL     1       4.078  16.275  17.918  0.00  0.00    +0.000 C 
ATOM     29  C   UNL     1       2.642  16.383  18.485  0.00  0.00    +0.000 C 
BRANCH  27  30
ATOM     30  C   UNL     1       5.626  16.977  19.632  0.00  0.00    +0.000 C 
BRANCH  30  31
ATOM     31  C   UNL     1       7.094  17.425  19.363  0.00  0.00    +0.000 C 
BRANCH  31  32
ATOM     32  N   UNL     1       8.010  16.267  19.428  0.00  0.00    +0.000 NA
ATOM     33  C   UNL     1       9.157  16.441  20.346  0.00  0.00    +0.000 C 
ATOM     34  C   UNL     1      10.272  17.334  19.788  0.00  0.00    +0.000 C 
ATOM     35  O   UNL     1      10.776  16.796  18.561  0.00  0.00    +0.000 OA
ATOM     36  C   UNL     1       9.728  16.694  17.591  0.00  0.00    +0.000 C 
ATOM     37  C   UNL     1       8.533  15.866  18.104  0.00  0.00    +0.000 C 
ENDBRANCH  31  32
ENDBRANCH  30  31
ENDBRANCH  27  30
ENDBRANCH  23  24
ENDBRANCH   3  23
TORSDOF 7
ENDMDL
MODEL 6
REMARK VINA RESULT:      -7.6      5.503      6.945
REMARK  Name = 
REMARK  7 active torsions:
REMARK  status: ('A' for Active; 'I' for Inactive)
REMARK    1  A    between atoms: C_3  and  C_4
REMARK    2  A    between atoms: C_4  and  N_5
REMARK    3  A    between atoms: N_8  and  C_9
REMARK    4  A    between atoms: C_9  and  C_10
REMARK    5  A    between atoms: C_10  and  N_11
REMARK    6  A    between atoms: C_20  and  C_21
REMARK    7  A    between atoms: C_25  and  C_26
REMARK                            x       y       z     vdW  Elec       q    Type
REMARK                         _______ _______ _______ _____ _____    ______ ____
ROOT
ATOM      1  C   UNL     1       1.561   9.576  17.815  0.00  0.00    +0.000 A 
ATOM      2  C   UNL     1       0.813   9.725  18.985  0.00  0.00    +0.000 A 
ATOM      3  C   UNL     1       0.950   8.810  20.035  0.00  0.00    +0.000 A 
ATOM      4  C   UNL     1       1.807   7.716  19.847  0.00  0.00    +0.000 A 
ATOM      5  C   UNL     1       2.596   7.555  18.690  0.00  0.00    +0.000 A 
ATOM      6  C   UNL     1       2.456   8.511  17.676  0.00  0.00    +0.000 A 
ENDROOT
BRANCH   5   7
ATOM      7  C   UNL     1       3.528   6.412  18.593  0.00  0.00    +0.000 A 
ATOM      8  C   UNL     1       3.745   5.505  19.636  0.00  0.00    +0.000 A 
ATOM      9  C   UNL     1       4.561   4.379  19.451  0.00  0.00    +0.000 A 
ATOM     10  C   UNL     1       5.176   4.133  18.216  0.00  0.00    +0.000 A 
ATOM     11  C   UNL     1       4.997   5.030  17.162  0.00  0.00    +0.000 A 
ATOM     12  C   UNL     1       4.192   6.159  17.383  0.00  0.00    +0.000 A 
BRANCH  11  13
ATOM     13  C   UNL     1       5.544   4.872  15.810  0.00  0.00    +0.000 A 
ATOM     14  N   UNL     1       5.079   3.992  14.940  0.00  0.00    +0.000 NA
ATOM     15  C   UNL     1       5.891   4.053  13.850  0.00  0.00    +0.000 A 
ATOM     16  C   UNL     1       5.843   3.293  12.676  0.00  0.00    +0.000 A 
ATOM     17  C   UNL     1       6.813   3.520  11.699  0.00  0.00    +0.000 A 
ATOM     18  C   UNL     1       7.800   4.494  11.891  0.00  0.00    +0.000 A 
ATOM     19  C   UNL     1       7.851   5.274  13.057  0.00  0.00    +0.000 A 
ATOM     20  C   UNL     1       6.874   5.018  14.021  0.00  0.00    +0.000 A 
ATOM     21  N   UNL     1       6.614   5.546  15.265  0.00  0.00    +0.000 N 
ATOM     22  H   UNL     1       7.140   6.280  15.715  0.00  0.00    +0.000 HD
ENDBRANCH  11  13
ENDBRANCH   5   7
BRANCH   3  23
ATOM     23  C   UNL     1       0.151   8.992  21.312  0.00  0.00    +0.000 C 
BRANCH  23  24
ATOM     24  N   UNL     1       0.677   9.995  22.265  0.00  0.00    +0.000 NA
ATOM     25  C   UNL     1       0.859  11.336  21.672  0.00  0.00    +0.000 C 
ATOM     26  C   UNL     1      -0.445  12.103  21.333  0.00  0.00    +0.000 C 
ATOM     27  N   UNL     1      -1.520  12.100  22.349  0.00  0.00    +0.000 NA
ATOM     28  C   UNL     1      -1.589  10.792  23.051  0.00  0.00    +0.000 C 
ATOM     29  C   UNL     1      -0.230  10.149  23.416  0.00  0.00    +0.000 C 
BRANCH  27  30
ATOM     30  C   UNL     1      -1.401  13.182  23.341  0.00  0.00    +0.000 C 
BRANCH  30  31
ATOM     31  C   UNL     1      -0.657  14.478  22.905  0.00  0.00    +0.000 C 
BRANCH  31  32
ATOM     32  N   UNL     1      -1.549  15.652  23.019  0.00  0.00    +0.000 NA
ATOM     33  C   UNL     1      -2.925  15.428  22.527  0.00  0.00    +0.000 C 
ATOM     34  C   UNL     1      -3.051  15.440  20.998  0.00  0.00    +0.000 C 
ATOM     35  O   UNL     1      -2.600  16.691  20.470  0.00  0.00    +0.000 OA
ATOM     36  C   UNL     1      -1.234  16.923  20.830  0.00  0.00    +0.000 C 
ATOM     37  C   UNL     1      -1.009  16.857  22.354  0.00  0.00    +0.000 C 
ENDBRANCH  31  32
ENDBRANCH  30  31
ENDBRANCH  27  30
ENDBRANCH  23  24
ENDBRANCH   3  23
TORSDOF 7
ENDMDL
MODEL 7
REMARK VINA RESULT:      -7.6      3.048      7.345
REMARK  Name = 
REMARK  7 active torsions:
REMARK  status: ('A' for Active; 'I' for Inactive)
REMARK    1  A    between atoms: C_3  and  C_4
REMARK    2  A    between atoms: C_4  and  N_5
REMARK    3  A    between atoms: N_8  and  C_9
REMARK    4  A    between atoms: C_9  and  C_10
REMARK    5  A    between atoms: C_10  and  N_11
REMARK    6  A    between atoms: C_20  and  C_21
REMARK    7  A    between atoms: C_25  and  C_26
REMARK                            x       y       z     vdW  Elec       q    Type
REMARK                         _______ _______ _______ _____ _____    ______ ____
ROOT
ATOM      1  C   UNL     1       2.340   3.389  20.308  0.00  0.00    +0.000 A 
ATOM      2  C   UNL     1       1.571   4.493  20.684  0.00  0.00    +0.000 A 
ATOM      3  C   UNL     1       1.948   5.783  20.296  0.00  0.00    +0.000 A 
ATOM      4  C   UNL     1       3.144   5.933  19.582  0.00  0.00    +0.000 A 
ATOM      5  C   UNL     1       3.927   4.837  19.163  0.00  0.00    +0.000 A 
ATOM      6  C   UNL     1       3.497   3.558  19.541  0.00  0.00    +0.000 A 
ENDROOT
BRANCH   5   7
ATOM      7  C   UNL     1       5.140   5.069  18.353  0.00  0.00    +0.000 A 
ATOM      8  C   UNL     1       5.557   4.212  17.328  0.00  0.00    +0.000 A 
ATOM      9  C   UNL     1       6.658   4.538  16.523  0.00  0.00    +0.000 A 
ATOM     10  C   UNL     1       7.365   5.732  16.721  0.00  0.00    +0.000 A 
ATOM     11  C   UNL     1       6.986   6.598  17.748  0.00  0.00    +0.000 A 
ATOM     12  C   UNL     1       5.894   6.235  18.551  0.00  0.00    +0.000 A 
BRANCH  11  13
ATOM     13  C   UNL     1       7.607   7.896  18.036  0.00  0.00    +0.000 A 
ATOM     14  N   UNL     1       7.295   9.007  17.390  0.00  0.00    +0.000 NA
ATOM     15  C   UNL     1       8.140   9.972  17.843  0.00  0.00    +0.000 A 
ATOM     16  C   UNL     1       8.240  11.309  17.442  0.00  0.00    +0.000 A 
ATOM     17  C   UNL     1       9.215  12.109  18.039  0.00  0.00    +0.000 A 
ATOM     18  C   UNL     1      10.061  11.583  19.022  0.00  0.00    +0.000 A 
ATOM     19  C   UNL     1       9.963  10.248  19.444  0.00  0.00    +0.000 A 
ATOM     20  C   UNL     1       8.984   9.469  18.823  0.00  0.00    +0.000 A 
ATOM     21  N   UNL     1       8.606   8.152  18.949  0.00  0.00    +0.000 N 
ATOM     22  H   UNL     1       9.015   7.480  19.580  0.00  0.00    +0.000 HD
ENDBRANCH  11  13
ENDBRANCH   5   7
BRANCH   3  23
ATOM     23  C   UNL     1       1.094   6.975  20.689  0.00  0.00    +0.000 C 
BRANCH  23  24
ATOM     24  N   UNL     1       1.797   8.275  20.765  0.00  0.00    +0.000 NA
ATOM     25  C   UNL     1       1.471   9.190  19.653  0.00  0.00    +0.000 C 
ATOM     26  C   UNL     1       0.038   9.781  19.667  0.00  0.00    +0.000 C 
ATOM     27  N   UNL     1      -0.476  10.290  20.957  0.00  0.00    +0.000 NA
ATOM     28  C   UNL     1      -0.009   9.448  22.089  0.00  0.00    +0.000 C 
ATOM     29  C   UNL     1       1.463   8.977  22.018  0.00  0.00    +0.000 C 
BRANCH  27  30
ATOM     30  C   UNL     1      -0.130  11.697  21.220  0.00  0.00    +0.000 C 
BRANCH  30  31
ATOM     31  C   UNL     1       0.295  12.571  20.002  0.00  0.00    +0.000 C 
BRANCH  31  32
ATOM     32  N   UNL     1       1.768  12.627  19.893  0.00  0.00    +0.000 NA
ATOM     33  C   UNL     1       2.423  13.530  20.865  0.00  0.00    +0.000 C 
ATOM     34  C   UNL     1       2.307  15.018  20.511  0.00  0.00    +0.000 C 
ATOM     35  O   UNL     1       2.884  15.272  19.227  0.00  0.00    +0.000 OA
ATOM     36  C   UNL     1       2.224  14.497  18.219  0.00  0.00    +0.000 C 
ATOM     37  C   UNL     1       2.235  12.989  18.537  0.00  0.00    +0.000 C 
ENDBRANCH  31  32
ENDBRANCH  30  31
ENDBRANCH  27  30
ENDBRANCH  23  24
ENDBRANCH   3  23
TORSDOF 7
ENDMDL
MODEL 8
REMARK VINA RESULT:      -7.5      5.981      8.385
REMARK  Name = 
REMARK  7 active torsions:
REMARK  status: ('A' for Active; 'I' for Inactive)
REMARK    1  A    between atoms: C_3  and  C_4
REMARK    2  A    between atoms: C_4  and  N_5
REMARK    3  A    between atoms: N_8  and  C_9
REMARK    4  A    between atoms: C_9  and  C_10
REMARK    5  A    between atoms: C_10  and  N_11
REMARK    6  A    between atoms: C_20  and  C_21
REMARK    7  A    between atoms: C_25  and  C_26
REMARK                            x       y       z     vdW  Elec       q    Type
REMARK                         _______ _______ _______ _____ _____    ______ ____
ROOT
ATOM      1  C   UNL     1       2.408   3.390  20.669  0.00  0.00    +0.000 A 
ATOM      2  C   UNL     1       1.586   4.478  20.972  0.00  0.00    +0.000 A 
ATOM      3  C   UNL     1       1.897   5.755  20.492  0.00  0.00    +0.000 A 
ATOM      4  C   UNL     1       3.081   5.913  19.759  0.00  0.00    +0.000 A 
ATOM      5  C   UNL     1       3.915   4.830  19.412  0.00  0.00    +0.000 A 
ATOM      6  C   UNL     1       3.551   3.561  19.882  0.00  0.00    +0.000 A 
ENDROOT
BRANCH   5   7
ATOM      7  C   UNL     1       5.111   5.064  18.577  0.00  0.00    +0.000 A 
ATOM      8  C   UNL     1       6.325   5.537  19.088  0.00  0.00    +0.000 A 
ATOM      9  C   UNL     1       7.458   5.641  18.268  0.00  0.00    +0.000 A 
ATOM     10  C   UNL     1       7.403   5.269  16.917  0.00  0.00    +0.000 A 
ATOM     11  C   UNL     1       6.201   4.814  16.373  0.00  0.00    +0.000 A 
ATOM     12  C   UNL     1       5.079   4.741  17.213  0.00  0.00    +0.000 A 
BRANCH  11  13
ATOM     13  C   UNL     1       6.016   4.352  14.992  0.00  0.00    +0.000 A 
ATOM     14  N   UNL     1       4.852   4.388  14.367  0.00  0.00    +0.000 NA
ATOM     15  C   UNL     1       5.037   3.784  13.162  0.00  0.00    +0.000 A 
ATOM     16  C   UNL     1       4.101   3.535  12.152  0.00  0.00    +0.000 A 
ATOM     17  C   UNL     1       4.526   2.868  11.003  0.00  0.00    +0.000 A 
ATOM     18  C   UNL     1       5.861   2.469  10.867  0.00  0.00    +0.000 A 
ATOM     19  C   UNL     1       6.814   2.724  11.865  0.00  0.00    +0.000 A 
ATOM     20  C   UNL     1       6.358   3.386  13.007  0.00  0.00    +0.000 A 
ATOM     21  N   UNL     1       6.969   3.785  14.174  0.00  0.00    +0.000 N 
ATOM     22  H   UNL     1       7.941   3.654  14.404  0.00  0.00    +0.000 HD
ENDBRANCH  11  13
ENDBRANCH   5   7
BRANCH   3  23
ATOM     23  C   UNL     1       0.986   6.928  20.807  0.00  0.00    +0.000 C 
BRANCH  23  24
ATOM     24  N   UNL     1       1.648   8.246  20.920  0.00  0.00    +0.000 NA
ATOM     25  C   UNL     1       1.341   9.161  19.802  0.00  0.00    +0.000 C 
ATOM     26  C   UNL     1      -0.108   9.711  19.763  0.00  0.00    +0.000 C 
ATOM     27  N   UNL     1      -0.686  10.196  21.035  0.00  0.00    +0.000 NA
ATOM     28  C   UNL     1      -0.241   9.358  22.179  0.00  0.00    +0.000 C 
ATOM     29  C   UNL     1       1.245   8.929  22.163  0.00  0.00    +0.000 C 
BRANCH  27  30
ATOM     30  C   UNL     1      -0.391  11.609  21.321  0.00  0.00    +0.000 C 
BRANCH  30  31
ATOM     31  C   UNL     1      -0.899  12.190  22.674  0.00  0.00    +0.000 C 
BRANCH  31  32
ATOM     32  N   UNL     1      -1.613  13.466  22.456  0.00  0.00    +0.000 NA
ATOM     33  C   UNL     1      -2.226  14.043  23.672  0.00  0.00    +0.000 C 
ATOM     34  C   UNL     1      -3.526  13.352  24.103  0.00  0.00    +0.000 C 
ATOM     35  O   UNL     1      -4.498  13.417  23.055  0.00  0.00    +0.000 OA
ATOM     36  C   UNL     1      -4.000  12.784  21.871  0.00  0.00    +0.000 C 
ATOM     37  C   UNL     1      -2.654  13.377  21.410  0.00  0.00    +0.000 C 
ENDBRANCH  31  32
ENDBRANCH  30  31
ENDBRANCH  27  30
ENDBRANCH  23  24
ENDBRANCH   3  23
TORSDOF 7
ENDMDL
MODEL 9
REMARK VINA RESULT:      -7.5      1.463      2.352
REMARK  Name = 
REMARK  7 active torsions:
REMARK  status: ('A' for Active; 'I' for Inactive)
REMARK    1  A    between atoms: C_3  and  C_4
REMARK    2  A    between atoms: C_4  and  N_5
REMARK    3  A    between atoms: N_8  and  C_9
REMARK    4  A    between atoms: C_9  and  C_10
REMARK    5  A    between atoms: C_10  and  N_11
REMARK    6  A    between atoms: C_20  and  C_21
REMARK    7  A    between atoms: C_25  and  C_26
REMARK                            x       y       z     vdW  Elec       q    Type
REMARK                         _______ _______ _______ _____ _____    ______ ____
ROOT
ATOM      1  C   UNL     1      -0.796  13.303  18.210  0.00  0.00    +0.000 A 
ATOM      2  C   UNL     1       0.089  14.346  18.492  0.00  0.00    +0.000 A 
ATOM      3  C   UNL     1       1.028  14.219  19.522  0.00  0.00    +0.000 A 
ATOM      4  C   UNL     1       1.006  13.048  20.292  0.00  0.00    +0.000 A 
ATOM      5  C   UNL     1       0.145  11.966  20.013  0.00  0.00    +0.000 A 
ATOM      6  C   UNL     1      -0.756  12.118  18.952  0.00  0.00    +0.000 A 
ENDROOT
BRANCH   5   7
ATOM      7  C   UNL     1       0.228  10.736  20.826  0.00  0.00    +0.000 A 
ATOM      8  C   UNL     1      -0.483  10.552  22.018  0.00  0.00    +0.000 A 
ATOM      9  C   UNL     1      -0.447   9.323  22.693  0.00  0.00    +0.000 A 
ATOM     10  C   UNL     1       0.298   8.248  22.189  0.00  0.00    +0.000 A 
ATOM     11  C   UNL     1       1.035   8.406  21.015  0.00  0.00    +0.000 A 
ATOM     12  C   UNL     1       0.997   9.654  20.372  0.00  0.00    +0.000 A 
BRANCH  11  13
ATOM     13  C   UNL     1       1.818   7.355  20.356  0.00  0.00    +0.000 A 
ATOM     14  N   UNL     1       2.363   7.500  19.160  0.00  0.00    +0.000 NA
ATOM     15  C   UNL     1       2.909   6.298  18.831  0.00  0.00    +0.000 A 
ATOM     16  C   UNL     1       3.563   5.925  17.652  0.00  0.00    +0.000 A 
ATOM     17  C   UNL     1       4.018   4.612  17.533  0.00  0.00    +0.000 A 
ATOM     18  C   UNL     1       3.829   3.698  18.577  0.00  0.00    +0.000 A 
ATOM     19  C   UNL     1       3.187   4.061  19.770  0.00  0.00    +0.000 A 
ATOM     20  C   UNL     1       2.735   5.380  19.858  0.00  0.00    +0.000 A 
ATOM     21  N   UNL     1       2.063   6.085  20.830  0.00  0.00    +0.000 N 
ATOM     22  H   UNL     1       1.771   5.723  21.724  0.00  0.00    +0.000 HD
ENDBRANCH  11  13
ENDBRANCH   5   7
BRANCH   3  23
ATOM     23  C   UNL     1       2.001  15.348  19.807  0.00  0.00    +0.000 C 
BRANCH  23  24
ATOM     24  N   UNL     1       2.707  15.904  18.631  0.00  0.00    +0.000 NA
ATOM     25  C   UNL     1       3.613  17.023  18.959  0.00  0.00    +0.000 C 
ATOM     26  C   UNL     1       4.892  16.643  19.749  0.00  0.00    +0.000 C 
ATOM     27  N   UNL     1       5.642  15.451  19.296  0.00  0.00    +0.000 NA
ATOM     28  C   UNL     1       4.720  14.387  18.819  0.00  0.00    +0.000 C 
ATOM     29  C   UNL     1       3.519  14.866  17.970  0.00  0.00    +0.000 C 
BRANCH  27  30
ATOM     30  C   UNL     1       6.639  15.739  18.251  0.00  0.00    +0.000 C 
BRANCH  30  31
ATOM     31  C   UNL     1       7.738  14.666  17.992  0.00  0.00    +0.000 C 
BRANCH  31  32
ATOM     32  N   UNL     1       8.972  14.997  18.737  0.00  0.00    +0.000 NA
ATOM     33  C   UNL     1       9.512  16.346  18.462  0.00  0.00    +0.000 C 
ATOM     34  C   UNL     1      10.250  16.462  17.122  0.00  0.00    +0.000 C 
ATOM     35  O   UNL     1      11.342  15.539  17.072  0.00  0.00    +0.000 OA
ATOM     36  C   UNL     1      10.871  14.197  17.234  0.00  0.00    +0.000 C 
ATOM     37  C   UNL     1      10.056  14.013  18.529  0.00  0.00    +0.000 C 
ENDBRANCH  31  32
ENDBRANCH  30  31
ENDBRANCH  27  30
ENDBRANCH  23  24
ENDBRANCH   3  23
TORSDOF 7
ENDMDL
