MODEL 1
REMARK VINA RESULT:      -8.2      0.000      0.000
REMARK  Name = 
REMARK  9 active torsions:
REMARK  status: ('A' for Active; 'I' for Inactive)
REMARK    1  A    between atoms: C_1  and  C_2
REMARK    2  A    between atoms: C_8  and  S_9
REMARK    3  A    between atoms: S_9  and  C_10
REMARK    4  A    between atoms: C_10  and  C_11
REMARK    5  A    between atoms: N_13  and  N_14
REMARK    6  A    between atoms: C_15  and  C_17
REMARK    7  A    between atoms: C_17  and  O_18
REMARK    8  A    between atoms: O_18  and  C_19
REMARK    9  A    between atoms: C_30  and  C_31
REMARK                            x       y       z     vdW  Elec       q    Type
REMARK                         _______ _______ _______ _____ _____    ______ ____
ROOT
ATOM      1  C   UNL     1       2.308   3.466  21.111  0.00  0.00    +0.000 C 
ATOM      2  O   UNL     1       2.585   2.928  22.183  0.00  0.00    +0.000 OA
ATOM      3  N   UNL     1       1.438   2.840  20.241  0.00  0.00    +0.000 N 
ATOM      4  H   UNL     1       0.985   2.001  20.594  0.00  0.00    +0.000 HD
ENDROOT
BRANCH   3   5
ATOM      5  N   UNL     1       0.980   3.437  19.070  0.00  0.00    +0.000 N 
ATOM      6  C   UNL     1       1.657   3.428  17.876  0.00  0.00    +0.000 C 
ATOM      7  O   UNL     1       1.236   4.105  16.935  0.00  0.00    +0.000 OA
ATOM      8  H   UNL     1       0.142   4.014  19.107  0.00  0.00    +0.000 HD
BRANCH   6   9
ATOM      9  C   UNL     1       2.863   2.509  17.737  0.00  0.00    +0.000 C 
BRANCH   9  10
ATOM     10  O   UNL     1       4.068   3.098  18.207  0.00  0.00    +0.000 OA
BRANCH  10  11
ATOM     11  C   UNL     1       4.777   3.817  17.265  0.00  0.00    +0.000 A 
ATOM     12  C   UNL     1       4.510   3.745  15.890  0.00  0.00    +0.000 A 
ATOM     13  C   UNL     1       5.272   4.462  14.976  0.00  0.00    +0.000 A 
ATOM     14  C   UNL     1       6.289   5.294  15.425  0.00  0.00    +0.000 A 
ATOM     15  C   UNL     1       6.542   5.439  16.796  0.00  0.00    +0.000 A 
ATOM     16  C   UNL     1       7.533   6.335  17.225  0.00  0.00    +0.000 A 
ATOM     17  C   UNL     1       7.803   6.500  18.581  0.00  0.00    +0.000 A 
ATOM     18  C   UNL     1       7.109   5.747  19.522  0.00  0.00    +0.000 A 
ATOM     19  C   UNL     1       6.121   4.847  19.108  0.00  0.00    +0.000 A 
ATOM     20  C   UNL     1       5.795   4.682  17.737  0.00  0.00    +0.000 A 
ENDBRANCH  10  11
ENDBRANCH   9  10
ENDBRANCH   6   9
ENDBRANCH   3   5
BRANCH   1  21
ATOM     21  C   UNL     1       2.885   4.817  20.706  0.00  0.00    +0.000 C 
BRANCH  21  22
ATOM     22  S   UNL     1       1.592   6.075  20.994  0.00  0.00    +0.000 S 
BRANCH  22  30
ATOM     23  C   UNL     1      -0.459  11.673  20.967  0.00  0.00    +0.000 C 
ATOM     24  C   UNL     1       0.310  10.593  20.274  0.00  0.00    +0.000 A 
ATOM     25  S   UNL     1       1.156  10.944  18.840  0.00  0.00    +0.000 S 
ATOM     26  C   UNL     1       1.728   9.352  18.706  0.00  0.00    +0.000 A 
ATOM     27  N   UNL     1       2.514   9.022  17.667  0.00  0.00    +0.000 NA
ATOM     28  C   UNL     1       2.910   7.753  17.702  0.00  0.00    +0.000 A 
ATOM     29  N   UNL     1       2.624   6.839  18.638  0.00  0.00    +0.000 NA
ATOM     30  C   UNL     1       1.848   7.217  19.675  0.00  0.00    +0.000 A 
ATOM     31  C   UNL     1       1.319   8.525  19.747  0.00  0.00    +0.000 A 
ATOM     32  C   UNL     1       0.435   9.260  20.654  0.00  0.00    +0.000 A 
ATOM     33  C   UNL     1      -0.288   8.739  21.861  0.00  0.00    +0.000 C 
ENDBRANCH  22  30
ENDBRANCH  21  22
ENDBRANCH   1  21
TORSDOF 7
ENDMDL
MODEL 2
REMARK VINA RESULT:      -8.1      2.783      4.581
REMARK  Name = 
REMARK  9 active torsions:
REMARK  status: ('A' for Active; 'I' for Inactive)
REMARK    1  A    between atoms: C_1  and  C_2
REMARK    2  A    between atoms: C_8  and  S_9
REMARK    3  A    between atoms: S_9  and  C_10
REMARK    4  A    between atoms: C_10  and  C_11
REMARK    5  A    between atoms: N_13  and  N_14
REMARK    6  A    between atoms: C_15  and  C_17
REMARK    7  A    between atoms: C_17  and  O_18
REMARK    8  A    between atoms: O_18  and  C_19
REMARK    9  A    between atoms: C_30  and  C_31
REMARK                            x       y       z     vdW  Elec       q    Type
REMARK                         _______ _______ _______ _____ _____    ______ ____
ROOT
ATOM      1  C   UNL     1       1.936   8.918  18.394  0.00  0.00    +0.000 C 
ATOM      2  O   UNL     1       2.125   9.588  17.378  0.00  0.00    +0.000 OA
ATOM      3  N   UNL     1       2.620   7.731  18.562  0.00  0.00    +0.000 N 
ATOM      4  H   UNL     1       3.336   7.529  17.869  0.00  0.00    +0.000 HD
ENDROOT
BRANCH   3   5
ATOM      5  N   UNL     1       2.555   6.980  19.733  0.00  0.00    +0.000 N 
ATOM      6  C   UNL     1       2.457   5.613  19.775  0.00  0.00    +0.000 C 
ATOM      7  O   UNL     1       2.264   5.051  20.856  0.00  0.00    +0.000 OA
ATOM      8  H   UNL     1       2.466   7.465  20.623  0.00  0.00    +0.000 HD
BRANCH   6   9
ATOM      9  C   UNL     1       2.677   4.832  18.487  0.00  0.00    +0.000 C 
BRANCH   9  10
ATOM     10  O   UNL     1       3.782   3.943  18.556  0.00  0.00    +0.000 OA
BRANCH  10  11
ATOM     11  C   UNL     1       5.019   4.525  18.363  0.00  0.00    +0.000 A 
ATOM     12  C   UNL     1       5.782   5.060  19.412  0.00  0.00    +0.000 A 
ATOM     13  C   UNL     1       7.008   5.666  19.167  0.00  0.00    +0.000 A 
ATOM     14  C   UNL     1       7.510   5.713  17.872  0.00  0.00    +0.000 A 
ATOM     15  C   UNL     1       6.805   5.132  16.810  0.00  0.00    +0.000 A 
ATOM     16  C   UNL     1       7.365   5.137  15.523  0.00  0.00    +0.000 A 
ATOM     17  C   UNL     1       6.685   4.566  14.450  0.00  0.00    +0.000 A 
ATOM     18  C   UNL     1       5.425   4.012  14.645  0.00  0.00    +0.000 A 
ATOM     19  C   UNL     1       4.853   4.003  15.922  0.00  0.00    +0.000 A 
ATOM     20  C   UNL     1       5.533   4.544  17.043  0.00  0.00    +0.000 A 
ENDBRANCH  10  11
ENDBRANCH   9  10
ENDBRANCH   6   9
ENDBRANCH   3   5
BRANCH   1  21
ATOM     21  C   UNL     1       0.974   9.358  19.491  0.00  0.00    +0.000 C 
BRANCH  21  22
ATOM     22  S   UNL     1       0.414  11.048  19.084  0.00  0.00    +0.000 S 
BRANCH  22  30
ATOM     23  C   UNL     1      -4.518  13.702  21.130  0.00  0.00    +0.000 C 
ATOM     24  C   UNL     1      -3.887  12.765  20.148  0.00  0.00    +0.000 A 
ATOM     25  S   UNL     1      -4.817  12.120  18.876  0.00  0.00    +0.000 S 
ATOM     26  C   UNL     1      -3.494  11.255  18.257  0.00  0.00    +0.000 A 
ATOM     27  N   UNL     1      -3.661  10.498  17.160  0.00  0.00    +0.000 NA
ATOM     28  C   UNL     1      -2.539   9.899  16.770  0.00  0.00    +0.000 A 
ATOM     29  N   UNL     1      -1.329   9.997  17.335  0.00  0.00    +0.000 NA
ATOM     30  C   UNL     1      -1.200  10.783  18.423  0.00  0.00    +0.000 A 
ATOM     31  C   UNL     1      -2.318  11.448  18.974  0.00  0.00    +0.000 A 
ATOM     32  C   UNL     1      -2.571  12.313  20.129  0.00  0.00    +0.000 A 
ATOM     33  C   UNL     1      -1.608  12.721  21.205  0.00  0.00    +0.000 C 
ENDBRANCH  22  30
ENDBRANCH  21  22
ENDBRANCH   1  21
TORSDOF 7
ENDMDL
MODEL 3
REMARK VINA RESULT:      -8.1      6.186      8.325
REMARK  Name = 
REMARK  9 active torsions:
REMARK  status: ('A' for Active; 'I' for Inactive)
REMARK    1  A    between atoms: C_1  and  C_2
REMARK    2  A    between atoms: C_8  and  S_9
REMARK    3  A    between atoms: S_9  and  C_10
REMARK    4  A    between atoms: C_10  and  C_11
REMARK    5  A    between atoms: N_13  and  N_14
REMARK    6  A    between atoms: C_15  and  C_17
REMARK    7  A    between atoms: C_17  and  O_18
REMARK    8  A    between atoms: O_18  and  C_19
REMARK    9  A    between atoms: C_30  and  C_31
REMARK                            x       y       z     vdW  Elec       q    Type
REMARK                         _______ _______ _______ _____ _____    ______ ____
ROOT
ATOM      1  C   UNL     1       8.269   9.558  18.087  0.00  0.00    +0.000 C 
ATOM      2  O   UNL     1       7.928  10.565  17.468  0.00  0.00    +0.000 OA
ATOM      3  N   UNL     1       7.613   8.365  17.857  0.00  0.00    +0.000 N 
ATOM      4  H   UNL     1       6.943   8.367  17.092  0.00  0.00    +0.000 HD
ENDROOT
BRANCH   3   5
ATOM      5  N   UNL     1       8.018   7.158  18.422  0.00  0.00    +0.000 N 
ATOM      6  C   UNL     1       7.646   5.920  17.962  0.00  0.00    +0.000 C 
ATOM      7  O   UNL     1       7.940   4.917  18.615  0.00  0.00    +0.000 OA
ATOM      8  H   UNL     1       8.536   7.175  19.298  0.00  0.00    +0.000 HD
BRANCH   6   9
ATOM      9  C   UNL     1       6.951   5.831  16.611  0.00  0.00    +0.000 C 
BRANCH   9  10
ATOM     10  O   UNL     1       5.857   4.925  16.606  0.00  0.00    +0.000 OA
BRANCH  10  11
ATOM     11  C   UNL     1       4.683   5.417  17.140  0.00  0.00    +0.000 A 
ATOM     12  C   UNL     1       4.414   6.790  17.257  0.00  0.00    +0.000 A 
ATOM     13  C   UNL     1       3.232   7.240  17.832  0.00  0.00    +0.000 A 
ATOM     14  C   UNL     1       2.280   6.325  18.263  0.00  0.00    +0.000 A 
ATOM     15  C   UNL     1       2.487   4.948  18.103  0.00  0.00    +0.000 A 
ATOM     16  C   UNL     1       1.482   4.048  18.490  0.00  0.00    +0.000 A 
ATOM     17  C   UNL     1       1.662   2.675  18.340  0.00  0.00    +0.000 A 
ATOM     18  C   UNL     1       2.860   2.185  17.834  0.00  0.00    +0.000 A 
ATOM     19  C   UNL     1       3.872   3.070  17.448  0.00  0.00    +0.000 A 
ATOM     20  C   UNL     1       3.708   4.475  17.553  0.00  0.00    +0.000 A 
ENDBRANCH  10  11
ENDBRANCH   9  10
ENDBRANCH   6   9
ENDBRANCH   3   5
BRANCH   1  21
ATOM     21  C   UNL     1       9.405   9.572  19.102  0.00  0.00    +0.000 C 
BRANCH  21  22
ATOM     22  S   UNL     1       9.248  11.106  20.081  0.00  0.00    +0.000 S 
BRANCH  22  30
ATOM     23  C   UNL     1      10.800  16.452  22.217  0.00  0.00    +0.000 C 
ATOM     24  C   UNL     1      10.940  15.416  21.146  0.00  0.00    +0.000 A 
ATOM     25  S   UNL     1      12.105  15.618  19.922  0.00  0.00    +0.000 S 
ATOM     26  C   UNL     1      11.683  14.149  19.183  0.00  0.00    +0.000 A 
ATOM     27  N   UNL     1      12.333  13.762  18.073  0.00  0.00    +0.000 NA
ATOM     28  C   UNL     1      11.920  12.583  17.617  0.00  0.00    +0.000 A 
ATOM     29  N   UNL     1      10.983  11.790  18.152  0.00  0.00    +0.000 NA
ATOM     30  C   UNL     1      10.369  12.206  19.278  0.00  0.00    +0.000 A 
ATOM     31  C   UNL     1      10.676  13.460  19.851  0.00  0.00    +0.000 A 
ATOM     32  C   UNL     1      10.205  14.245  20.995  0.00  0.00    +0.000 A 
ATOM     33  C   UNL     1       9.087  13.917  21.941  0.00  0.00    +0.000 C 
ENDBRANCH  22  30
ENDBRANCH  21  22
ENDBRANCH   1  21
TORSDOF 7
ENDMDL
MODEL 4
REMARK VINA RESULT:      -8.0      5.732      8.288
REMARK  Name = 
REMARK  9 active torsions:
REMARK  status: ('A' for Active; 'I' for Inactive)
REMARK    1  A    between atoms: C_1  and  C_2
REMARK    2  A    between atoms: C_8  and  S_9
REMARK    3  A    between atoms: S_9  and  C_10
REMARK    4  A    between atoms: C_10  and  C_11
REMARK    5  A    between atoms: N_13  and  N_14
REMARK    6  A    between atoms: C_15  and  C_17
REMARK    7  A    between atoms: C_17  and  O_18
REMARK    8  A    between atoms: O_18  and  C_19
REMARK    9  A    between atoms: C_30  and  C_31
REMARK                            x       y       z     vdW  Elec       q    Type
REMARK                         _______ _______ _______ _____ _____    ______ ____
ROOT
ATOM      1  C   UNL     1       7.937   6.712  18.454  0.00  0.00    +0.000 C 
ATOM      2  O   UNL     1       8.175   5.710  19.126  0.00  0.00    +0.000 OA
ATOM      3  N   UNL     1       8.498   7.921  18.813  0.00  0.00    +0.000 N 
ATOM      4  H   UNL     1       9.177   7.888  19.569  0.00  0.00    +0.000 HD
ENDROOT
BRANCH   3   5
ATOM      5  N   UNL     1       8.378   9.071  18.037  0.00  0.00    +0.000 N 
ATOM      6  C   UNL     1       8.865  10.303  18.393  0.00  0.00    +0.000 C 
ATOM      7  O   UNL     1       8.585  11.288  17.706  0.00  0.00    +0.000 OA
ATOM      8  H   UNL     1       7.802   9.041  17.198  0.00  0.00    +0.000 HD
BRANCH   6   9
ATOM      9  C   UNL     1       9.808  10.390  19.585  0.00  0.00    +0.000 C 
BRANCH   9  10
ATOM     10  O   UNL     1       9.150  10.755  20.790  0.00  0.00    +0.000 OA
BRANCH  10  11
ATOM     11  C   UNL     1       9.385  12.045  21.222  0.00  0.00    +0.000 A 
ATOM     12  C   UNL     1      10.169  12.959  20.502  0.00  0.00    +0.000 A 
ATOM     13  C   UNL     1      10.405  14.238  20.992  0.00  0.00    +0.000 A 
ATOM     14  C   UNL     1       9.828  14.638  22.191  0.00  0.00    +0.000 A 
ATOM     15  C   UNL     1       8.987  13.772  22.903  0.00  0.00    +0.000 A 
ATOM     16  C   UNL     1       8.367  14.223  24.078  0.00  0.00    +0.000 A 
ATOM     17  C   UNL     1       7.526  13.384  24.805  0.00  0.00    +0.000 A 
ATOM     18  C   UNL     1       7.321  12.075  24.384  0.00  0.00    +0.000 A 
ATOM     19  C   UNL     1       7.937  11.611  23.215  0.00  0.00    +0.000 A 
ATOM     20  C   UNL     1       8.770  12.450  22.432  0.00  0.00    +0.000 A 
ENDBRANCH  10  11
ENDBRANCH   9  10
ENDBRANCH   6   9
ENDBRANCH   3   5
BRANCH   1  21
ATOM     21  C   UNL     1       7.045   6.670  17.219  0.00  0.00    +0.000 C 
BRANCH  21  22
ATOM     22  S   UNL     1       5.918   5.244  17.404  0.00  0.00    +0.000 S 
BRANCH  22  30
ATOM     23  C   UNL     1       2.310   2.911  21.538  0.00  0.00    +0.000 C 
ATOM     24  C   UNL     1       2.604   4.026  20.584  0.00  0.00    +0.000 A 
ATOM     25  S   UNL     1       1.632   5.422  20.589  0.00  0.00    +0.000 S 
ATOM     26  C   UNL     1       2.544   6.145  19.353  0.00  0.00    +0.000 A 
ATOM     27  N   UNL     1       2.199   7.366  18.911  0.00  0.00    +0.000 NA
ATOM     28  C   UNL     1       3.013   7.821  17.963  0.00  0.00    +0.000 A 
ATOM     29  N   UNL     1       4.092   7.209  17.458  0.00  0.00    +0.000 NA
ATOM     30  C   UNL     1       4.415   5.993  17.944  0.00  0.00    +0.000 A 
ATOM     31  C   UNL     1       3.614   5.367  18.925  0.00  0.00    +0.000 A 
ATOM     32  C   UNL     1       3.616   4.084  19.630  0.00  0.00    +0.000 A 
ATOM     33  C   UNL     1       4.543   2.921  19.429  0.00  0.00    +0.000 C 
ENDBRANCH  22  30
ENDBRANCH  21  22
ENDBRANCH   1  21
TORSDOF 7
ENDMDL
MODEL 5
REMARK VINA RESULT:      -7.9      3.474      8.619
REMARK  Name = 
REMARK  9 active torsions:
REMARK  status: ('A' for Active; 'I' for Inactive)
REMARK    1  A    between atoms: C_1  and  C_2
REMARK    2  A    between atoms: C_8  and  S_9
REMARK    3  A    between atoms: S_9  and  C_10
REMARK    4  A    between atoms: C_10  and  C_11
REMARK    5  A    between atoms: N_13  and  N_14
REMARK    6  A    between atoms: C_15  and  C_17
REMARK    7  A    between atoms: C_17  and  O_18
REMARK    8  A    between atoms: O_18  and  C_19
REMARK    9  A    between atoms: C_30  and  C_31
REMARK                            x       y       z     vdW  Elec       q    Type
REMARK                         _______ _______ _______ _____ _____    ______ ____
ROOT
ATOM      1  C   UNL     1       2.523   6.673  19.277  0.00  0.00    +0.000 C 
ATOM      2  O   UNL     1       2.648   6.463  18.070  0.00  0.00    +0.000 OA
ATOM      3  N   UNL     1       1.900   7.828  19.705  0.00  0.00    +0.000 N 
ATOM      4  H   UNL     1       1.477   8.399  18.978  0.00  0.00    +0.000 HD
ENDROOT
BRANCH   3   5
ATOM      5  N   UNL     1       1.611   8.079  21.044  0.00  0.00    +0.000 N 
ATOM      6  C   UNL     1       1.287   9.312  21.551  0.00  0.00    +0.000 C 
ATOM      7  O   UNL     1       1.187   9.459  22.771  0.00  0.00    +0.000 OA
ATOM      8  H   UNL     1       1.748   7.334  21.724  0.00  0.00    +0.000 HD
BRANCH   6   9
ATOM      9  C   UNL     1       0.980  10.437  20.572  0.00  0.00    +0.000 C 
BRANCH   9  10
ATOM     10  O   UNL     1       0.008  10.080  19.600  0.00  0.00    +0.000 OA
BRANCH  10  11
ATOM     11  C   UNL     1      -1.128  10.864  19.587  0.00  0.00    +0.000 A 
ATOM     12  C   UNL     1      -1.452  11.755  20.622  0.00  0.00    +0.000 A 
ATOM     13  C   UNL     1      -2.623  12.501  20.582  0.00  0.00    +0.000 A 
ATOM     14  C   UNL     1      -3.472  12.399  19.487  0.00  0.00    +0.000 A 
ATOM     15  C   UNL     1      -3.148  11.568  18.406  0.00  0.00    +0.000 A 
ATOM     16  C   UNL     1      -3.990  11.533  17.284  0.00  0.00    +0.000 A 
ATOM     17  C   UNL     1      -3.690  10.717  16.196  0.00  0.00    +0.000 A 
ATOM     18  C   UNL     1      -2.564   9.903  16.230  0.00  0.00    +0.000 A 
ATOM     19  C   UNL     1      -1.717   9.925  17.344  0.00  0.00    +0.000 A 
ATOM     20  C   UNL     1      -1.972  10.772  18.453  0.00  0.00    +0.000 A 
ENDBRANCH  10  11
ENDBRANCH   9  10
ENDBRANCH   6   9
ENDBRANCH   3   5
BRANCH   1  21
ATOM     21  C   UNL     1       3.025   5.691  20.328  0.00  0.00    +0.000 C 
BRANCH  21  22
ATOM     22  S   UNL     1       3.590   4.190  19.454  0.00  0.00    +0.000 S 
BRANCH  22  30
ATOM     23  C   UNL     1       5.469   3.971  13.799  0.00  0.00    +0.000 C 
ATOM     24  C   UNL     1       5.769   4.281  15.232  0.00  0.00    +0.000 A 
ATOM     25  S   UNL     1       7.248   5.013  15.647  0.00  0.00    +0.000 S 
ATOM     26  C   UNL     1       6.846   5.048  17.296  0.00  0.00    +0.000 A 
ATOM     27  N   UNL     1       7.723   5.563  18.175  0.00  0.00    +0.000 NA
ATOM     28  C   UNL     1       7.270   5.551  19.425  0.00  0.00    +0.000 A 
ATOM     29  N   UNL     1       6.078   5.113  19.851  0.00  0.00    +0.000 NA
ATOM     30  C   UNL     1       5.219   4.623  18.934  0.00  0.00    +0.000 A 
ATOM     31  C   UNL     1       5.584   4.534  17.572  0.00  0.00    +0.000 A 
ATOM     32  C   UNL     1       4.965   4.035  16.341  0.00  0.00    +0.000 A 
ATOM     33  C   UNL     1       3.645   3.339  16.189  0.00  0.00    +0.000 C 
ENDBRANCH  22  30
ENDBRANCH  21  22
ENDBRANCH   1  21
TORSDOF 7
ENDMDL
MODEL 6
REMARK VINA RESULT:      -7.9      2.087      3.125
REMARK  Name = 
REMARK  9 active torsions:
REMARK  status: ('A' for Active; 'I' for Inactive)
REMARK    1  A    between atoms: C_1  and  C_2
REMARK    2  A    between atoms: C_8  and  S_9
REMARK    3  A    between atoms: S_9  and  C_10
REMARK    4  A    between atoms: C_10  and  C_11
REMARK    5  A    between atoms: N_13  and  N_14
REMARK    6  A    between atoms: C_15  and  C_17
REMARK    7  A    between atoms: C_17  and  O_18
REMARK    8  A    between atoms: O_18  and  C_19
REMARK    9  A    between atoms: C_30  and  C_31
REMARK                            x       y       z     vdW  Elec       q    Type
REMARK                         _______ _______ _______ _____ _____    ______ ____
ROOT
ATOM      1  C   UNL     1       2.231   7.025  19.885  0.00  0.00    +0.000 C 
ATOM      2  O   UNL     1       2.663   7.730  18.973  0.00  0.00    +0.000 OA
ATOM      3  N   UNL     1       2.828   5.806  20.142  0.00  0.00    +0.000 N 
ATOM      4  H   UNL     1       3.676   5.608  19.618  0.00  0.00    +0.000 HD
ENDROOT
BRANCH   3   5
ATOM      5  N   UNL     1       2.480   5.009  21.229  0.00  0.00    +0.000 N 
ATOM      6  C   UNL     1       2.478   3.637  21.218  0.00  0.00    +0.000 C 
ATOM      7  O   UNL     1       2.019   3.024  22.185  0.00  0.00    +0.000 OA
ATOM      8  H   UNL     1       2.098   5.453  22.062  0.00  0.00    +0.000 HD
BRANCH   6   9
ATOM      9  C   UNL     1       3.123   2.924  20.039  0.00  0.00    +0.000 C 
BRANCH   9  10
ATOM     10  O   UNL     1       4.459   3.342  19.798  0.00  0.00    +0.000 OA
BRANCH  10  11
ATOM     11  C   UNL     1       4.714   3.791  18.518  0.00  0.00    +0.000 A 
ATOM     12  C   UNL     1       3.963   3.387  17.404  0.00  0.00    +0.000 A 
ATOM     13  C   UNL     1       4.276   3.840  16.128  0.00  0.00    +0.000 A 
ATOM     14  C   UNL     1       5.322   4.737  15.950  0.00  0.00    +0.000 A 
ATOM     15  C   UNL     1       6.052   5.211  17.048  0.00  0.00    +0.000 A 
ATOM     16  C   UNL     1       7.062   6.165  16.847  0.00  0.00    +0.000 A 
ATOM     17  C   UNL     1       7.801   6.654  17.921  0.00  0.00    +0.000 A 
ATOM     18  C   UNL     1       7.564   6.172  19.202  0.00  0.00    +0.000 A 
ATOM     19  C   UNL     1       6.562   5.218  19.417  0.00  0.00    +0.000 A 
ATOM     20  C   UNL     1       5.766   4.726  18.352  0.00  0.00    +0.000 A 
ENDBRANCH  10  11
ENDBRANCH   9  10
ENDBRANCH   6   9
ENDBRANCH   3   5
BRANCH   1  21
ATOM     21  C   UNL     1       1.059   7.453  20.758  0.00  0.00    +0.000 C 
BRANCH  21  22
ATOM     22  S   UNL     1       1.284   9.223  21.150  0.00  0.00    +0.000 S 
BRANCH  22  30
ATOM     23  C   UNL     1      -2.937  13.010  22.992  0.00  0.00    +0.000 C 
ATOM     24  C   UNL     1      -2.268  12.298  21.858  0.00  0.00    +0.000 A 
ATOM     25  S   UNL     1      -2.697  12.671  20.254  0.00  0.00    +0.000 S 
ATOM     26  C   UNL     1      -1.582  11.557  19.624  0.00  0.00    +0.000 A 
ATOM     27  N   UNL     1      -1.480  11.413  18.292  0.00  0.00    +0.000 NA
ATOM     28  C   UNL     1      -0.552  10.528  17.938  0.00  0.00    +0.000 A 
ATOM     29  N   UNL     1       0.251   9.828  18.749  0.00  0.00    +0.000 NA
ATOM     30  C   UNL     1       0.130  10.017  20.079  0.00  0.00    +0.000 A 
ATOM     31  C   UNL     1      -0.845  10.896  20.601  0.00  0.00    +0.000 A 
ATOM     32  C   UNL     1      -1.293  11.308  21.933  0.00  0.00    +0.000 A 
ATOM     33  C   UNL     1      -0.824  10.796  23.263  0.00  0.00    +0.000 C 
ENDBRANCH  22  30
ENDBRANCH  21  22
ENDBRANCH   1  21
TORSDOF 7
ENDMDL
MODEL 7
REMARK VINA RESULT:      -7.9      3.925      6.254
REMARK  Name = 
REMARK  9 active torsions:
REMARK  status: ('A' for Active; 'I' for Inactive)
REMARK    1  A    between atoms: C_1  and  C_2
REMARK    2  A    between atoms: C_8  and  S_9
REMARK    3  A    between atoms: S_9  and  C_10
REMARK    4  A    between atoms: C_10  and  C_11
REMARK    5  A    between atoms: N_13  and  N_14
REMARK    6  A    between atoms: C_15  and  C_17
REMARK    7  A    between atoms: C_17  and  O_18
REMARK    8  A    between atoms: O_18  and  C_19
REMARK    9  A    between atoms: C_30  and  C_31
REMARK                            x       y       z     vdW  Elec       q    Type
REMARK                         _______ _______ _______ _____ _____    ______ ____
ROOT
ATOM      1  C   UNL     1      -0.227  11.404  22.029  0.00  0.00    +0.000 C 
ATOM      2  O   UNL     1      -0.699  11.446  23.165  0.00  0.00    +0.000 OA
ATOM      3  N   UNL     1      -0.199  10.203  21.348  0.00  0.00    +0.000 N 
ATOM      4  H   UNL     1      -0.679   9.428  21.797  0.00  0.00    +0.000 HD
ENDROOT
BRANCH   3   5
ATOM      5  N   UNL     1       0.202  10.097  20.019  0.00  0.00    +0.000 N 
ATOM      6  C   UNL     1       1.124   9.192  19.556  0.00  0.00    +0.000 C 
ATOM      7  O   UNL     1       1.517   9.270  18.390  0.00  0.00    +0.000 OA
ATOM      8  H   UNL     1      -0.116  10.797  19.352  0.00  0.00    +0.000 HD
BRANCH   6   9
ATOM      9  C   UNL     1       1.562   8.068  20.484  0.00  0.00    +0.000 C 
BRANCH   9  10
ATOM     10  O   UNL     1       2.602   7.269  19.939  0.00  0.00    +0.000 OA
BRANCH  10  11
ATOM     11  C   UNL     1       2.291   5.935  19.768  0.00  0.00    +0.000 A 
ATOM     12  C   UNL     1       1.319   5.274  20.534  0.00  0.00    +0.000 A 
ATOM     13  C   UNL     1       1.062   3.921  20.349  0.00  0.00    +0.000 A 
ATOM     14  C   UNL     1       1.746   3.215  19.367  0.00  0.00    +0.000 A 
ATOM     15  C   UNL     1       2.677   3.858  18.541  0.00  0.00    +0.000 A 
ATOM     16  C   UNL     1       3.306   3.135  17.516  0.00  0.00    +0.000 A 
ATOM     17  C   UNL     1       4.235   3.750  16.679  0.00  0.00    +0.000 A 
ATOM     18  C   UNL     1       4.569   5.085  16.879  0.00  0.00    +0.000 A 
ATOM     19  C   UNL     1       3.952   5.817  17.900  0.00  0.00    +0.000 A 
ATOM     20  C   UNL     1       2.976   5.231  18.746  0.00  0.00    +0.000 A 
ENDBRANCH  10  11
ENDBRANCH   9  10
ENDBRANCH   6   9
ENDBRANCH   3   5
BRANCH   1  21
ATOM     21  C   UNL     1       0.323  12.642  21.331  0.00  0.00    +0.000 C 
BRANCH  21  22
ATOM     22  S   UNL     1      -1.094  13.723  20.931  0.00  0.00    +0.000 S 
BRANCH  22  30
ATOM     23  C   UNL     1      -6.911  12.493  21.388  0.00  0.00    +0.000 C 
ATOM     24  C   UNL     1      -5.637  12.366  20.613  0.00  0.00    +0.000 A 
ATOM     25  S   UNL     1      -5.655  11.658  19.066  0.00  0.00    +0.000 S 
ATOM     26  C   UNL     1      -3.985  11.885  18.866  0.00  0.00    +0.000 A 
ATOM     27  N   UNL     1      -3.398  11.475  17.729  0.00  0.00    +0.000 NA
ATOM     28  C   UNL     1      -2.095  11.739  17.697  0.00  0.00    +0.000 A 
ATOM     29  N   UNL     1      -1.369  12.356  18.638  0.00  0.00    +0.000 NA
ATOM     30  C   UNL     1      -2.000  12.770  19.756  0.00  0.00    +0.000 A 
ATOM     31  C   UNL     1      -3.378  12.519  19.945  0.00  0.00    +0.000 A 
ATOM     32  C   UNL     1      -4.361  12.760  21.004  0.00  0.00    +0.000 A 
ATOM     33  C   UNL     1      -4.126  13.351  22.363  0.00  0.00    +0.000 C 
ENDBRANCH  22  30
ENDBRANCH  21  22
ENDBRANCH   1  21
TORSDOF 7
ENDMDL
MODEL 8
REMARK VINA RESULT:      -7.9      2.153      3.734
REMARK  Name = 
REMARK  9 active torsions:
REMARK  status: ('A' for Active; 'I' for Inactive)
REMARK    1  A    between atoms: C_1  and  C_2
REMARK    2  A    between atoms: C_8  and  S_9
REMARK    3  A    between atoms: S_9  and  C_10
REMARK    4  A    between atoms: C_10  and  C_11
REMARK    5  A    between atoms: N_13  and  N_14
REMARK    6  A    between atoms: C_15  and  C_17
REMARK    7  A    between atoms: C_17  and  O_18
REMARK    8  A    between atoms: O_18  and  C_19
REMARK    9  A    between atoms: C_30  and  C_31
REMARK                            x       y       z     vdW  Elec       q    Type
REMARK                         _______ _______ _______ _____ _____    ______ ____
ROOT
ATOM      1  C   UNL     1       2.816   6.818  18.300  0.00  0.00    +0.000 C 
ATOM      2  O   UNL     1       3.600   7.408  17.557  0.00  0.00    +0.000 OA
ATOM      3  N   UNL     1       2.449   5.520  18.008  0.00  0.00    +0.000 N 
ATOM      4  H   UNL     1       2.943   5.082  17.236  0.00  0.00    +0.000 HD
ENDROOT
BRANCH   3   5
ATOM      5  N   UNL     1       1.668   4.745  18.862  0.00  0.00    +0.000 N 
ATOM      6  C   UNL     1       2.141   3.699  19.613  0.00  0.00    +0.000 C 
ATOM      7  O   UNL     1       1.345   2.986  20.229  0.00  0.00    +0.000 OA
ATOM      8  H   UNL     1       0.659   4.879  18.863  0.00  0.00    +0.000 HD
BRANCH   6   9
ATOM      9  C   UNL     1       3.647   3.511  19.722  0.00  0.00    +0.000 C 
BRANCH   9  10
ATOM     10  O   UNL     1       4.286   3.391  18.459  0.00  0.00    +0.000 OA
BRANCH  10  11
ATOM     11  C   UNL     1       5.356   4.240  18.258  0.00  0.00    +0.000 A 
ATOM     12  C   UNL     1       6.016   4.898  19.307  0.00  0.00    +0.000 A 
ATOM     13  C   UNL     1       7.068   5.770  19.053  0.00  0.00    +0.000 A 
ATOM     14  C   UNL     1       7.503   5.969  17.750  0.00  0.00    +0.000 A 
ATOM     15  C   UNL     1       6.909   5.279  16.684  0.00  0.00    +0.000 A 
ATOM     16  C   UNL     1       7.411   5.450  15.384  0.00  0.00    +0.000 A 
ATOM     17  C   UNL     1       6.840   4.776  14.308  0.00  0.00    +0.000 A 
ATOM     18  C   UNL     1       5.741   3.949  14.513  0.00  0.00    +0.000 A 
ATOM     19  C   UNL     1       5.228   3.772  15.803  0.00  0.00    +0.000 A 
ATOM     20  C   UNL     1       5.809   4.415  16.926  0.00  0.00    +0.000 A 
ENDBRANCH  10  11
ENDBRANCH   9  10
ENDBRANCH   6   9
ENDBRANCH   3   5
BRANCH   1  21
ATOM     21  C   UNL     1       2.236   7.468  19.550  0.00  0.00    +0.000 C 
BRANCH  21  22
ATOM     22  S   UNL     1       1.445   9.033  19.039  0.00  0.00    +0.000 S 
BRANCH  22  30
ATOM     23  C   UNL     1       0.389  14.771  20.271  0.00  0.00    +0.000 C 
ATOM     24  C   UNL     1       0.296  13.338  20.691  0.00  0.00    +0.000 A 
ATOM     25  S   UNL     1      -0.559  12.925  22.104  0.00  0.00    +0.000 S 
ATOM     26  C   UNL     1      -0.244  11.270  21.893  0.00  0.00    +0.000 A 
ATOM     27  N   UNL     1      -0.717  10.391  22.793  0.00  0.00    +0.000 NA
ATOM     28  C   UNL     1      -0.419   9.131  22.490  0.00  0.00    +0.000 A 
ATOM     29  N   UNL     1       0.255   8.692  21.420  0.00  0.00    +0.000 NA
ATOM     30  C   UNL     1       0.695   9.605  20.530  0.00  0.00    +0.000 A 
ATOM     31  C   UNL     1       0.488  10.986  20.745  0.00  0.00    +0.000 A 
ATOM     32  C   UNL     1       0.847  12.229  20.058  0.00  0.00    +0.000 A 
ATOM     33  C   UNL     1       1.690  12.392  18.827  0.00  0.00    +0.000 C 
ENDBRANCH  22  30
ENDBRANCH  21  22
ENDBRANCH   1  21
TORSDOF 7
ENDMDL
MODEL 9
REMARK VINA RESULT:      -7.8      3.566      5.302
REMARK  Name = 
REMARK  9 active torsions:
REMARK  status: ('A' for Active; 'I' for Inactive)
REMARK    1  A    between atoms: C_1  and  C_2
REMARK    2  A    between atoms: C_8  and  S_9
REMARK    3  A    between atoms: S_9  and  C_10
REMARK    4  A    between atoms: C_10  and  C_11
REMARK    5  A    between atoms: N_13  and  N_14
REMARK    6  A    between atoms: C_15  and  C_17
REMARK    7  A    between atoms: C_17  and  O_18
REMARK    8  A    between atoms: O_18  and  C_19
REMARK    9  A    between atoms: C_30  and  C_31
REMARK                            x       y       z     vdW  Elec       q    Type
REMARK                         _______ _______ _______ _____ _____    ______ ____
ROOT
ATOM      1  C   UNL     1       0.621  10.717  21.287  0.00  0.00    +0.000 C 
ATOM      2  O   UNL     1       0.256  10.721  22.463  0.00  0.00    +0.000 OA
ATOM      3  N   UNL     1       0.926   9.518  20.675  0.00  0.00    +0.000 N 
ATOM      4  H   UNL     1       0.724   8.680  21.213  0.00  0.00    +0.000 HD
ENDROOT
BRANCH   3   5
ATOM      5  N   UNL     1       1.226   9.417  19.318  0.00  0.00    +0.000 N 
ATOM      6  C   UNL     1       1.941   8.392  18.755  0.00  0.00    +0.000 C 
ATOM      7  O   UNL     1       2.275   8.464  17.570  0.00  0.00    +0.000 OA
ATOM      8  H   UNL     1       1.000  10.198  18.706  0.00  0.00    +0.000 HD
BRANCH   6   9
ATOM      9  C   UNL     1       2.224   7.158  19.601  0.00  0.00    +0.000 C 
BRANCH   9  10
ATOM     10  O   UNL     1       3.489   6.572  19.326  0.00  0.00    +0.000 OA
BRANCH  10  11
ATOM     11  C   UNL     1       3.460   5.477  18.485  0.00  0.00    +0.000 A 
ATOM     12  C   UNL     1       2.372   4.594  18.421  0.00  0.00    +0.000 A 
ATOM     13  C   UNL     1       2.400   3.486  17.582  0.00  0.00    +0.000 A 
ATOM     14  C   UNL     1       3.502   3.264  16.766  0.00  0.00    +0.000 A 
ATOM     15  C   UNL     1       4.579   4.160  16.758  0.00  0.00    +0.000 A 
ATOM     16  C   UNL     1       5.650   3.946  15.877  0.00  0.00    +0.000 A 
ATOM     17  C   UNL     1       6.732   4.823  15.848  0.00  0.00    +0.000 A 
ATOM     18  C   UNL     1       6.771   5.904  16.722  0.00  0.00    +0.000 A 
ATOM     19  C   UNL     1       5.711   6.127  17.608  0.00  0.00    +0.000 A 
ATOM     20  C   UNL     1       4.578   5.275  17.638  0.00  0.00    +0.000 A 
ENDBRANCH  10  11
ENDBRANCH   9  10
ENDBRANCH   6   9
ENDBRANCH   3   5
BRANCH   1  21
ATOM     21  C   UNL     1       0.739  11.996  20.469  0.00  0.00    +0.000 C 
BRANCH  21  22
ATOM     22  S   UNL     1      -0.917  12.767  20.412  0.00  0.00    +0.000 S 
BRANCH  22  30
ATOM     23  C   UNL     1      -6.820  12.928  19.591  0.00  0.00    +0.000 C 
ATOM     24  C   UNL     1      -5.494  12.350  19.208  0.00  0.00    +0.000 A 
ATOM     25  S   UNL     1      -5.383  11.301  17.873  0.00  0.00    +0.000 S 
ATOM     26  C   UNL     1      -3.707  11.118  18.068  0.00  0.00    +0.000 A 
ATOM     27  N   UNL     1      -3.029  10.327  17.220  0.00  0.00    +0.000 NA
ATOM     28  C   UNL     1      -1.724  10.297  17.473  0.00  0.00    +0.000 A 
ATOM     29  N   UNL     1      -1.068  10.963  18.431  0.00  0.00    +0.000 NA
ATOM     30  C   UNL     1      -1.783  11.763  19.249  0.00  0.00    +0.000 A 
ATOM     31  C   UNL     1      -3.187  11.859  19.124  0.00  0.00    +0.000 A 
ATOM     32  C   UNL     1      -4.266  12.555  19.829  0.00  0.00    +0.000 A 
ATOM     33  C   UNL     1      -4.166  13.402  21.063  0.00  0.00    +0.000 C 
ENDBRANCH  22  30
ENDBRANCH  21  22
ENDBRANCH   1  21
TORSDOF 7
ENDMDL
