MODEL 1
REMARK VINA RESULT:      -8.2      0.000      0.000
REMARK  Name = 
REMARK  9 active torsions:
REMARK  status: ('A' for Active; 'I' for Inactive)
REMARK    1  A    between atoms: C_1  and  C_2
REMARK    2  A    between atoms: C_5  and  N_6
REMARK    3  A    between atoms: C_10  and  C_11
REMARK    4  A    between atoms: C_11  and  N_12
REMARK    5  A    between atoms: C_13  and  C_15
REMARK    6  A    between atoms: C_15  and  C_16
REMARK    7  A    between atoms: C_15  and  C_17
REMARK    8  A    between atoms: C_15  and  C_18
REMARK    9  A    between atoms: C_20  and  C_21
REMARK                            x       y       z     vdW  Elec       q    Type
REMARK                         _______ _______ _______ _____ _____    ______ ____
ROOT
ATOM      1  N   UNL     1       6.939   4.916  17.627  0.00  0.00    +0.000 N 
ATOM      2  N   UNL     1       8.134   4.537  18.127  0.00  0.00    +0.000 NA
ATOM      3  N   UNL     1       8.183   5.024  19.359  0.00  0.00    +0.000 NA
ATOM      4  N   UNL     1       6.994   5.606  19.705  0.00  0.00    +0.000 NA
ATOM      5  C   UNL     1       6.201   5.477  18.659  0.00  0.00    +0.000 A 
ENDROOT
BRANCH   1  10
ATOM      6  C   UNL     1       5.878   3.353  12.257  0.00  0.00    +0.000 C 
ATOM      7  C   UNL     1       6.078   3.914  13.638  0.00  0.00    +0.000 A 
ATOM      8  C   UNL     1       5.243   3.473  14.672  0.00  0.00    +0.000 A 
ATOM      9  C   UNL     1       5.493   3.842  15.990  0.00  0.00    +0.000 A 
ATOM     10  C   UNL     1       6.573   4.674  16.285  0.00  0.00    +0.000 A 
ATOM     11  C   UNL     1       7.329   5.236  15.250  0.00  0.00    +0.000 A 
ATOM     12  C   UNL     1       7.099   4.844  13.920  0.00  0.00    +0.000 A 
ATOM     13  C   UNL     1       7.989   5.378  12.830  0.00  0.00    +0.000 C 
ENDBRANCH   1  10
BRANCH   5  14
ATOM     14  C   UNL     1       4.727   5.642  18.655  0.00  0.00    +0.000 C 
BRANCH  14  15
ATOM     15  N   UNL     1       4.076   4.462  19.180  0.00  0.00    +0.000 N 
ATOM     16  C   UNL     1       2.838   4.087  18.692  0.00  0.00    +0.000 C 
ATOM     17  O   UNL     1       2.213   4.795  17.913  0.00  0.00    +0.000 OA
ATOM     18  H   UNL     1       4.639   3.792  19.686  0.00  0.00    +0.000 HD
BRANCH  16  19
ATOM     19  C   UNL     1       2.317   2.723  19.185  0.00  0.00    +0.000 C 
ATOM     20  C   UNL     1       3.196   1.593  18.624  0.00  0.00    +0.000 C 
ATOM     21  C   UNL     1       2.364   2.677  20.723  0.00  0.00    +0.000 C 
ATOM     22  C   UNL     1       0.862   2.531  18.738  0.00  0.00    +0.000 C 
ENDBRANCH  16  19
ENDBRANCH  14  15
ENDBRANCH   5  14
TORSDOF 4
ENDMDL
MODEL 2
REMARK VINA RESULT:      -8.1      0.521      1.159
REMARK  Name = 
REMARK  9 active torsions:
REMARK  status: ('A' for Active; 'I' for Inactive)
REMARK    1  A    between atoms: C_1  and  C_2
REMARK    2  A    between atoms: C_5  and  N_6
REMARK    3  A    between atoms: C_10  and  C_11
REMARK    4  A    between atoms: C_11  and  N_12
REMARK    5  A    between atoms: C_13  and  C_15
REMARK    6  A    between atoms: C_15  and  C_16
REMARK    7  A    between atoms: C_15  and  C_17
REMARK    8  A    between atoms: C_15  and  C_18
REMARK    9  A    between atoms: C_20  and  C_21
REMARK                            x       y       z     vdW  Elec       q    Type
REMARK                         _______ _______ _______ _____ _____    ______ ____
ROOT
ATOM      1  N   UNL     1       6.881   4.929  17.617  0.00  0.00    +0.000 N 
ATOM      2  N   UNL     1       8.015   4.450  18.172  0.00  0.00    +0.000 NA
ATOM      3  N   UNL     1       8.070   4.968  19.391  0.00  0.00    +0.000 NA
ATOM      4  N   UNL     1       6.933   5.675  19.676  0.00  0.00    +0.000 NA
ATOM      5  C   UNL     1       6.167   5.591  18.605  0.00  0.00    +0.000 A 
ENDROOT
BRANCH   1  10
ATOM      6  C   UNL     1       5.914   3.346  12.236  0.00  0.00    +0.000 C 
ATOM      7  C   UNL     1       6.089   3.912  13.618  0.00  0.00    +0.000 A 
ATOM      8  C   UNL     1       5.236   3.476  14.639  0.00  0.00    +0.000 A 
ATOM      9  C   UNL     1       5.462   3.850  15.959  0.00  0.00    +0.000 A 
ATOM     10  C   UNL     1       6.538   4.682  16.271  0.00  0.00    +0.000 A 
ATOM     11  C   UNL     1       7.314   5.239  15.247  0.00  0.00    +0.000 A 
ATOM     12  C   UNL     1       7.107   4.842  13.914  0.00  0.00    +0.000 A 
ATOM     13  C   UNL     1       8.016   5.371  12.838  0.00  0.00    +0.000 C 
ENDBRANCH   1  10
BRANCH   5  14
ATOM     14  C   UNL     1       4.718   5.900  18.543  0.00  0.00    +0.000 C 
BRANCH  14  15
ATOM     15  N   UNL     1       3.954   4.940  19.308  0.00  0.00    +0.000 N 
ATOM     16  C   UNL     1       2.765   4.448  18.802  0.00  0.00    +0.000 C 
ATOM     17  O   UNL     1       2.270   4.896  17.775  0.00  0.00    +0.000 OA
ATOM     18  H   UNL     1       4.421   4.448  20.058  0.00  0.00    +0.000 HD
BRANCH  16  19
ATOM     19  C   UNL     1       2.126   3.302  19.610  0.00  0.00    +0.000 C 
ATOM     20  C   UNL     1       1.015   3.857  20.516  0.00  0.00    +0.000 C 
ATOM     21  C   UNL     1       1.518   2.268  18.646  0.00  0.00    +0.000 C 
ATOM     22  C   UNL     1       3.198   2.605  20.456  0.00  0.00    +0.000 C 
ENDBRANCH  16  19
ENDBRANCH  14  15
ENDBRANCH   5  14
TORSDOF 4
ENDMDL
MODEL 3
REMARK VINA RESULT:      -7.7      2.851      6.423
REMARK  Name = 
REMARK  9 active torsions:
REMARK  status: ('A' for Active; 'I' for Inactive)
REMARK    1  A    between atoms: C_1  and  C_2
REMARK    2  A    between atoms: C_5  and  N_6
REMARK    3  A    between atoms: C_10  and  C_11
REMARK    4  A    between atoms: C_11  and  N_12
REMARK    5  A    between atoms: C_13  and  C_15
REMARK    6  A    between atoms: C_15  and  C_16
REMARK    7  A    between atoms: C_15  and  C_17
REMARK    8  A    between atoms: C_15  and  C_18
REMARK    9  A    between atoms: C_20  and  C_21
REMARK                            x       y       z     vdW  Elec       q    Type
REMARK                         _______ _______ _______ _____ _____    ______ ____
ROOT
ATOM      1  N   UNL     1       2.296   3.931  18.504  0.00  0.00    +0.000 N 
ATOM      2  N   UNL     1       1.255   3.323  17.895  0.00  0.00    +0.000 NA
ATOM      3  N   UNL     1       1.728   2.181  17.418  0.00  0.00    +0.000 NA
ATOM      4  N   UNL     1       3.025   1.985  17.811  0.00  0.00    +0.000 NA
ATOM      5  C   UNL     1       3.353   3.033  18.541  0.00  0.00    +0.000 A 
ENDROOT
BRANCH   1  10
ATOM      6  C   UNL     1       1.215   9.155  20.488  0.00  0.00    +0.000 C 
ATOM      7  C   UNL     1       1.668   7.811  19.987  0.00  0.00    +0.000 A 
ATOM      8  C   UNL     1       1.570   6.706  20.841  0.00  0.00    +0.000 A 
ATOM      9  C   UNL     1       1.826   5.422  20.369  0.00  0.00    +0.000 A 
ATOM     10  C   UNL     1       2.201   5.233  19.039  0.00  0.00    +0.000 A 
ATOM     11  C   UNL     1       2.441   6.339  18.213  0.00  0.00    +0.000 A 
ATOM     12  C   UNL     1       2.156   7.635  18.676  0.00  0.00    +0.000 A 
ATOM     13  C   UNL     1       2.320   8.804  17.742  0.00  0.00    +0.000 C 
ENDBRANCH   1  10
BRANCH   5  14
ATOM     14  C   UNL     1       4.516   3.129  19.456  0.00  0.00    +0.000 C 
BRANCH  14  15
ATOM     15  N   UNL     1       5.660   3.696  18.777  0.00  0.00    +0.000 N 
ATOM     16  C   UNL     1       6.006   5.016  18.998  0.00  0.00    +0.000 C 
ATOM     17  O   UNL     1       5.296   5.763  19.660  0.00  0.00    +0.000 OA
ATOM     18  H   UNL     1       6.335   3.063  18.371  0.00  0.00    +0.000 HD
BRANCH  16  19
ATOM     19  C   UNL     1       7.338   5.466  18.369  0.00  0.00    +0.000 C 
ATOM     20  C   UNL     1       8.441   5.489  19.439  0.00  0.00    +0.000 C 
ATOM     21  C   UNL     1       7.740   4.485  17.254  0.00  0.00    +0.000 C 
ATOM     22  C   UNL     1       7.174   6.861  17.751  0.00  0.00    +0.000 C 
ENDBRANCH  16  19
ENDBRANCH  14  15
ENDBRANCH   5  14
TORSDOF 4
ENDMDL
MODEL 4
REMARK VINA RESULT:      -7.6      2.943      6.540
REMARK  Name = 
REMARK  9 active torsions:
REMARK  status: ('A' for Active; 'I' for Inactive)
REMARK    1  A    between atoms: C_1  and  C_2
REMARK    2  A    between atoms: C_5  and  N_6
REMARK    3  A    between atoms: C_10  and  C_11
REMARK    4  A    between atoms: C_11  and  N_12
REMARK    5  A    between atoms: C_13  and  C_15
REMARK    6  A    between atoms: C_15  and  C_16
REMARK    7  A    between atoms: C_15  and  C_17
REMARK    8  A    between atoms: C_15  and  C_18
REMARK    9  A    between atoms: C_20  and  C_21
REMARK                            x       y       z     vdW  Elec       q    Type
REMARK                         _______ _______ _______ _____ _____    ______ ____
ROOT
ATOM      1  N   UNL     1       2.115   3.842  19.322  0.00  0.00    +0.000 N 
ATOM      2  N   UNL     1       1.007   3.070  19.339  0.00  0.00    +0.000 NA
ATOM      3  N   UNL     1       1.393   1.871  18.928  0.00  0.00    +0.000 NA
ATOM      4  N   UNL     1       2.751   1.822  18.761  0.00  0.00    +0.000 NA
ATOM      5  C   UNL     1       3.204   3.021  19.073  0.00  0.00    +0.000 A 
ENDROOT
BRANCH   1  10
ATOM      6  C   UNL     1       1.259   9.399  20.207  0.00  0.00    +0.000 C 
ATOM      7  C   UNL     1       1.653   7.963  20.001  0.00  0.00    +0.000 A 
ATOM      8  C   UNL     1       1.437   7.048  21.039  0.00  0.00    +0.000 A 
ATOM      9  C   UNL     1       1.636   5.687  20.836  0.00  0.00    +0.000 A 
ATOM     10  C   UNL     1       2.073   5.226  19.594  0.00  0.00    +0.000 A 
ATOM     11  C   UNL     1       2.428   6.138  18.592  0.00  0.00    +0.000 A 
ATOM     12  C   UNL     1       2.201   7.512  18.782  0.00  0.00    +0.000 A 
ATOM     13  C   UNL     1       2.491   8.469  17.658  0.00  0.00    +0.000 C 
ENDBRANCH   1  10
BRANCH   5  14
ATOM     14  C   UNL     1       4.615   3.369  19.371  0.00  0.00    +0.000 C 
BRANCH  14  15
ATOM     15  N   UNL     1       5.152   4.251  18.359  0.00  0.00    +0.000 N 
ATOM     16  C   UNL     1       6.153   5.146  18.689  0.00  0.00    +0.000 C 
ATOM     17  O   UNL     1       6.517   5.304  19.847  0.00  0.00    +0.000 OA
ATOM     18  H   UNL     1       4.986   4.021  17.389  0.00  0.00    +0.000 HD
BRANCH  16  19
ATOM     19  C   UNL     1       6.777   5.908  17.503  0.00  0.00    +0.000 C 
ATOM     20  C   UNL     1       7.454   4.917  16.543  0.00  0.00    +0.000 C 
ATOM     21  C   UNL     1       5.677   6.671  16.744  0.00  0.00    +0.000 C 
ATOM     22  C   UNL     1       7.802   6.924  18.023  0.00  0.00    +0.000 C 
ENDBRANCH  16  19
ENDBRANCH  14  15
ENDBRANCH   5  14
TORSDOF 4
ENDMDL
MODEL 5
REMARK VINA RESULT:      -7.3      1.068      1.563
REMARK  Name = 
REMARK  9 active torsions:
REMARK  status: ('A' for Active; 'I' for Inactive)
REMARK    1  A    between atoms: C_1  and  C_2
REMARK    2  A    between atoms: C_5  and  N_6
REMARK    3  A    between atoms: C_10  and  C_11
REMARK    4  A    between atoms: C_11  and  N_12
REMARK    5  A    between atoms: C_13  and  C_15
REMARK    6  A    between atoms: C_15  and  C_16
REMARK    7  A    between atoms: C_15  and  C_17
REMARK    8  A    between atoms: C_15  and  C_18
REMARK    9  A    between atoms: C_20  and  C_21
REMARK                            x       y       z     vdW  Elec       q    Type
REMARK                         _______ _______ _______ _____ _____    ______ ____
ROOT
ATOM      1  N   UNL     1       6.778   5.199  17.495  0.00  0.00    +0.000 N 
ATOM      2  N   UNL     1       7.838   5.977  17.806  0.00  0.00    +0.000 NA
ATOM      3  N   UNL     1       7.783   6.158  19.117  0.00  0.00    +0.000 NA
ATOM      4  N   UNL     1       6.778   5.414  19.674  0.00  0.00    +0.000 NA
ATOM      5  C   UNL     1       6.203   4.766  18.680  0.00  0.00    +0.000 A 
ENDROOT
BRANCH   1  10
ATOM      6  C   UNL     1       5.795   3.319  12.213  0.00  0.00    +0.000 C 
ATOM      7  C   UNL     1       5.985   3.965  13.557  0.00  0.00    +0.000 A 
ATOM      8  C   UNL     1       5.090   3.654  14.588  0.00  0.00    +0.000 A 
ATOM      9  C   UNL     1       5.320   4.101  15.885  0.00  0.00    +0.000 A 
ATOM     10  C   UNL     1       6.441   4.883  16.161  0.00  0.00    +0.000 A 
ATOM     11  C   UNL     1       7.267   5.320  15.118  0.00  0.00    +0.000 A 
ATOM     12  C   UNL     1       7.055   4.847  13.811  0.00  0.00    +0.000 A 
ATOM     13  C   UNL     1       8.013   5.244  12.720  0.00  0.00    +0.000 C 
ENDBRANCH   1  10
BRANCH   5  14
ATOM     14  C   UNL     1       5.300   3.597  18.807  0.00  0.00    +0.000 C 
BRANCH  14  15
ATOM     15  N   UNL     1       4.174   3.907  19.660  0.00  0.00    +0.000 N 
ATOM     16  C   UNL     1       2.898   3.537  19.274  0.00  0.00    +0.000 C 
ATOM     17  O   UNL     1       2.674   3.063  18.167  0.00  0.00    +0.000 OA
ATOM     18  H   UNL     1       4.357   4.139  20.626  0.00  0.00    +0.000 HD
BRANCH  16  19
ATOM     19  C   UNL     1       1.798   3.753  20.332  0.00  0.00    +0.000 C 
ATOM     20  C   UNL     1       1.607   5.256  20.589  0.00  0.00    +0.000 C 
ATOM     21  C   UNL     1       0.472   3.157  19.827  0.00  0.00    +0.000 C 
ATOM     22  C   UNL     1       2.186   3.040  21.634  0.00  0.00    +0.000 C 
ENDBRANCH  16  19
ENDBRANCH  14  15
ENDBRANCH   5  14
TORSDOF 4
ENDMDL
MODEL 6
REMARK VINA RESULT:      -7.2      2.890      6.464
REMARK  Name = 
REMARK  9 active torsions:
REMARK  status: ('A' for Active; 'I' for Inactive)
REMARK    1  A    between atoms: C_1  and  C_2
REMARK    2  A    between atoms: C_5  and  N_6
REMARK    3  A    between atoms: C_10  and  C_11
REMARK    4  A    between atoms: C_11  and  N_12
REMARK    5  A    between atoms: C_13  and  C_15
REMARK    6  A    between atoms: C_15  and  C_16
REMARK    7  A    between atoms: C_15  and  C_17
REMARK    8  A    between atoms: C_15  and  C_18
REMARK    9  A    between atoms: C_20  and  C_21
REMARK                            x       y       z     vdW  Elec       q    Type
REMARK                         _______ _______ _______ _____ _____    ______ ____
ROOT
ATOM      1  N   UNL     1       2.299   4.041  18.713  0.00  0.00    +0.000 N 
ATOM      2  N   UNL     1       1.211   3.285  18.453  0.00  0.00    +0.000 NA
ATOM      3  N   UNL     1       1.667   2.167  17.908  0.00  0.00    +0.000 NA
ATOM      4  N   UNL     1       3.035   2.137  17.920  0.00  0.00    +0.000 NA
ATOM      5  C   UNL     1       3.425   3.264  18.483  0.00  0.00    +0.000 A 
ENDROOT
BRANCH   1  10
ATOM      6  C   UNL     1       1.200   9.330  20.506  0.00  0.00    +0.000 C 
ATOM      7  C   UNL     1       1.657   7.971  20.053  0.00  0.00    +0.000 A 
ATOM      8  C   UNL     1       1.572   6.898  20.948  0.00  0.00    +0.000 A 
ATOM      9  C   UNL     1       1.832   5.599  20.523  0.00  0.00    +0.000 A 
ATOM     10  C   UNL     1       2.199   5.362  19.199  0.00  0.00    +0.000 A 
ATOM     11  C   UNL     1       2.427   6.437  18.330  0.00  0.00    +0.000 A 
ATOM     12  C   UNL     1       2.137   7.749  18.746  0.00  0.00    +0.000 A 
ATOM     13  C   UNL     1       2.287   8.882  17.768  0.00  0.00    +0.000 C 
ENDBRANCH   1  10
BRANCH   5  14
ATOM     14  C   UNL     1       4.777   3.549  19.022  0.00  0.00    +0.000 C 
BRANCH  14  15
ATOM     15  N   UNL     1       5.417   4.606  18.271  0.00  0.00    +0.000 N 
ATOM     16  C   UNL     1       5.788   4.386  16.957  0.00  0.00    +0.000 C 
ATOM     17  O   UNL     1       5.705   3.278  16.443  0.00  0.00    +0.000 OA
ATOM     18  H   UNL     1       5.341   5.552  18.618  0.00  0.00    +0.000 HD
BRANCH  16  19
ATOM     19  C   UNL     1       6.296   5.627  16.196  0.00  0.00    +0.000 C 
ATOM     20  C   UNL     1       7.012   5.194  14.908  0.00  0.00    +0.000 C 
ATOM     21  C   UNL     1       5.105   6.530  15.829  0.00  0.00    +0.000 C 
ATOM     22  C   UNL     1       7.253   6.426  17.090  0.00  0.00    +0.000 C 
ENDBRANCH  16  19
ENDBRANCH  14  15
ENDBRANCH   5  14
TORSDOF 4
ENDMDL
MODEL 7
REMARK VINA RESULT:      -7.1      1.185      1.376
REMARK  Name = 
REMARK  9 active torsions:
REMARK  status: ('A' for Active; 'I' for Inactive)
REMARK    1  A    between atoms: C_1  and  C_2
REMARK    2  A    between atoms: C_5  and  N_6
REMARK    3  A    between atoms: C_10  and  C_11
REMARK    4  A    between atoms: C_11  and  N_12
REMARK    5  A    between atoms: C_13  and  C_15
REMARK    6  A    between atoms: C_15  and  C_16
REMARK    7  A    between atoms: C_15  and  C_17
REMARK    8  A    between atoms: C_15  and  C_18
REMARK    9  A    between atoms: C_20  and  C_21
REMARK                            x       y       z     vdW  Elec       q    Type
REMARK                         _______ _______ _______ _____ _____    ______ ____
ROOT
ATOM      1  N   UNL     1       6.832   5.231  17.522  0.00  0.00    +0.000 N 
ATOM      2  N   UNL     1       7.879   6.034  17.813  0.00  0.00    +0.000 NA
ATOM      3  N   UNL     1       7.835   6.227  19.123  0.00  0.00    +0.000 NA
ATOM      4  N   UNL     1       6.852   5.468  19.699  0.00  0.00    +0.000 NA
ATOM      5  C   UNL     1       6.279   4.798  18.717  0.00  0.00    +0.000 A 
ENDROOT
BRANCH   1  10
ATOM      6  C   UNL     1       5.837   3.284  12.267  0.00  0.00    +0.000 C 
ATOM      7  C   UNL     1       6.025   3.945  13.604  0.00  0.00    +0.000 A 
ATOM      8  C   UNL     1       5.155   3.612  14.649  0.00  0.00    +0.000 A 
ATOM      9  C   UNL     1       5.388   4.076  15.940  0.00  0.00    +0.000 A 
ATOM     10  C   UNL     1       6.487   4.895  16.195  0.00  0.00    +0.000 A 
ATOM     11  C   UNL     1       7.283   5.352  15.137  0.00  0.00    +0.000 A 
ATOM     12  C   UNL     1       7.069   4.864  13.836  0.00  0.00    +0.000 A 
ATOM     13  C   UNL     1       7.998   5.283  12.729  0.00  0.00    +0.000 C 
ENDBRANCH   1  10
BRANCH   5  14
ATOM     14  C   UNL     1       5.403   3.611  18.866  0.00  0.00    +0.000 C 
BRANCH  14  15
ATOM     15  N   UNL     1       4.010   3.984  18.756  0.00  0.00    +0.000 N 
ATOM     16  C   UNL     1       3.031   3.009  18.822  0.00  0.00    +0.000 C 
ATOM     17  O   UNL     1       3.312   1.817  18.845  0.00  0.00    +0.000 OA
ATOM     18  H   UNL     1       3.762   4.952  18.903  0.00  0.00    +0.000 HD
BRANCH  16  19
ATOM     19  C   UNL     1       1.582   3.529  18.876  0.00  0.00    +0.000 C 
ATOM     20  C   UNL     1       0.599   2.348  18.823  0.00  0.00    +0.000 C 
ATOM     21  C   UNL     1       1.360   4.307  20.185  0.00  0.00    +0.000 C 
ATOM     22  C   UNL     1       1.328   4.479  17.698  0.00  0.00    +0.000 C 
ENDBRANCH  16  19
ENDBRANCH  14  15
ENDBRANCH   5  14
TORSDOF 4
ENDMDL
MODEL 8
REMARK VINA RESULT:      -6.9      1.745      5.992
REMARK  Name = 
REMARK  9 active torsions:
REMARK  status: ('A' for Active; 'I' for Inactive)
REMARK    1  A    between atoms: C_1  and  C_2
REMARK    2  A    between atoms: C_5  and  N_6
REMARK    3  A    between atoms: C_10  and  C_11
REMARK    4  A    between atoms: C_11  and  N_12
REMARK    5  A    between atoms: C_13  and  C_15
REMARK    6  A    between atoms: C_15  and  C_16
REMARK    7  A    between atoms: C_15  and  C_17
REMARK    8  A    between atoms: C_15  and  C_18
REMARK    9  A    between atoms: C_20  and  C_21
REMARK                            x       y       z     vdW  Elec       q    Type
REMARK                         _______ _______ _______ _____ _____    ______ ____
ROOT
ATOM      1  N   UNL     1       6.067   4.599  17.792  0.00  0.00    +0.000 N 
ATOM      2  N   UNL     1       7.142   4.342  18.569  0.00  0.00    +0.000 NA
ATOM      3  N   UNL     1       8.182   4.305  17.749  0.00  0.00    +0.000 NA
ATOM      4  N   UNL     1       7.817   4.652  16.476  0.00  0.00    +0.000 NA
ATOM      5  C   UNL     1       6.523   4.903  16.518  0.00  0.00    +0.000 A 
ENDROOT
BRANCH   1  10
ATOM      6  C   UNL     1       1.025   4.238  20.408  0.00  0.00    +0.000 C 
ATOM      7  C   UNL     1       2.271   4.397  19.581  0.00  0.00    +0.000 A 
ATOM      8  C   UNL     1       3.112   5.488  19.833  0.00  0.00    +0.000 A 
ATOM      9  C   UNL     1       4.349   5.588  19.205  0.00  0.00    +0.000 A 
ATOM     10  C   UNL     1       4.751   4.603  18.303  0.00  0.00    +0.000 A 
ATOM     11  C   UNL     1       3.865   3.583  17.935  0.00  0.00    +0.000 A 
ATOM     12  C   UNL     1       2.625   3.462  18.588  0.00  0.00    +0.000 A 
ATOM     13  C   UNL     1       1.728   2.301  18.255  0.00  0.00    +0.000 C 
ENDBRANCH   1  10
BRANCH   5  14
ATOM     14  C   UNL     1       5.741   5.629  15.488  0.00  0.00    +0.000 C 
BRANCH  14  15
ATOM     15  N   UNL     1       6.089   5.172  14.161  0.00  0.00    +0.000 N 
ATOM     16  C   UNL     1       5.726   3.900  13.756  0.00  0.00    +0.000 C 
ATOM     17  O   UNL     1       5.226   3.097  14.533  0.00  0.00    +0.000 OA
ATOM     18  H   UNL     1       6.345   5.863  13.470  0.00  0.00    +0.000 HD
BRANCH  16  19
ATOM     19  C   UNL     1       5.984   3.579  12.271  0.00  0.00    +0.000 C 
ATOM     20  C   UNL     1       7.093   4.492  11.723  0.00  0.00    +0.000 C 
ATOM     21  C   UNL     1       6.426   2.112  12.128  0.00  0.00    +0.000 C 
ATOM     22  C   UNL     1       4.692   3.777  11.467  0.00  0.00    +0.000 C 
ENDBRANCH  16  19
ENDBRANCH  14  15
ENDBRANCH   5  14
TORSDOF 4
ENDMDL
MODEL 9
REMARK VINA RESULT:      -6.9      2.834      6.334
REMARK  Name = 
REMARK  9 active torsions:
REMARK  status: ('A' for Active; 'I' for Inactive)
REMARK    1  A    between atoms: C_1  and  C_2
REMARK    2  A    between atoms: C_5  and  N_6
REMARK    3  A    between atoms: C_10  and  C_11
REMARK    4  A    between atoms: C_11  and  N_12
REMARK    5  A    between atoms: C_13  and  C_15
REMARK    6  A    between atoms: C_15  and  C_16
REMARK    7  A    between atoms: C_15  and  C_17
REMARK    8  A    between atoms: C_15  and  C_18
REMARK    9  A    between atoms: C_20  and  C_21
REMARK                            x       y       z     vdW  Elec       q    Type
REMARK                         _______ _______ _______ _____ _____    ______ ____
ROOT
ATOM      1  N   UNL     1       3.388   4.372  19.766  0.00  0.00    +0.000 N 
ATOM      2  N   UNL     1       2.779   3.458  20.552  0.00  0.00    +0.000 NA
ATOM      3  N   UNL     1       3.574   2.397  20.559  0.00  0.00    +0.000 NA
ATOM      4  N   UNL     1       4.740   2.653  19.889  0.00  0.00    +0.000 NA
ATOM      5  C   UNL     1       4.655   3.898  19.461  0.00  0.00    +0.000 A 
ENDROOT
BRANCH   1  10
ATOM      6  C   UNL     1       1.590   9.620  18.491  0.00  0.00    +0.000 C 
ATOM      7  C   UNL     1       1.898   8.188  18.830  0.00  0.00    +0.000 A 
ATOM      8  C   UNL     1       2.338   7.333  17.812  0.00  0.00    +0.000 A 
ATOM      9  C   UNL     1       2.785   6.050  18.109  0.00  0.00    +0.000 A 
ATOM     10  C   UNL     1       2.781   5.601  19.429  0.00  0.00    +0.000 A 
ATOM     11  C   UNL     1       2.213   6.390  20.437  0.00  0.00    +0.000 A 
ATOM     12  C   UNL     1       1.786   7.698  20.148  0.00  0.00    +0.000 A 
ATOM     13  C   UNL     1       1.275   8.570  21.262  0.00  0.00    +0.000 C 
ENDBRANCH   1  10
BRANCH   5  14
ATOM     14  C   UNL     1       5.783   4.735  18.984  0.00  0.00    +0.000 C 
BRANCH  14  15
ATOM     15  N   UNL     1       5.641   5.035  17.577  0.00  0.00    +0.000 N 
ATOM     16  C   UNL     1       6.686   4.772  16.709  0.00  0.00    +0.000 C 
ATOM     17  O   UNL     1       7.781   4.406  17.116  0.00  0.00    +0.000 OA
ATOM     18  H   UNL     1       4.709   5.175  17.210  0.00  0.00    +0.000 HD
BRANCH  16  19
ATOM     19  C   UNL     1       6.367   4.959  15.214  0.00  0.00    +0.000 C 
ATOM     20  C   UNL     1       5.360   6.106  15.032  0.00  0.00    +0.000 C 
ATOM     21  C   UNL     1       7.659   5.299  14.449  0.00  0.00    +0.000 C 
ATOM     22  C   UNL     1       5.792   3.657  14.640  0.00  0.00    +0.000 C 
ENDBRANCH  16  19
ENDBRANCH  14  15
ENDBRANCH   5  14
TORSDOF 4
ENDMDL
