MODEL 1
REMARK VINA RESULT:      -8.1      0.000      0.000
REMARK  Name = 
REMARK  8 active torsions:
REMARK  status: ('A' for Active; 'I' for Inactive)
REMARK    1  A    between atoms: C_1  and  O_2
REMARK    2  A    between atoms: O_2  and  C_3
REMARK    3  A    between atoms: C_8  and  C_9
REMARK    4  A    between atoms: C_9  and  N_10
REMARK    5  A    between atoms: C_15  and  C_16
REMARK    6  A    between atoms: C_15  and  C_17
REMARK    7  A    between atoms: N_19  and  C_20
REMARK    8  A    between atoms: C_20  and  C_21
REMARK                            x       y       z     vdW  Elec       q    Type
REMARK                         _______ _______ _______ _____ _____    ______ ____
ROOT
ATOM      1  N   UNL     1       3.370   3.140  19.512  0.00  0.00    +0.000 N 
ATOM      2  C   UNL     1       2.941   1.984  18.879  0.00  0.00    +0.000 C 
ATOM      3  O   UNL     1       3.641   1.139  18.350  0.00  0.00    +0.000 OA
ATOM      4  C   UNL     1       1.438   1.959  18.841  0.00  0.00    +0.000 C 
ATOM      5  C   UNL     1       0.996   3.255  19.507  0.00  0.00    +0.000 C 
ATOM      6  C   UNL     1       2.269   4.085  19.746  0.00  0.00    +0.000 C 
ATOM      7  C   UNL     1       2.262   4.607  21.190  0.00  0.00    +0.000 C 
ENDROOT
BRANCH   6   8
ATOM      8  C   UNL     1       2.308   5.301  18.763  0.00  0.00    +0.000 C 
ATOM      9  O   UNL     1       1.971   5.199  17.583  0.00  0.00    +0.000 OA
ATOM     10  N   UNL     1       2.832   6.478  19.259  0.00  0.00    +0.000 N 
ATOM     11  H   UNL     1       2.970   6.575  20.257  0.00  0.00    +0.000 HD
BRANCH  10  12
ATOM     12  C   UNL     1       2.768   7.689  18.465  0.00  0.00    +0.000 C 
BRANCH  12  13
ATOM     13  C   UNL     1       1.689   8.619  18.933  0.00  0.00    +0.000 A 
ATOM     14  C   UNL     1       1.054   9.513  18.067  0.00  0.00    +0.000 A 
ATOM     15  C   UNL     1       0.072  10.369  18.559  0.00  0.00    +0.000 A 
ATOM     16  C   UNL     1      -0.250  10.297  19.905  0.00  0.00    +0.000 A 
ATOM     17  N   UNL     1       0.334   9.440  20.769  0.00  0.00    +0.000 NA
ATOM     18  C   UNL     1       1.286   8.623  20.265  0.00  0.00    +0.000 A 
ENDBRANCH  12  13
ENDBRANCH  10  12
ENDBRANCH   6   8
BRANCH   1  19
ATOM     19  C   UNL     1       4.753   3.607  19.379  0.00  0.00    +0.000 C 
BRANCH  19  25
ATOM     20  C   UNL     1       5.888   5.412  17.965  0.00  0.00    +0.000 A 
ATOM     21  C   UNL     1       5.979   6.088  16.739  0.00  0.00    +0.000 A 
ATOM     22  C   UNL     1       5.467   5.523  15.574  0.00  0.00    +0.000 A 
ATOM     23  C   UNL     1       4.850   4.276  15.628  0.00  0.00    +0.000 A 
ATOM     24  C   UNL     1       4.690   3.632  16.852  0.00  0.00    +0.000 A 
ATOM     25  C   UNL     1       5.167   4.203  18.046  0.00  0.00    +0.000 A 
BRANCH  20  27
ATOM     26  C   UNL     1       7.841   5.821  19.234  0.00  0.00    +0.000 C 
ATOM     27  O   UNL     1       6.424   5.907  19.125  0.00  0.00    +0.000 OA
ENDBRANCH  20  27
ENDBRANCH  19  25
ENDBRANCH   1  19
TORSDOF 6
ENDMDL
MODEL 2
REMARK VINA RESULT:      -8.1      1.978      5.398
REMARK  Name = 
REMARK  8 active torsions:
REMARK  status: ('A' for Active; 'I' for Inactive)
REMARK    1  A    between atoms: C_1  and  O_2
REMARK    2  A    between atoms: O_2  and  C_3
REMARK    3  A    between atoms: C_8  and  C_9
REMARK    4  A    between atoms: C_9  and  N_10
REMARK    5  A    between atoms: C_15  and  C_16
REMARK    6  A    between atoms: C_15  and  C_17
REMARK    7  A    between atoms: N_19  and  C_20
REMARK    8  A    between atoms: C_20  and  C_21
REMARK                            x       y       z     vdW  Elec       q    Type
REMARK                         _______ _______ _______ _____ _____    ______ ____
ROOT
ATOM      1  N   UNL     1       2.042   4.142  20.009  0.00  0.00    +0.000 N 
ATOM      2  C   UNL     1       1.742   3.148  20.926  0.00  0.00    +0.000 C 
ATOM      3  O   UNL     1       1.783   3.238  22.140  0.00  0.00    +0.000 OA
ATOM      4  C   UNL     1       1.447   1.865  20.198  0.00  0.00    +0.000 C 
ATOM      5  C   UNL     1       1.626   2.188  18.721  0.00  0.00    +0.000 C 
ATOM      6  C   UNL     1       2.206   3.611  18.648  0.00  0.00    +0.000 C 
ATOM      7  C   UNL     1       1.409   4.424  17.619  0.00  0.00    +0.000 C 
ENDROOT
BRANCH   6   8
ATOM      8  C   UNL     1       3.706   3.557  18.207  0.00  0.00    +0.000 C 
ATOM      9  O   UNL     1       4.523   2.817  18.757  0.00  0.00    +0.000 OA
ATOM     10  N   UNL     1       4.094   4.451  17.229  0.00  0.00    +0.000 N 
ATOM     11  H   UNL     1       3.384   4.944  16.702  0.00  0.00    +0.000 HD
BRANCH  10  12
ATOM     12  C   UNL     1       5.423   4.367  16.658  0.00  0.00    +0.000 C 
BRANCH  12  13
ATOM     13  C   UNL     1       6.359   5.380  17.245  0.00  0.00    +0.000 A 
ATOM     14  C   UNL     1       7.057   5.146  18.432  0.00  0.00    +0.000 A 
ATOM     15  C   UNL     1       7.899   6.131  18.942  0.00  0.00    +0.000 A 
ATOM     16  C   UNL     1       8.023   7.320  18.242  0.00  0.00    +0.000 A 
ATOM     17  N   UNL     1       7.374   7.578  17.087  0.00  0.00    +0.000 NA
ATOM     18  C   UNL     1       6.561   6.606  16.615  0.00  0.00    +0.000 A 
ENDBRANCH  12  13
ENDBRANCH  10  12
ENDBRANCH   6   8
BRANCH   1  19
ATOM     19  C   UNL     1       2.712   5.378  20.425  0.00  0.00    +0.000 C 
BRANCH  19  25
ATOM     20  C   UNL     1       2.237   7.587  19.225  0.00  0.00    +0.000 A 
ATOM     21  C   UNL     1       1.741   8.898  19.287  0.00  0.00    +0.000 A 
ATOM     22  C   UNL     1       0.866   9.281  20.300  0.00  0.00    +0.000 A 
ATOM     23  C   UNL     1       0.487   8.356  21.268  0.00  0.00    +0.000 A 
ATOM     24  C   UNL     1       1.033   7.075  21.256  0.00  0.00    +0.000 A 
ATOM     25  C   UNL     1       1.947   6.678  20.263  0.00  0.00    +0.000 A 
BRANCH  20  27
ATOM     26  C   UNL     1       3.365   8.116  17.214  0.00  0.00    +0.000 C 
ATOM     27  O   UNL     1       3.057   7.152  18.217  0.00  0.00    +0.000 OA
ENDBRANCH  20  27
ENDBRANCH  19  25
ENDBRANCH   1  19
TORSDOF 6
ENDMDL
MODEL 3
REMARK VINA RESULT:      -7.8      1.659      4.119
REMARK  Name = 
REMARK  8 active torsions:
REMARK  status: ('A' for Active; 'I' for Inactive)
REMARK    1  A    between atoms: C_1  and  O_2
REMARK    2  A    between atoms: O_2  and  C_3
REMARK    3  A    between atoms: C_8  and  C_9
REMARK    4  A    between atoms: C_9  and  N_10
REMARK    5  A    between atoms: C_15  and  C_16
REMARK    6  A    between atoms: C_15  and  C_17
REMARK    7  A    between atoms: N_19  and  C_20
REMARK    8  A    between atoms: C_20  and  C_21
REMARK                            x       y       z     vdW  Elec       q    Type
REMARK                         _______ _______ _______ _____ _____    ______ ____
ROOT
ATOM      1  N   UNL     1       5.316   4.743  18.181  0.00  0.00    +0.000 N 
ATOM      2  C   UNL     1       6.636   4.560  17.801  0.00  0.00    +0.000 C 
ATOM      3  O   UNL     1       7.584   4.342  18.536  0.00  0.00    +0.000 OA
ATOM      4  C   UNL     1       6.768   4.773  16.318  0.00  0.00    +0.000 C 
ATOM      5  C   UNL     1       5.369   5.134  15.837  0.00  0.00    +0.000 C 
ATOM      6  C   UNL     1       4.499   5.302  17.094  0.00  0.00    +0.000 C 
ATOM      7  C   UNL     1       3.191   4.522  16.905  0.00  0.00    +0.000 C 
ENDROOT
BRANCH   6   8
ATOM      8  C   UNL     1       4.166   6.814  17.317  0.00  0.00    +0.000 C 
ATOM      9  O   UNL     1       5.037   7.685  17.300  0.00  0.00    +0.000 OA
ATOM     10  N   UNL     1       2.856   7.117  17.632  0.00  0.00    +0.000 N 
ATOM     11  H   UNL     1       2.142   6.411  17.505  0.00  0.00    +0.000 HD
BRANCH  10  12
ATOM     12  C   UNL     1       2.432   8.500  17.708  0.00  0.00    +0.000 C 
BRANCH  12  13
ATOM     13  C   UNL     1       1.611   8.778  18.931  0.00  0.00    +0.000 A 
ATOM     14  C   UNL     1       1.801   8.081  20.126  0.00  0.00    +0.000 A 
ATOM     15  C   UNL     1       0.997   8.366  21.226  0.00  0.00    +0.000 A 
ATOM     16  C   UNL     1       0.029   9.349  21.097  0.00  0.00    +0.000 A 
ATOM     17  N   UNL     1      -0.178  10.051  19.963  0.00  0.00    +0.000 NA
ATOM     18  C   UNL     1       0.616   9.752  18.910  0.00  0.00    +0.000 A 
ENDBRANCH  12  13
ENDBRANCH  10  12
ENDBRANCH   6   8
BRANCH   1  19
ATOM     19  C   UNL     1       4.955   4.953  19.585  0.00  0.00    +0.000 C 
BRANCH  19  25
ATOM     20  C   UNL     1       3.618   2.842  20.133  0.00  0.00    +0.000 A 
ATOM     21  C   UNL     1       2.366   2.234  20.316  0.00  0.00    +0.000 A 
ATOM     22  C   UNL     1       1.236   3.000  20.590  0.00  0.00    +0.000 A 
ATOM     23  C   UNL     1       1.346   4.385  20.673  0.00  0.00    +0.000 A 
ATOM     24  C   UNL     1       2.569   5.000  20.420  0.00  0.00    +0.000 A 
ATOM     25  C   UNL     1       3.716   4.248  20.104  0.00  0.00    +0.000 A 
BRANCH  20  27
ATOM     26  C   UNL     1       5.179   1.285  20.986  0.00  0.00    +0.000 C 
ATOM     27  O   UNL     1       4.764   2.125  19.914  0.00  0.00    +0.000 OA
ENDBRANCH  20  27
ENDBRANCH  19  25
ENDBRANCH   1  19
TORSDOF 6
ENDMDL
MODEL 4
REMARK VINA RESULT:      -7.8      1.598      4.177
REMARK  Name = 
REMARK  8 active torsions:
REMARK  status: ('A' for Active; 'I' for Inactive)
REMARK    1  A    between atoms: C_1  and  O_2
REMARK    2  A    between atoms: O_2  and  C_3
REMARK    3  A    between atoms: C_8  and  C_9
REMARK    4  A    between atoms: C_9  and  N_10
REMARK    5  A    between atoms: C_15  and  C_16
REMARK    6  A    between atoms: C_15  and  C_17
REMARK    7  A    between atoms: N_19  and  C_20
REMARK    8  A    between atoms: C_20  and  C_21
REMARK                            x       y       z     vdW  Elec       q    Type
REMARK                         _______ _______ _______ _____ _____    ______ ____
ROOT
ATOM      1  N   UNL     1       5.528   5.048  18.518  0.00  0.00    +0.000 N 
ATOM      2  C   UNL     1       6.804   5.311  18.989  0.00  0.00    +0.000 C 
ATOM      3  O   UNL     1       7.141   5.440  20.153  0.00  0.00    +0.000 OA
ATOM      4  C   UNL     1       7.736   5.525  17.828  0.00  0.00    +0.000 C 
ATOM      5  C   UNL     1       6.868   5.385  16.584  0.00  0.00    +0.000 C 
ATOM      6  C   UNL     1       5.413   5.278  17.070  0.00  0.00    +0.000 C 
ATOM      7  C   UNL     1       4.733   4.101  16.358  0.00  0.00    +0.000 C 
ENDROOT
BRANCH   6   8
ATOM      8  C   UNL     1       4.638   6.595  16.736  0.00  0.00    +0.000 C 
ATOM      9  O   UNL     1       4.833   7.221  15.693  0.00  0.00    +0.000 OA
ATOM     10  N   UNL     1       3.790   7.076  17.713  0.00  0.00    +0.000 N 
ATOM     11  H   UNL     1       3.544   6.478  18.492  0.00  0.00    +0.000 HD
BRANCH  10  12
ATOM     12  C   UNL     1       2.924   8.203  17.428  0.00  0.00    +0.000 C 
BRANCH  12  13
ATOM     13  C   UNL     1       2.066   8.572  18.600  0.00  0.00    +0.000 A 
ATOM     14  C   UNL     1       2.059   7.823  19.780  0.00  0.00    +0.000 A 
ATOM     15  C   UNL     1       1.227   8.201  20.831  0.00  0.00    +0.000 A 
ATOM     16  C   UNL     1       0.431   9.323  20.670  0.00  0.00    +0.000 A 
ATOM     17  N   UNL     1       0.418  10.078  19.551  0.00  0.00    +0.000 NA
ATOM     18  C   UNL     1       1.234   9.687  18.545  0.00  0.00    +0.000 A 
ENDBRANCH  12  13
ENDBRANCH  10  12
ENDBRANCH   6   8
BRANCH   1  19
ATOM     19  C   UNL     1       4.360   5.155  19.397  0.00  0.00    +0.000 C 
BRANCH  19  25
ATOM     20  C   UNL     1       3.681   2.690  19.486  0.00  0.00    +0.000 A 
ATOM     21  C   UNL     1       2.776   1.686  19.110  0.00  0.00    +0.000 A 
ATOM     22  C   UNL     1       1.487   2.008  18.694  0.00  0.00    +0.000 A 
ATOM     23  C   UNL     1       1.094   3.342  18.641  0.00  0.00    +0.000 A 
ATOM     24  C   UNL     1       2.009   4.348  18.942  0.00  0.00    +0.000 A 
ATOM     25  C   UNL     1       3.327   4.046  19.328  0.00  0.00    +0.000 A 
BRANCH  20  27
ATOM     26  C   UNL     1       5.019   1.420  20.966  0.00  0.00    +0.000 C 
ATOM     27  O   UNL     1       4.940   2.417  19.951  0.00  0.00    +0.000 OA
ENDBRANCH  20  27
ENDBRANCH  19  25
ENDBRANCH   1  19
TORSDOF 6
ENDMDL
MODEL 5
REMARK VINA RESULT:      -7.8      1.537      1.963
REMARK  Name = 
REMARK  8 active torsions:
REMARK  status: ('A' for Active; 'I' for Inactive)
REMARK    1  A    between atoms: C_1  and  O_2
REMARK    2  A    between atoms: O_2  and  C_3
REMARK    3  A    between atoms: C_8  and  C_9
REMARK    4  A    between atoms: C_9  and  N_10
REMARK    5  A    between atoms: C_15  and  C_16
REMARK    6  A    between atoms: C_15  and  C_17
REMARK    7  A    between atoms: N_19  and  C_20
REMARK    8  A    between atoms: C_20  and  C_21
REMARK                            x       y       z     vdW  Elec       q    Type
REMARK                         _______ _______ _______ _____ _____    ______ ____
ROOT
ATOM      1  N   UNL     1       3.148   3.597  18.529  0.00  0.00    +0.000 N 
ATOM      2  C   UNL     1       2.124   3.160  17.705  0.00  0.00    +0.000 C 
ATOM      3  O   UNL     1       1.908   3.511  16.558  0.00  0.00    +0.000 OA
ATOM      4  C   UNL     1       1.218   2.237  18.474  0.00  0.00    +0.000 C 
ATOM      5  C   UNL     1       1.800   2.180  19.880  0.00  0.00    +0.000 C 
ATOM      6  C   UNL     1       2.926   3.226  19.934  0.00  0.00    +0.000 C 
ATOM      7  C   UNL     1       4.174   2.585  20.558  0.00  0.00    +0.000 C 
ENDROOT
BRANCH   6   8
ATOM      8  C   UNL     1       2.485   4.445  20.809  0.00  0.00    +0.000 C 
ATOM      9  O   UNL     1       2.398   4.371  22.035  0.00  0.00    +0.000 OA
ATOM     10  N   UNL     1       2.102   5.585  20.131  0.00  0.00    +0.000 N 
ATOM     11  H   UNL     1       2.313   5.666  19.144  0.00  0.00    +0.000 HD
BRANCH  10  12
ATOM     12  C   UNL     1       1.823   6.803  20.864  0.00  0.00    +0.000 C 
BRANCH  12  13
ATOM     13  C   UNL     1       1.668   7.989  19.960  0.00  0.00    +0.000 A 
ATOM     14  C   UNL     1       2.216   8.019  18.675  0.00  0.00    +0.000 A 
ATOM     15  C   UNL     1       2.057   9.155  17.885  0.00  0.00    +0.000 A 
ATOM     16  C   UNL     1       1.347  10.225  18.404  0.00  0.00    +0.000 A 
ATOM     17  N   UNL     1       0.795  10.228  19.636  0.00  0.00    +0.000 NA
ATOM     18  C   UNL     1       0.966   9.114  20.382  0.00  0.00    +0.000 A 
ENDBRANCH  12  13
ENDBRANCH  10  12
ENDBRANCH   6   8
BRANCH   1  19
ATOM     19  C   UNL     1       3.960   4.764  18.173  0.00  0.00    +0.000 C 
BRANCH  19  25
ATOM     20  C   UNL     1       6.463   4.629  17.659  0.00  0.00    +0.000 A 
ATOM     21  C   UNL     1       7.496   4.735  16.716  0.00  0.00    +0.000 A 
ATOM     22  C   UNL     1       7.229   4.639  15.353  0.00  0.00    +0.000 A 
ATOM     23  C   UNL     1       5.921   4.445  14.920  0.00  0.00    +0.000 A 
ATOM     24  C   UNL     1       4.881   4.413  15.845  0.00  0.00    +0.000 A 
ATOM     25  C   UNL     1       5.124   4.545  17.224  0.00  0.00    +0.000 A 
BRANCH  20  27
ATOM     26  C   UNL     1       7.595   5.666  19.458  0.00  0.00    +0.000 C 
ATOM     27  O   UNL     1       6.686   4.665  19.010  0.00  0.00    +0.000 OA
ENDBRANCH  20  27
ENDBRANCH  19  25
ENDBRANCH   1  19
TORSDOF 6
ENDMDL
MODEL 6
REMARK VINA RESULT:      -7.7      2.333      5.972
REMARK  Name = 
REMARK  8 active torsions:
REMARK  status: ('A' for Active; 'I' for Inactive)
REMARK    1  A    between atoms: C_1  and  O_2
REMARK    2  A    between atoms: O_2  and  C_3
REMARK    3  A    between atoms: C_8  and  C_9
REMARK    4  A    between atoms: C_9  and  N_10
REMARK    5  A    between atoms: C_15  and  C_16
REMARK    6  A    between atoms: C_15  and  C_17
REMARK    7  A    between atoms: N_19  and  C_20
REMARK    8  A    between atoms: C_20  and  C_21
REMARK                            x       y       z     vdW  Elec       q    Type
REMARK                         _______ _______ _______ _____ _____    ______ ____
ROOT
ATOM      1  N   UNL     1       2.276   4.142  20.081  0.00  0.00    +0.000 N 
ATOM      2  C   UNL     1       1.847   3.169  20.970  0.00  0.00    +0.000 C 
ATOM      3  O   UNL     1       1.667   3.303  22.167  0.00  0.00    +0.000 OA
ATOM      4  C   UNL     1       1.727   1.851  20.255  0.00  0.00    +0.000 C 
ATOM      5  C   UNL     1       2.159   2.129  18.821  0.00  0.00    +0.000 C 
ATOM      6  C   UNL     1       2.697   3.570  18.794  0.00  0.00    +0.000 C 
ATOM      7  C   UNL     1       2.072   4.315  17.606  0.00  0.00    +0.000 C 
ENDROOT
BRANCH   6   8
ATOM      8  C   UNL     1       4.253   3.558  18.628  0.00  0.00    +0.000 C 
ATOM      9  O   UNL     1       4.979   2.852  19.330  0.00  0.00    +0.000 OA
ATOM     10  N   UNL     1       4.783   4.451  17.719  0.00  0.00    +0.000 N 
ATOM     11  H   UNL     1       4.166   4.913  17.064  0.00  0.00    +0.000 HD
BRANCH  10  12
ATOM     12  C   UNL     1       6.195   4.402  17.397  0.00  0.00    +0.000 C 
BRANCH  12  13
ATOM     13  C   UNL     1       6.445   4.474  15.920  0.00  0.00    +0.000 A 
ATOM     14  C   UNL     1       5.723   3.702  15.007  0.00  0.00    +0.000 A 
ATOM     15  C   UNL     1       6.010   3.795  13.647  0.00  0.00    +0.000 A 
ATOM     16  C   UNL     1       7.009   4.665  13.243  0.00  0.00    +0.000 A 
ATOM     17  N   UNL     1       7.721   5.434  14.095  0.00  0.00    +0.000 NA
ATOM     18  C   UNL     1       7.423   5.323  15.409  0.00  0.00    +0.000 A 
ENDBRANCH  12  13
ENDBRANCH  10  12
ENDBRANCH   6   8
BRANCH   1  19
ATOM     19  C   UNL     1       2.820   5.416  20.558  0.00  0.00    +0.000 C 
BRANCH  19  25
ATOM     20  C   UNL     1       2.288   7.505  19.180  0.00  0.00    +0.000 A 
ATOM     21  C   UNL     1       1.744   8.798  19.132  0.00  0.00    +0.000 A 
ATOM     22  C   UNL     1       0.839   9.226  20.099  0.00  0.00    +0.000 A 
ATOM     23  C   UNL     1       0.476   8.366  21.132  0.00  0.00    +0.000 A 
ATOM     24  C   UNL     1       1.068   7.109  21.228  0.00  0.00    +0.000 A 
ATOM     25  C   UNL     1       2.013   6.671  20.283  0.00  0.00    +0.000 A 
BRANCH  20  27
ATOM     26  C   UNL     1       3.647   7.991  17.307  0.00  0.00    +0.000 C 
ATOM     27  O   UNL     1       3.141   7.024  18.222  0.00  0.00    +0.000 OA
ENDBRANCH  20  27
ENDBRANCH  19  25
ENDBRANCH   1  19
TORSDOF 6
ENDMDL
MODEL 7
REMARK VINA RESULT:      -7.5      1.073      1.300
REMARK  Name = 
REMARK  8 active torsions:
REMARK  status: ('A' for Active; 'I' for Inactive)
REMARK    1  A    between atoms: C_1  and  O_2
REMARK    2  A    between atoms: O_2  and  C_3
REMARK    3  A    between atoms: C_8  and  C_9
REMARK    4  A    between atoms: C_9  and  N_10
REMARK    5  A    between atoms: C_15  and  C_16
REMARK    6  A    between atoms: C_15  and  C_17
REMARK    7  A    between atoms: N_19  and  C_20
REMARK    8  A    between atoms: C_20  and  C_21
REMARK                            x       y       z     vdW  Elec       q    Type
REMARK                         _______ _______ _______ _____ _____    ______ ____
ROOT
ATOM      1  N   UNL     1       3.446   3.509  19.338  0.00  0.00    +0.000 N 
ATOM      2  C   UNL     1       3.042   2.497  18.482  0.00  0.00    +0.000 C 
ATOM      3  O   UNL     1       3.744   1.874  17.705  0.00  0.00    +0.000 OA
ATOM      4  C   UNL     1       1.549   2.330  18.569  0.00  0.00    +0.000 C 
ATOM      5  C   UNL     1       1.083   3.383  19.566  0.00  0.00    +0.000 C 
ATOM      6  C   UNL     1       2.306   4.257  19.889  0.00  0.00    +0.000 C 
ATOM      7  C   UNL     1       2.415   4.422  21.411  0.00  0.00    +0.000 C 
ENDROOT
BRANCH   6   8
ATOM      8  C   UNL     1       2.146   5.668  19.232  0.00  0.00    +0.000 C 
ATOM      9  O   UNL     1       2.026   5.812  18.014  0.00  0.00    +0.000 OA
ATOM     10  N   UNL     1       2.242   6.756  20.076  0.00  0.00    +0.000 N 
ATOM     11  H   UNL     1       2.201   6.609  21.077  0.00  0.00    +0.000 HD
BRANCH  10  12
ATOM     12  C   UNL     1       1.957   8.086  19.576  0.00  0.00    +0.000 C 
BRANCH  12  13
ATOM     13  C   UNL     1       1.158   8.900  20.549  0.00  0.00    +0.000 A 
ATOM     14  C   UNL     1       0.148   9.771  20.133  0.00  0.00    +0.000 A 
ATOM     15  C   UNL     1      -0.550  10.519  21.078  0.00  0.00    +0.000 A 
ATOM     16  C   UNL     1      -0.219  10.364  22.415  0.00  0.00    +0.000 A 
ATOM     17  N   UNL     1       0.742   9.525  22.855  0.00  0.00    +0.000 NA
ATOM     18  C   UNL     1       1.406   8.814  21.916  0.00  0.00    +0.000 A 
ENDBRANCH  12  13
ENDBRANCH  10  12
ENDBRANCH   6   8
BRANCH   1  19
ATOM     19  C   UNL     1       4.766   4.131  19.204  0.00  0.00    +0.000 C 
BRANCH  19  25
ATOM     20  C   UNL     1       6.676   4.611  17.570  0.00  0.00    +0.000 A 
ATOM     21  C   UNL     1       7.081   5.075  16.310  0.00  0.00    +0.000 A 
ATOM     22  C   UNL     1       6.182   5.131  15.248  0.00  0.00    +0.000 A 
ATOM     23  C   UNL     1       4.863   4.731  15.441  0.00  0.00    +0.000 A 
ATOM     24  C   UNL     1       4.435   4.339  16.707  0.00  0.00    +0.000 A 
ATOM     25  C   UNL     1       5.318   4.311  17.802  0.00  0.00    +0.000 A 
BRANCH  20  27
ATOM     26  C   UNL     1       7.933   5.711  19.244  0.00  0.00    +0.000 C 
ATOM     27  O   UNL     1       7.538   4.490  18.628  0.00  0.00    +0.000 OA
ENDBRANCH  20  27
ENDBRANCH  19  25
ENDBRANCH   1  19
TORSDOF 6
ENDMDL
MODEL 8
REMARK VINA RESULT:      -7.5      1.614      2.471
REMARK  Name = 
REMARK  8 active torsions:
REMARK  status: ('A' for Active; 'I' for Inactive)
REMARK    1  A    between atoms: C_1  and  O_2
REMARK    2  A    between atoms: O_2  and  C_3
REMARK    3  A    between atoms: C_8  and  C_9
REMARK    4  A    between atoms: C_9  and  N_10
REMARK    5  A    between atoms: C_15  and  C_16
REMARK    6  A    between atoms: C_15  and  C_17
REMARK    7  A    between atoms: N_19  and  C_20
REMARK    8  A    between atoms: C_20  and  C_21
REMARK                            x       y       z     vdW  Elec       q    Type
REMARK                         _______ _______ _______ _____ _____    ______ ____
ROOT
ATOM      1  N   UNL     1       2.987   3.774  18.457  0.00  0.00    +0.000 N 
ATOM      2  C   UNL     1       2.282   2.904  17.641  0.00  0.00    +0.000 C 
ATOM      3  O   UNL     1       2.226   2.927  16.424  0.00  0.00    +0.000 OA
ATOM      4  C   UNL     1       1.483   1.953  18.490  0.00  0.00    +0.000 C 
ATOM      5  C   UNL     1       1.766   2.363  19.929  0.00  0.00    +0.000 C 
ATOM      6  C   UNL     1       2.580   3.667  19.865  0.00  0.00    +0.000 C 
ATOM      7  C   UNL     1       3.790   3.547  20.801  0.00  0.00    +0.000 C 
ENDROOT
BRANCH   6   8
ATOM      8  C   UNL     1       1.696   4.873  20.323  0.00  0.00    +0.000 C 
ATOM      9  O   UNL     1       0.474   4.780  20.443  0.00  0.00    +0.000 OA
ATOM     10  N   UNL     1       2.343   6.081  20.496  0.00  0.00    +0.000 N 
ATOM     11  H   UNL     1       3.354   6.099  20.528  0.00  0.00    +0.000 HD
BRANCH  10  12
ATOM     12  C   UNL     1       1.630   7.209  21.061  0.00  0.00    +0.000 C 
BRANCH  12  13
ATOM     13  C   UNL     1       1.493   8.341  20.088  0.00  0.00    +0.000 A 
ATOM     14  C   UNL     1       2.018   8.276  18.795  0.00  0.00    +0.000 A 
ATOM     15  C   UNL     1       1.879   9.365  17.939  0.00  0.00    +0.000 A 
ATOM     16  C   UNL     1       1.210  10.486  18.403  0.00  0.00    +0.000 A 
ATOM     17  N   UNL     1       0.680  10.582  19.641  0.00  0.00    +0.000 NA
ATOM     18  C   UNL     1       0.832   9.511  20.452  0.00  0.00    +0.000 A 
ENDBRANCH  12  13
ENDBRANCH  10  12
ENDBRANCH   6   8
BRANCH   1  19
ATOM     19  C   UNL     1       3.555   5.016  17.925  0.00  0.00    +0.000 C 
BRANCH  19  25
ATOM     20  C   UNL     1       5.852   4.644  16.861  0.00  0.00    +0.000 A 
ATOM     21  C   UNL     1       7.238   4.502  17.030  0.00  0.00    +0.000 A 
ATOM     22  C   UNL     1       7.867   4.963  18.183  0.00  0.00    +0.000 A 
ATOM     23  C   UNL     1       7.111   5.564  19.186  0.00  0.00    +0.000 A 
ATOM     24  C   UNL     1       5.726   5.642  19.059  0.00  0.00    +0.000 A 
ATOM     25  C   UNL     1       5.067   5.149  17.918  0.00  0.00    +0.000 A 
BRANCH  20  27
ATOM     26  C   UNL     1       6.036   3.925  14.616  0.00  0.00    +0.000 C 
ATOM     27  O   UNL     1       5.200   4.253  15.722  0.00  0.00    +0.000 OA
ENDBRANCH  20  27
ENDBRANCH  19  25
ENDBRANCH   1  19
TORSDOF 6
ENDMDL
MODEL 9
REMARK VINA RESULT:      -7.5      2.150      5.418
REMARK  Name = 
REMARK  8 active torsions:
REMARK  status: ('A' for Active; 'I' for Inactive)
REMARK    1  A    between atoms: C_1  and  O_2
REMARK    2  A    between atoms: O_2  and  C_3
REMARK    3  A    between atoms: C_8  and  C_9
REMARK    4  A    between atoms: C_9  and  N_10
REMARK    5  A    between atoms: C_15  and  C_16
REMARK    6  A    between atoms: C_15  and  C_17
REMARK    7  A    between atoms: N_19  and  C_20
REMARK    8  A    between atoms: C_20  and  C_21
REMARK                            x       y       z     vdW  Elec       q    Type
REMARK                         _______ _______ _______ _____ _____    ______ ____
ROOT
ATOM      1  N   UNL     1       1.948   4.641  19.784  0.00  0.00    +0.000 N 
ATOM      2  C   UNL     1       1.538   3.673  20.686  0.00  0.00    +0.000 C 
ATOM      3  O   UNL     1       1.544   3.758  21.902  0.00  0.00    +0.000 OA
ATOM      4  C   UNL     1       1.167   2.418  19.944  0.00  0.00    +0.000 C 
ATOM      5  C   UNL     1       1.423   2.728  18.475  0.00  0.00    +0.000 C 
ATOM      6  C   UNL     1       2.116   4.100  18.428  0.00  0.00    +0.000 C 
ATOM      7  C   UNL     1       1.421   4.975  17.375  0.00  0.00    +0.000 C 
ENDROOT
BRANCH   6   8
ATOM      8  C   UNL     1       3.620   3.928  18.037  0.00  0.00    +0.000 C 
ATOM      9  O   UNL     1       4.345   3.094  18.582  0.00  0.00    +0.000 OA
ATOM     10  N   UNL     1       4.125   4.824  17.117  0.00  0.00    +0.000 N 
ATOM     11  H   UNL     1       3.485   5.402  16.588  0.00  0.00    +0.000 HD
BRANCH  10  12
ATOM     12  C   UNL     1       5.463   4.643  16.590  0.00  0.00    +0.000 C 
BRANCH  12  13
ATOM     13  C   UNL     1       6.457   5.565  17.231  0.00  0.00    +0.000 A 
ATOM     14  C   UNL     1       7.170   5.205  18.377  0.00  0.00    +0.000 A 
ATOM     15  C   UNL     1       8.067   6.108  18.943  0.00  0.00    +0.000 A 
ATOM     16  C   UNL     1       8.227   7.344  18.337  0.00  0.00    +0.000 A 
ATOM     17  N   UNL     1       7.564   7.723  17.224  0.00  0.00    +0.000 NA
ATOM     18  C   UNL     1       6.698   6.828  16.697  0.00  0.00    +0.000 A 
ENDBRANCH  12  13
ENDBRANCH  10  12
ENDBRANCH   6   8
BRANCH   1  19
ATOM     19  C   UNL     1       2.698   5.820  20.228  0.00  0.00    +0.000 C 
BRANCH  19  25
ATOM     20  C   UNL     1       1.456   8.056  20.203  0.00  0.00    +0.000 A 
ATOM     21  C   UNL     1       0.919   9.117  19.456  0.00  0.00    +0.000 A 
ATOM     22  C   UNL     1       1.348   9.360  18.155  0.00  0.00    +0.000 A 
ATOM     23  C   UNL     1       2.314   8.537  17.583  0.00  0.00    +0.000 A 
ATOM     24  C   UNL     1       2.797   7.439  18.290  0.00  0.00    +0.000 A 
ATOM     25  C   UNL     1       2.350   7.153  19.592  0.00  0.00    +0.000 A 
BRANCH  20  27
ATOM     26  C   UNL     1       1.022   8.958  22.345  0.00  0.00    +0.000 C 
ATOM     27  O   UNL     1       1.101   7.812  21.503  0.00  0.00    +0.000 OA
ENDBRANCH  20  27
ENDBRANCH  19  25
ENDBRANCH   1  19
TORSDOF 6
ENDMDL
