MODEL 1
REMARK VINA RESULT:      -8.1      0.000      0.000
REMARK  Name = 
REMARK  6 active torsions:
REMARK  status: ('A' for Active; 'I' for Inactive)
REMARK    1  A    between atoms: C_1  and  C_2
REMARK    2  A    between atoms: C_5  and  C_6
REMARK    3  A    between atoms: C_7  and  C_8
REMARK    4  A    between atoms: C_8  and  N_9
REMARK    5  A    between atoms: C_11  and  N_12
REMARK    6  A    between atoms: C_13  and  C_15
REMARK                            x       y       z     vdW  Elec       q    Type
REMARK                         _______ _______ _______ _____ _____    ______ ____
ROOT
ATOM      1  N   UNL     1       1.826   6.803  20.378  0.00  0.00    +0.000 N 
ATOM      2  C   UNL     1       1.611   8.083  19.867  0.00  0.00    +0.000 C 
ATOM      3  O   UNL     1       1.910   8.463  18.731  0.00  0.00    +0.000 OA
ATOM      4  H   UNL     1       1.536   6.558  21.301  0.00  0.00    +0.000 HD
ENDROOT
BRANCH   2   5
ATOM      5  C   UNL     1       1.041   9.069  20.830  0.00  0.00    +0.000 A 
ATOM      6  C   UNL     1       0.809   8.596  22.126  0.00  0.00    +0.000 A 
ATOM      7  C   UNL     1       0.319   9.470  23.080  0.00  0.00    +0.000 A 
ATOM      8  C   UNL     1      -0.424  10.531  22.590  0.00  0.00    +0.000 A 
ATOM      9  N   UNL     1      -1.491  11.215  23.128  0.00  0.00    +0.000 N 
ATOM     10  C   UNL     1      -1.873  12.208  22.266  0.00  0.00    +0.000 A 
ATOM     11  C   UNL     1      -0.986  12.221  21.209  0.00  0.00    +0.000 A 
ATOM     12  C   UNL     1      -0.182  11.060  21.328  0.00  0.00    +0.000 A 
ATOM     13  C   UNL     1       0.734  10.393  20.490  0.00  0.00    +0.000 A 
ATOM     14  H   UNL     1      -2.016  10.907  23.934  0.00  0.00    +0.000 HD
ENDBRANCH   2   5
BRANCH   1  17
ATOM     15  N   UNL     1       4.098   4.560  18.835  0.00  0.00    +0.000 N 
ATOM     16  C   UNL     1       3.876   5.757  19.422  0.00  0.00    +0.000 A 
ATOM     17  C   UNL     1       2.541   5.813  19.699  0.00  0.00    +0.000 A 
ATOM     18  C   UNL     1       2.010   4.603  19.229  0.00  0.00    +0.000 A 
ATOM     19  N   UNL     1       2.997   3.822  18.720  0.00  0.00    +0.000 NA
BRANCH  15  20
ATOM     20  C   UNL     1       5.392   3.959  18.549  0.00  0.00    +0.000 C 
BRANCH  20  27
ATOM     21  C   UNL     1       5.321   4.324  15.298  0.00  0.00    +0.000 C 
ATOM     22  C   UNL     1       6.207   4.988  16.284  0.00  0.00    +0.000 A 
ATOM     23  N   UNL     1       7.150   5.838  15.862  0.00  0.00    +0.000 NA
ATOM     24  O   UNL     1       7.816   6.256  16.995  0.00  0.00    +0.000 OA
ATOM     25  C   UNL     1       7.282   5.651  18.087  0.00  0.00    +0.000 A 
ATOM     26  C   UNL     1       7.918   5.971  19.380  0.00  0.00    +0.000 C 
ATOM     27  C   UNL     1       6.239   4.835  17.699  0.00  0.00    +0.000 A 
ENDBRANCH  20  27
ENDBRANCH  15  20
ENDBRANCH   1  17
TORSDOF 4
ENDMDL
MODEL 2
REMARK VINA RESULT:      -8.0      2.277      2.674
REMARK  Name = 
REMARK  6 active torsions:
REMARK  status: ('A' for Active; 'I' for Inactive)
REMARK    1  A    between atoms: C_1  and  C_2
REMARK    2  A    between atoms: C_5  and  C_6
REMARK    3  A    between atoms: C_7  and  C_8
REMARK    4  A    between atoms: C_8  and  N_9
REMARK    5  A    between atoms: C_11  and  N_12
REMARK    6  A    between atoms: C_13  and  C_15
REMARK                            x       y       z     vdW  Elec       q    Type
REMARK                         _______ _______ _______ _____ _____    ______ ____
ROOT
ATOM      1  N   UNL     1       1.916   8.187  18.571  0.00  0.00    +0.000 N 
ATOM      2  C   UNL     1       1.296   8.901  19.596  0.00  0.00    +0.000 C 
ATOM      3  O   UNL     1       1.467   8.718  20.805  0.00  0.00    +0.000 OA
ATOM      4  H   UNL     1       1.748   8.406  17.611  0.00  0.00    +0.000 HD
ENDROOT
BRANCH   2   5
ATOM      5  C   UNL     1       0.292   9.912  19.156  0.00  0.00    +0.000 A 
ATOM      6  C   UNL     1      -0.023  10.907  20.088  0.00  0.00    +0.000 A 
ATOM      7  C   UNL     1      -0.918  11.900  19.730  0.00  0.00    +0.000 A 
ATOM      8  C   UNL     1      -1.838  11.549  18.757  0.00  0.00    +0.000 A 
ATOM      9  N   UNL     1      -3.141  11.950  18.555  0.00  0.00    +0.000 N 
ATOM     10  C   UNL     1      -3.635  11.335  17.436  0.00  0.00    +0.000 A 
ATOM     11  C   UNL     1      -2.613  10.607  16.862  0.00  0.00    +0.000 A 
ATOM     12  C   UNL     1      -1.537  10.605  17.784  0.00  0.00    +0.000 A 
ATOM     13  C   UNL     1      -0.326   9.892  17.899  0.00  0.00    +0.000 A 
ATOM     14  H   UNL     1      -3.689  12.462  19.231  0.00  0.00    +0.000 HD
ENDBRANCH   2   5
BRANCH   1  17
ATOM     15  N   UNL     1       4.352   5.626  18.855  0.00  0.00    +0.000 N 
ATOM     16  C   UNL     1       3.943   6.770  18.262  0.00  0.00    +0.000 A 
ATOM     17  C   UNL     1       2.719   7.065  18.791  0.00  0.00    +0.000 A 
ATOM     18  C   UNL     1       2.444   6.031  19.697  0.00  0.00    +0.000 A 
ATOM     19  N   UNL     1       3.482   5.158  19.746  0.00  0.00    +0.000 NA
BRANCH  15  20
ATOM     20  C   UNL     1       5.677   5.031  18.771  0.00  0.00    +0.000 C 
BRANCH  20  27
ATOM     21  C   UNL     1       5.493   3.745  15.768  0.00  0.00    +0.000 C 
ATOM     22  C   UNL     1       6.319   4.882  16.239  0.00  0.00    +0.000 A 
ATOM     23  N   UNL     1       7.151   5.494  15.388  0.00  0.00    +0.000 NA
ATOM     24  O   UNL     1       7.791   6.470  16.121  0.00  0.00    +0.000 OA
ATOM     25  C   UNL     1       7.354   6.436  17.406  0.00  0.00    +0.000 A 
ATOM     26  C   UNL     1       7.978   7.403  18.329  0.00  0.00    +0.000 C 
ATOM     27  C   UNL     1       6.401   5.447  17.543  0.00  0.00    +0.000 A 
ENDBRANCH  20  27
ENDBRANCH  15  20
ENDBRANCH   1  17
TORSDOF 4
ENDMDL
MODEL 3
REMARK VINA RESULT:      -7.9      1.076      1.174
REMARK  Name = 
REMARK  6 active torsions:
REMARK  status: ('A' for Active; 'I' for Inactive)
REMARK    1  A    between atoms: C_1  and  C_2
REMARK    2  A    between atoms: C_5  and  C_6
REMARK    3  A    between atoms: C_7  and  C_8
REMARK    4  A    between atoms: C_8  and  N_9
REMARK    5  A    between atoms: C_11  and  N_12
REMARK    6  A    between atoms: C_13  and  C_15
REMARK                            x       y       z     vdW  Elec       q    Type
REMARK                         _______ _______ _______ _____ _____    ______ ____
ROOT
ATOM      1  N   UNL     1       2.049   6.650  19.325  0.00  0.00    +0.000 N 
ATOM      2  C   UNL     1       1.699   7.924  18.882  0.00  0.00    +0.000 C 
ATOM      3  O   UNL     1       1.748   8.318  17.712  0.00  0.00    +0.000 OA
ATOM      4  H   UNL     1       1.961   6.392  20.285  0.00  0.00    +0.000 HD
ENDROOT
BRANCH   2   5
ATOM      5  C   UNL     1       1.310   8.890  19.950  0.00  0.00    +0.000 A 
ATOM      6  C   UNL     1       1.297   8.385  21.255  0.00  0.00    +0.000 A 
ATOM      7  C   UNL     1       0.983   9.238  22.299  0.00  0.00    +0.000 A 
ATOM      8  C   UNL     1       0.179  10.315  21.967  0.00  0.00    +0.000 A 
ATOM      9  N   UNL     1      -0.775  10.992  22.695  0.00  0.00    +0.000 N 
ATOM     10  C   UNL     1      -1.288  12.008  21.933  0.00  0.00    +0.000 A 
ATOM     11  C   UNL     1      -0.593  12.043  20.742  0.00  0.00    +0.000 A 
ATOM     12  C   UNL     1       0.209  10.874  20.695  0.00  0.00    +0.000 A 
ATOM     13  C   UNL     1       0.963  10.223  19.698  0.00  0.00    +0.000 A 
ATOM     14  H   UNL     1      -1.159  10.667  23.570  0.00  0.00    +0.000 HD
ENDBRANCH   2   5
BRANCH   1  17
ATOM     15  N   UNL     1       4.030   4.388  17.444  0.00  0.00    +0.000 N 
ATOM     16  C   UNL     1       3.954   5.515  18.187  0.00  0.00    +0.000 A 
ATOM     17  C   UNL     1       2.637   5.684  18.505  0.00  0.00    +0.000 A 
ATOM     18  C   UNL     1       1.967   4.612  17.897  0.00  0.00    +0.000 A 
ATOM     19  N   UNL     1       2.851   3.800  17.265  0.00  0.00    +0.000 NA
BRANCH  15  20
ATOM     20  C   UNL     1       5.244   3.690  17.048  0.00  0.00    +0.000 C 
BRANCH  20  27
ATOM     21  C   UNL     1       5.744   3.873  13.820  0.00  0.00    +0.000 C 
ATOM     22  C   UNL     1       6.397   4.647  14.902  0.00  0.00    +0.000 A 
ATOM     23  N   UNL     1       7.352   5.534  14.601  0.00  0.00    +0.000 NA
ATOM     24  O   UNL     1       7.777   6.056  15.804  0.00  0.00    +0.000 OA
ATOM     25  C   UNL     1       7.089   5.477  16.821  0.00  0.00    +0.000 A 
ATOM     26  C   UNL     1       7.460   5.907  18.182  0.00  0.00    +0.000 C 
ATOM     27  C   UNL     1       6.181   4.573  16.308  0.00  0.00    +0.000 A 
ENDBRANCH  20  27
ENDBRANCH  15  20
ENDBRANCH   1  17
TORSDOF 4
ENDMDL
MODEL 4
REMARK VINA RESULT:      -7.9      1.523      1.852
REMARK  Name = 
REMARK  6 active torsions:
REMARK  status: ('A' for Active; 'I' for Inactive)
REMARK    1  A    between atoms: C_1  and  C_2
REMARK    2  A    between atoms: C_5  and  C_6
REMARK    3  A    between atoms: C_7  and  C_8
REMARK    4  A    between atoms: C_8  and  N_9
REMARK    5  A    between atoms: C_11  and  N_12
REMARK    6  A    between atoms: C_13  and  C_15
REMARK                            x       y       z     vdW  Elec       q    Type
REMARK                         _______ _______ _______ _____ _____    ______ ____
ROOT
ATOM      1  N   UNL     1       2.866   7.190  19.248  0.00  0.00    +0.000 N 
ATOM      2  C   UNL     1       1.881   7.275  20.231  0.00  0.00    +0.000 C 
ATOM      3  O   UNL     1       1.470   6.336  20.920  0.00  0.00    +0.000 OA
ATOM      4  H   UNL     1       3.167   7.998  18.744  0.00  0.00    +0.000 HD
ENDROOT
BRANCH   2   5
ATOM      5  C   UNL     1       1.240   8.613  20.382  0.00  0.00    +0.000 A 
ATOM      6  C   UNL     1       0.785   8.931  21.667  0.00  0.00    +0.000 A 
ATOM      7  C   UNL     1       0.215  10.174  21.886  0.00  0.00    +0.000 A 
ATOM      8  C   UNL     1      -0.372  10.763  20.779  0.00  0.00    +0.000 A 
ATOM      9  N   UNL     1      -1.459  11.601  20.670  0.00  0.00    +0.000 N 
ATOM     10  C   UNL     1      -1.640  11.938  19.354  0.00  0.00    +0.000 A 
ATOM     11  C   UNL     1      -0.605  11.388  18.626  0.00  0.00    +0.000 A 
ATOM     12  C   UNL     1       0.092  10.510  19.495  0.00  0.00    +0.000 A 
ATOM     13  C   UNL     1       1.078   9.516  19.325  0.00  0.00    +0.000 A 
ATOM     14  H   UNL     1      -2.119  11.777  21.414  0.00  0.00    +0.000 HD
ENDBRANCH   2   5
BRANCH   1  17
ATOM     15  N   UNL     1       4.317   4.373  17.656  0.00  0.00    +0.000 N 
ATOM     16  C   UNL     1       3.690   5.566  17.546  0.00  0.00    +0.000 A 
ATOM     17  C   UNL     1       3.424   5.983  18.818  0.00  0.00    +0.000 A 
ATOM     18  C   UNL     1       3.912   4.969  19.655  0.00  0.00    +0.000 A 
ATOM     19  N   UNL     1       4.489   3.987  18.917  0.00  0.00    +0.000 NA
BRANCH  15  20
ATOM     20  C   UNL     1       4.977   3.638  16.587  0.00  0.00    +0.000 C 
BRANCH  20  27
ATOM     21  C   UNL     1       5.646   3.829  13.390  0.00  0.00    +0.000 C 
ATOM     22  C   UNL     1       6.307   4.530  14.517  0.00  0.00    +0.000 A 
ATOM     23  N   UNL     1       7.345   5.340  14.277  0.00  0.00    +0.000 NA
ATOM     24  O   UNL     1       7.752   5.806  15.509  0.00  0.00    +0.000 OA
ATOM     25  C   UNL     1       6.971   5.270  16.481  0.00  0.00    +0.000 A 
ATOM     26  C   UNL     1       7.310   5.648  17.867  0.00  0.00    +0.000 C 
ATOM     27  C   UNL     1       6.018   4.452  15.909  0.00  0.00    +0.000 A 
ENDBRANCH  20  27
ENDBRANCH  15  20
ENDBRANCH   1  17
TORSDOF 4
ENDMDL
MODEL 5
REMARK VINA RESULT:      -7.8      1.457      2.135
REMARK  Name = 
REMARK  6 active torsions:
REMARK  status: ('A' for Active; 'I' for Inactive)
REMARK    1  A    between atoms: C_1  and  C_2
REMARK    2  A    between atoms: C_5  and  C_6
REMARK    3  A    between atoms: C_7  and  C_8
REMARK    4  A    between atoms: C_8  and  N_9
REMARK    5  A    between atoms: C_11  and  N_12
REMARK    6  A    between atoms: C_13  and  C_15
REMARK                            x       y       z     vdW  Elec       q    Type
REMARK                         _______ _______ _______ _____ _____    ______ ____
ROOT
ATOM      1  N   UNL     1       2.230   6.397  18.906  0.00  0.00    +0.000 N 
ATOM      2  C   UNL     1       2.413   7.729  18.537  0.00  0.00    +0.000 C 
ATOM      3  O   UNL     1       3.344   8.164  17.851  0.00  0.00    +0.000 OA
ATOM      4  H   UNL     1       1.439   6.112  19.444  0.00  0.00    +0.000 HD
ENDROOT
BRANCH   2   5
ATOM      5  C   UNL     1       1.423   8.692  19.099  0.00  0.00    +0.000 A 
ATOM      6  C   UNL     1       1.053   9.749  18.260  0.00  0.00    +0.000 A 
ATOM      7  C   UNL     1       0.108  10.657  18.705  0.00  0.00    +0.000 A 
ATOM      8  C   UNL     1       0.024  10.804  20.079  0.00  0.00    +0.000 A 
ATOM      9  N   UNL     1      -0.292  11.897  20.855  0.00  0.00    +0.000 N 
ATOM     10  C   UNL     1      -0.262  11.538  22.177  0.00  0.00    +0.000 A 
ATOM     11  C   UNL     1      -0.017  10.182  22.245  0.00  0.00    +0.000 A 
ATOM     12  C   UNL     1       0.331   9.757  20.938  0.00  0.00    +0.000 A 
ATOM     13  C   UNL     1       0.883   8.582  20.387  0.00  0.00    +0.000 A 
ATOM     14  H   UNL     1      -0.346  12.844  20.509  0.00  0.00    +0.000 HD
ENDBRANCH   2   5
BRANCH   1  17
ATOM     15  N   UNL     1       4.577   4.012  17.733  0.00  0.00    +0.000 N 
ATOM     16  C   UNL     1       3.597   4.900  17.456  0.00  0.00    +0.000 A 
ATOM     17  C   UNL     1       3.168   5.393  18.655  0.00  0.00    +0.000 A 
ATOM     18  C   UNL     1       3.936   4.734  19.626  0.00  0.00    +0.000 A 
ATOM     19  N   UNL     1       4.828   3.899  19.035  0.00  0.00    +0.000 NA
BRANCH  15  20
ATOM     20  C   UNL     1       5.476   3.385  16.776  0.00  0.00    +0.000 C 
BRANCH  20  27
ATOM     21  C   UNL     1       5.963   3.701  13.556  0.00  0.00    +0.000 C 
ATOM     22  C   UNL     1       6.528   4.512  14.661  0.00  0.00    +0.000 A 
ATOM     23  N   UNL     1       7.385   5.502  14.387  0.00  0.00    +0.000 NA
ATOM     24  O   UNL     1       7.750   6.035  15.605  0.00  0.00    +0.000 OA
ATOM     25  C   UNL     1       7.124   5.361  16.603  0.00  0.00    +0.000 A 
ATOM     26  C   UNL     1       7.444   5.793  17.977  0.00  0.00    +0.000 C 
ATOM     27  C   UNL     1       6.317   4.380  16.063  0.00  0.00    +0.000 A 
ENDBRANCH  20  27
ENDBRANCH  15  20
ENDBRANCH   1  17
TORSDOF 4
ENDMDL
MODEL 6
REMARK VINA RESULT:      -7.8      1.482      1.978
REMARK  Name = 
REMARK  6 active torsions:
REMARK  status: ('A' for Active; 'I' for Inactive)
REMARK    1  A    between atoms: C_1  and  C_2
REMARK    2  A    between atoms: C_5  and  C_6
REMARK    3  A    between atoms: C_7  and  C_8
REMARK    4  A    between atoms: C_8  and  N_9
REMARK    5  A    between atoms: C_11  and  N_12
REMARK    6  A    between atoms: C_13  and  C_15
REMARK                            x       y       z     vdW  Elec       q    Type
REMARK                         _______ _______ _______ _____ _____    ______ ____
ROOT
ATOM      1  N   UNL     1       2.661   7.280  19.146  0.00  0.00    +0.000 N 
ATOM      2  C   UNL     1       1.728   7.359  20.179  0.00  0.00    +0.000 C 
ATOM      3  O   UNL     1       1.455   6.452  20.973  0.00  0.00    +0.000 OA
ATOM      4  H   UNL     1       2.849   8.063  18.556  0.00  0.00    +0.000 HD
ENDROOT
BRANCH   2   5
ATOM      5  C   UNL     1       0.961   8.635  20.254  0.00  0.00    +0.000 A 
ATOM      6  C   UNL     1       1.166   9.535  19.201  0.00  0.00    +0.000 A 
ATOM      7  C   UNL     1       0.455  10.722  19.187  0.00  0.00    +0.000 A 
ATOM      8  C   UNL     1       0.054  11.190  20.427  0.00  0.00    +0.000 A 
ATOM      9  N   UNL     1      -0.115  12.472  20.900  0.00  0.00    +0.000 N 
ATOM     10  C   UNL     1      -0.551  12.423  22.197  0.00  0.00    +0.000 A 
ATOM     11  C   UNL     1      -0.754  11.099  22.529  0.00  0.00    +0.000 A 
ATOM     12  C   UNL     1      -0.211  10.319  21.477  0.00  0.00    +0.000 A 
ATOM     13  C   UNL     1       0.088   8.953  21.302  0.00  0.00    +0.000 A 
ATOM     14  H   UNL     1       0.213  13.301  20.425  0.00  0.00    +0.000 HD
ENDBRANCH   2   5
BRANCH   1  17
ATOM     15  N   UNL     1       4.332   4.495  17.722  0.00  0.00    +0.000 N 
ATOM     16  C   UNL     1       3.601   5.618  17.543  0.00  0.00    +0.000 A 
ATOM     17  C   UNL     1       3.317   6.099  18.789  0.00  0.00    +0.000 A 
ATOM     18  C   UNL     1       3.904   5.191  19.683  0.00  0.00    +0.000 A 
ATOM     19  N   UNL     1       4.555   4.214  19.002  0.00  0.00    +0.000 NA
BRANCH  15  20
ATOM     20  C   UNL     1       5.040   3.748  16.693  0.00  0.00    +0.000 C 
BRANCH  20  27
ATOM     21  C   UNL     1       5.785   3.800  13.508  0.00  0.00    +0.000 C 
ATOM     22  C   UNL     1       6.377   4.596  14.610  0.00  0.00    +0.000 A 
ATOM     23  N   UNL     1       7.377   5.446  14.351  0.00  0.00    +0.000 NA
ATOM     24  O   UNL     1       7.726   6.000  15.564  0.00  0.00    +0.000 OA
ATOM     25  C   UNL     1       6.947   5.476  16.545  0.00  0.00    +0.000 A 
ATOM     26  C   UNL     1       7.227   5.947  17.915  0.00  0.00    +0.000 C 
ATOM     27  C   UNL     1       6.054   4.578  15.996  0.00  0.00    +0.000 A 
ENDBRANCH  20  27
ENDBRANCH  15  20
ENDBRANCH   1  17
TORSDOF 4
ENDMDL
MODEL 7
REMARK VINA RESULT:      -7.8      4.148      7.752
REMARK  Name = 
REMARK  6 active torsions:
REMARK  status: ('A' for Active; 'I' for Inactive)
REMARK    1  A    between atoms: C_1  and  C_2
REMARK    2  A    between atoms: C_5  and  C_6
REMARK    3  A    between atoms: C_7  and  C_8
REMARK    4  A    between atoms: C_8  and  N_9
REMARK    5  A    between atoms: C_11  and  N_12
REMARK    6  A    between atoms: C_13  and  C_15
REMARK                            x       y       z     vdW  Elec       q    Type
REMARK                         _______ _______ _______ _____ _____    ______ ____
ROOT
ATOM      1  N   UNL     1       7.134   8.005  17.262  0.00  0.00    +0.000 N 
ATOM      2  C   UNL     1       8.124   8.191  18.226  0.00  0.00    +0.000 C 
ATOM      3  O   UNL     1       8.569   7.317  18.977  0.00  0.00    +0.000 OA
ATOM      4  H   UNL     1       6.839   8.754  16.672  0.00  0.00    +0.000 HD
ENDROOT
BRANCH   2   5
ATOM      5  C   UNL     1       8.607   9.592  18.388  0.00  0.00    +0.000 A 
ATOM      6  C   UNL     1       8.080  10.528  17.491  0.00  0.00    +0.000 A 
ATOM      7  C   UNL     1       8.455  11.855  17.610  0.00  0.00    +0.000 A 
ATOM      8  C   UNL     1       9.695  12.073  18.186  0.00  0.00    +0.000 A 
ATOM      9  N   UNL     1      10.631  13.060  17.973  0.00  0.00    +0.000 N 
ATOM     10  C   UNL     1      11.699  12.859  18.808  0.00  0.00    +0.000 A 
ATOM     11  C   UNL     1      11.404  11.789  19.628  0.00  0.00    +0.000 A 
ATOM     12  C   UNL     1      10.222  11.192  19.122  0.00  0.00    +0.000 A 
ATOM     13  C   UNL     1       9.537   9.983  19.359  0.00  0.00    +0.000 A 
ATOM     14  H   UNL     1      10.610  13.707  17.198  0.00  0.00    +0.000 HD
ENDBRANCH   2   5
BRANCH   1  17
ATOM     15  N   UNL     1       4.875   5.277  17.093  0.00  0.00    +0.000 N 
ATOM     16  C   UNL     1       5.168   6.506  17.574  0.00  0.00    +0.000 A 
ATOM     17  C   UNL     1       6.415   6.816  17.115  0.00  0.00    +0.000 A 
ATOM     18  C   UNL     1       6.825   5.704  16.365  0.00  0.00    +0.000 A 
ATOM     19  N   UNL     1       5.843   4.767  16.338  0.00  0.00    +0.000 NA
BRANCH  15  20
ATOM     20  C   UNL     1       3.581   4.612  17.140  0.00  0.00    +0.000 C 
BRANCH  20  27
ATOM     21  C   UNL     1       3.666   1.570  18.341  0.00  0.00    +0.000 C 
ATOM     22  C   UNL     1       3.275   2.825  19.027  0.00  0.00    +0.000 A 
ATOM     23  N   UNL     1       2.859   2.784  20.298  0.00  0.00    +0.000 NA
ATOM     24  O   UNL     1       2.543   4.083  20.634  0.00  0.00    +0.000 OA
ATOM     25  C   UNL     1       2.758   4.895  19.567  0.00  0.00    +0.000 A 
ATOM     26  C   UNL     1       2.428   6.320  19.761  0.00  0.00    +0.000 C 
ATOM     27  C   UNL     1       3.240   4.151  18.510  0.00  0.00    +0.000 A 
ENDBRANCH  20  27
ENDBRANCH  15  20
ENDBRANCH   1  17
TORSDOF 4
ENDMDL
MODEL 8
REMARK VINA RESULT:      -7.8      3.282      4.522
REMARK  Name = 
REMARK  6 active torsions:
REMARK  status: ('A' for Active; 'I' for Inactive)
REMARK    1  A    between atoms: C_1  and  C_2
REMARK    2  A    between atoms: C_5  and  C_6
REMARK    3  A    between atoms: C_7  and  C_8
REMARK    4  A    between atoms: C_8  and  N_9
REMARK    5  A    between atoms: C_11  and  N_12
REMARK    6  A    between atoms: C_13  and  C_15
REMARK                            x       y       z     vdW  Elec       q    Type
REMARK                         _______ _______ _______ _____ _____    ______ ____
ROOT
ATOM      1  N   UNL     1       1.642   8.641  17.944  0.00  0.00    +0.000 N 
ATOM      2  C   UNL     1       1.051   9.438  18.923  0.00  0.00    +0.000 C 
ATOM      3  O   UNL     1       1.367   9.465  20.117  0.00  0.00    +0.000 OA
ATOM      4  H   UNL     1       1.351   8.689  16.990  0.00  0.00    +0.000 HD
ENDROOT
BRANCH   2   5
ATOM      5  C   UNL     1      -0.107  10.259  18.467  0.00  0.00    +0.000 A 
ATOM      6  C   UNL     1      -0.195  11.547  19.008  0.00  0.00    +0.000 A 
ATOM      7  C   UNL     1      -1.224  12.377  18.597  0.00  0.00    +0.000 A 
ATOM      8  C   UNL     1      -2.368  11.733  18.156  0.00  0.00    +0.000 A 
ATOM      9  N   UNL     1      -3.695  12.096  18.228  0.00  0.00    +0.000 N 
ATOM     10  C   UNL     1      -4.460  11.131  17.627  0.00  0.00    +0.000 A 
ATOM     11  C   UNL     1      -3.611  10.189  17.085  0.00  0.00    +0.000 A 
ATOM     12  C   UNL     1      -2.309  10.478  17.565  0.00  0.00    +0.000 A 
ATOM     13  C   UNL     1      -1.073   9.800  17.562  0.00  0.00    +0.000 A 
ATOM     14  H   UNL     1      -4.049  12.852  18.796  0.00  0.00    +0.000 HD
ENDBRANCH   2   5
BRANCH   1  17
ATOM     15  N   UNL     1       3.653   5.905  18.967  0.00  0.00    +0.000 N 
ATOM     16  C   UNL     1       2.541   6.652  19.149  0.00  0.00    +0.000 A 
ATOM     17  C   UNL     1       2.592   7.656  18.224  0.00  0.00    +0.000 A 
ATOM     18  C   UNL     1       3.789   7.455  17.521  0.00  0.00    +0.000 A 
ATOM     19  N   UNL     1       4.423   6.345  17.977  0.00  0.00    +0.000 NA
BRANCH  15  20
ATOM     20  C   UNL     1       3.939   4.614  19.574  0.00  0.00    +0.000 C 
BRANCH  20  27
ATOM     21  C   UNL     1       2.842   3.376  16.751  0.00  0.00    +0.000 C 
ATOM     22  C   UNL     1       2.364   3.105  18.128  0.00  0.00    +0.000 A 
ATOM     23  N   UNL     1       1.328   2.281  18.319  0.00  0.00    +0.000 NA
ATOM     24  O   UNL     1       1.108   2.260  19.680  0.00  0.00    +0.000 OA
ATOM     25  C   UNL     1       1.999   3.077  20.298  0.00  0.00    +0.000 A 
ATOM     26  C   UNL     1       1.866   3.190  21.763  0.00  0.00    +0.000 C 
ATOM     27  C   UNL     1       2.840   3.639  19.359  0.00  0.00    +0.000 A 
ENDBRANCH  20  27
ENDBRANCH  15  20
ENDBRANCH   1  17
TORSDOF 4
ENDMDL
MODEL 9
REMARK VINA RESULT:      -7.8      1.281      1.377
REMARK  Name = 
REMARK  6 active torsions:
REMARK  status: ('A' for Active; 'I' for Inactive)
REMARK    1  A    between atoms: C_1  and  C_2
REMARK    2  A    between atoms: C_5  and  C_6
REMARK    3  A    between atoms: C_7  and  C_8
REMARK    4  A    between atoms: C_8  and  N_9
REMARK    5  A    between atoms: C_11  and  N_12
REMARK    6  A    between atoms: C_13  and  C_15
REMARK                            x       y       z     vdW  Elec       q    Type
REMARK                         _______ _______ _______ _____ _____    ______ ____
ROOT
ATOM      1  N   UNL     1       2.243   7.653  19.107  0.00  0.00    +0.000 N 
ATOM      2  C   UNL     1       1.620   7.615  20.354  0.00  0.00    +0.000 C 
ATOM      3  O   UNL     1       1.505   6.616  21.071  0.00  0.00    +0.000 OA
ATOM      4  H   UNL     1       2.320   8.504  18.592  0.00  0.00    +0.000 HD
ENDROOT
BRANCH   2   5
ATOM      5  C   UNL     1       0.982   8.891  20.790  0.00  0.00    +0.000 A 
ATOM      6  C   UNL     1       0.518   8.923  22.110  0.00  0.00    +0.000 A 
ATOM      7  C   UNL     1      -0.049  10.089  22.592  0.00  0.00    +0.000 A 
ATOM      8  C   UNL     1      -0.626  10.910  21.637  0.00  0.00    +0.000 A 
ATOM      9  N   UNL     1      -1.710  11.756  21.707  0.00  0.00    +0.000 N 
ATOM     10  C   UNL     1      -1.879  12.374  20.496  0.00  0.00    +0.000 A 
ATOM     11  C   UNL     1      -0.841  11.992  19.672  0.00  0.00    +0.000 A 
ATOM     12  C   UNL     1      -0.153  10.942  20.332  0.00  0.00    +0.000 A 
ATOM     13  C   UNL     1       0.830  10.004  19.955  0.00  0.00    +0.000 A 
ATOM     14  H   UNL     1      -2.374  11.769  22.467  0.00  0.00    +0.000 HD
ENDBRANCH   2   5
BRANCH   1  17
ATOM     15  N   UNL     1       3.931   4.951  17.549  0.00  0.00    +0.000 N 
ATOM     16  C   UNL     1       3.981   6.197  18.071  0.00  0.00    +0.000 A 
ATOM     17  C   UNL     1       2.707   6.514  18.443  0.00  0.00    +0.000 A 
ATOM     18  C   UNL     1       1.928   5.402  18.095  0.00  0.00    +0.000 A 
ATOM     19  N   UNL     1       2.709   4.426  17.565  0.00  0.00    +0.000 NA
BRANCH  15  20
ATOM     20  C   UNL     1       5.066   4.108  17.206  0.00  0.00    +0.000 C 
BRANCH  20  27
ATOM     21  C   UNL     1       5.517   3.969  13.969  0.00  0.00    +0.000 C 
ATOM     22  C   UNL     1       6.265   4.762  14.974  0.00  0.00    +0.000 A 
ATOM     23  N   UNL     1       7.296   5.521  14.586  0.00  0.00    +0.000 NA
ATOM     24  O   UNL     1       7.794   6.097  15.735  0.00  0.00    +0.000 OA
ATOM     25  C   UNL     1       7.073   5.676  16.806  0.00  0.00    +0.000 A 
ATOM     26  C   UNL     1       7.512   6.181  18.121  0.00  0.00    +0.000 C 
ATOM     27  C   UNL     1       6.070   4.828  16.383  0.00  0.00    +0.000 A 
ENDBRANCH  20  27
ENDBRANCH  15  20
ENDBRANCH   1  17
TORSDOF 4
ENDMDL
