MODEL 1
REMARK VINA RESULT:      -8.4      0.000      0.000
REMARK  Name = 
REMARK  11 active torsions:
REMARK  status: ('A' for Active; 'I' for Inactive)
REMARK    1  A    between atoms: C_1  and  C_2
REMARK    2  A    between atoms: C_2  and  C_3
REMARK    3  A    between atoms: C_2  and  N_4
REMARK    4  A    between atoms: C_5  and  C_7
REMARK    5  A    between atoms: C_10  and  C_11
REMARK    6  A    between atoms: C_11  and  O_12
REMARK    7  A    between atoms: O_12  and  C_13
REMARK    8  A    between atoms: C_19  and  C_20
REMARK    9  A    between atoms: C_28  and  C_30
REMARK   10  A    between atoms: C_30  and  C_31
REMARK   11  A    between atoms: C_30  and  C_32
REMARK                            x       y       z     vdW  Elec       q    Type
REMARK                         _______ _______ _______ _____ _____    ______ ____
ROOT
ATOM      1  C   UNL     1       2.645   7.605  18.443  0.00  0.00    +0.000 A 
ATOM      2  C   UNL     1       2.535   7.087  19.735  0.00  0.00    +0.000 A 
ATOM      3  C   UNL     1       1.724   7.705  20.685  0.00  0.00    +0.000 A 
ATOM      4  C   UNL     1       1.012   8.856  20.343  0.00  0.00    +0.000 A 
ATOM      5  C   UNL     1       1.203   9.457  19.089  0.00  0.00    +0.000 A 
ATOM      6  C   UNL     1       2.012   8.810  18.132  0.00  0.00    +0.000 A 
ATOM      7  C   UNL     1       0.541  10.803  18.786  0.00  0.00    +0.000 C 
ATOM      8  N   UNL     1      -0.808  10.925  19.381  0.00  0.00    +0.000 N 
ATOM      9  C   UNL     1      -1.750  11.655  18.655  0.00  0.00    +0.000 C 
ATOM     10  O   UNL     1      -1.451  12.241  17.612  0.00  0.00    +0.000 OA
ATOM     11  C   UNL     1      -1.162  10.049  20.507  0.00  0.00    +0.000 C 
ATOM     12  C   UNL     1       0.017   9.461  21.290  0.00  0.00    +0.000 C 
ENDROOT
BRANCH   7  13
ATOM     13  C   UNL     1       1.437  11.990  19.172  0.00  0.00    +0.000 A 
ATOM     14  C   UNL     1       1.353  12.550  20.460  0.00  0.00    +0.000 A 
ATOM     15  C   UNL     1       2.144  13.647  20.825  0.00  0.00    +0.000 A 
ATOM     16  C   UNL     1       3.028  14.208  19.907  0.00  0.00    +0.000 A 
ATOM     17  C   UNL     1       3.121  13.662  18.636  0.00  0.00    +0.000 A 
ATOM     18  F   UNL     1       3.968  14.195  17.746  0.00  0.00    +0.000 F 
ATOM     19  C   UNL     1       2.346  12.565  18.268  0.00  0.00    +0.000 A 
ENDBRANCH   7  13
BRANCH   9  20
ATOM     20  C   UNL     1      -3.175  11.763  19.213  0.00  0.00    +0.000 C 
ATOM     21  C   UNL     1      -3.298  13.015  20.079  0.00  0.00    +0.000 C 
ATOM     22  C   UNL     1      -4.192  11.819  18.071  0.00  0.00    +0.000 C 
ENDBRANCH   9  20
BRANCH   1  23
ATOM     23  O   UNL     1       3.390   6.834  17.596  0.00  0.00    +0.000 OA
BRANCH  23  24
ATOM     24  C   UNL     1       3.948   5.619  18.101  0.00  0.00    +0.000 C 
BRANCH  24  28
ATOM     25  C   UNL     1       6.135   4.637  15.287  0.00  0.00    +0.000 A 
ATOM     26  C   UNL     1       7.154   4.481  16.212  0.00  0.00    +0.000 A 
ATOM     27  S   UNL     1       6.619   4.892  17.776  0.00  0.00    +0.000 S 
ATOM     28  C   UNL     1       5.041   5.203  17.149  0.00  0.00    +0.000 A 
ATOM     29  N   UNL     1       4.918   5.064  15.837  0.00  0.00    +0.000 NA
BRANCH  25  31
ATOM     30  N   UNL     1       5.354   3.631  13.250  0.00  0.00    +0.000 N 
ATOM     31  C   UNL     1       6.342   4.378  13.854  0.00  0.00    +0.000 C 
ATOM     32  O   UNL     1       7.316   4.818  13.249  0.00  0.00    +0.000 OA
ATOM     33  H   UNL     1       4.648   3.231  13.859  0.00  0.00    +0.000 HD
BRANCH  30  35
ATOM     34  C   UNL     1       6.088   1.884  11.677  0.00  0.00    +0.000 C 
ATOM     35  C   UNL     1       5.439   3.257  11.845  0.00  0.00    +0.000 C 
ATOM     36  C   UNL     1       4.066   3.290  11.185  0.00  0.00    +0.000 C 
ENDBRANCH  30  35
ENDBRANCH  25  31
ENDBRANCH  24  28
ENDBRANCH  23  24
ENDBRANCH   1  23
TORSDOF 7
ENDMDL
MODEL 2
REMARK VINA RESULT:      -8.1      1.365      1.843
REMARK  Name = 
REMARK  11 active torsions:
REMARK  status: ('A' for Active; 'I' for Inactive)
REMARK    1  A    between atoms: C_1  and  C_2
REMARK    2  A    between atoms: C_2  and  C_3
REMARK    3  A    between atoms: C_2  and  N_4
REMARK    4  A    between atoms: C_5  and  C_7
REMARK    5  A    between atoms: C_10  and  C_11
REMARK    6  A    between atoms: C_11  and  O_12
REMARK    7  A    between atoms: O_12  and  C_13
REMARK    8  A    between atoms: C_19  and  C_20
REMARK    9  A    between atoms: C_28  and  C_30
REMARK   10  A    between atoms: C_30  and  C_31
REMARK   11  A    between atoms: C_30  and  C_32
REMARK                            x       y       z     vdW  Elec       q    Type
REMARK                         _______ _______ _______ _____ _____    ______ ____
ROOT
ATOM      1  C   UNL     1       1.899   7.940  18.800  0.00  0.00    +0.000 A 
ATOM      2  C   UNL     1       2.043   7.474  20.109  0.00  0.00    +0.000 A 
ATOM      3  C   UNL     1       1.554   8.210  21.186  0.00  0.00    +0.000 A 
ATOM      4  C   UNL     1       0.912   9.429  20.957  0.00  0.00    +0.000 A 
ATOM      5  C   UNL     1       0.864   9.968  19.661  0.00  0.00    +0.000 A 
ATOM      6  C   UNL     1       1.346   9.203  18.579  0.00  0.00    +0.000 A 
ATOM      7  C   UNL     1       0.301  11.375  19.448  0.00  0.00    +0.000 C 
ATOM      8  N   UNL     1      -0.846  11.673  20.333  0.00  0.00    +0.000 N 
ATOM      9  C   UNL     1      -1.848  12.491  19.807  0.00  0.00    +0.000 C 
ATOM     10  O   UNL     1      -1.742  13.008  18.692  0.00  0.00    +0.000 OA
ATOM     11  C   UNL     1      -1.017  10.878  21.556  0.00  0.00    +0.000 C 
ATOM     12  C   UNL     1       0.243  10.174  22.075  0.00  0.00    +0.000 C 
ENDROOT
BRANCH   7  13
ATOM     13  C   UNL     1       1.388  12.457  19.548  0.00  0.00    +0.000 A 
ATOM     14  C   UNL     1       2.120  12.830  18.406  0.00  0.00    +0.000 A 
ATOM     15  C   UNL     1       3.131  13.798  18.480  0.00  0.00    +0.000 A 
ATOM     16  C   UNL     1       3.432  14.403  19.698  0.00  0.00    +0.000 A 
ATOM     17  C   UNL     1       2.714  14.044  20.828  0.00  0.00    +0.000 A 
ATOM     18  F   UNL     1       2.996  14.621  22.004  0.00  0.00    +0.000 F 
ATOM     19  C   UNL     1       1.701  13.092  20.762  0.00  0.00    +0.000 A 
ENDBRANCH   7  13
BRANCH   9  20
ATOM     20  C   UNL     1      -3.079  12.784  20.674  0.00  0.00    +0.000 C 
ATOM     21  C   UNL     1      -2.993  14.203  21.231  0.00  0.00    +0.000 C 
ATOM     22  C   UNL     1      -4.360  12.625  19.853  0.00  0.00    +0.000 C 
ENDBRANCH   9  20
BRANCH   1  23
ATOM     23  O   UNL     1       2.332   7.063  17.846  0.00  0.00    +0.000 OA
BRANCH  23  24
ATOM     24  C   UNL     1       2.471   5.686  18.206  0.00  0.00    +0.000 C 
BRANCH  24  28
ATOM     25  C   UNL     1       5.753   4.736  16.796  0.00  0.00    +0.000 A 
ATOM     26  C   UNL     1       6.207   4.606  18.098  0.00  0.00    +0.000 A 
ATOM     27  S   UNL     1       4.983   5.013  19.210  0.00  0.00    +0.000 S 
ATOM     28  C   UNL     1       3.893   5.288  17.899  0.00  0.00    +0.000 A 
ATOM     29  N   UNL     1       4.415   5.140  16.691  0.00  0.00    +0.000 NA
BRANCH  25  31
ATOM     30  N   UNL     1       5.964   4.186  14.467  0.00  0.00    +0.000 N 
ATOM     31  C   UNL     1       6.625   4.474  15.641  0.00  0.00    +0.000 C 
ATOM     32  O   UNL     1       7.849   4.532  15.725  0.00  0.00    +0.000 OA
ATOM     33  H   UNL     1       4.959   4.062  14.528  0.00  0.00    +0.000 HD
BRANCH  30  35
ATOM     34  C   UNL     1       5.768   3.237  12.203  0.00  0.00    +0.000 C 
ATOM     35  C   UNL     1       6.691   3.863  13.247  0.00  0.00    +0.000 C 
ATOM     36  C   UNL     1       7.389   5.095  12.683  0.00  0.00    +0.000 C 
ENDBRANCH  30  35
ENDBRANCH  25  31
ENDBRANCH  24  28
ENDBRANCH  23  24
ENDBRANCH   1  23
TORSDOF 7
ENDMDL
MODEL 3
REMARK VINA RESULT:      -8.0      0.934      1.150
REMARK  Name = 
REMARK  11 active torsions:
REMARK  status: ('A' for Active; 'I' for Inactive)
REMARK    1  A    between atoms: C_1  and  C_2
REMARK    2  A    between atoms: C_2  and  C_3
REMARK    3  A    between atoms: C_2  and  N_4
REMARK    4  A    between atoms: C_5  and  C_7
REMARK    5  A    between atoms: C_10  and  C_11
REMARK    6  A    between atoms: C_11  and  O_12
REMARK    7  A    between atoms: O_12  and  C_13
REMARK    8  A    between atoms: C_19  and  C_20
REMARK    9  A    between atoms: C_28  and  C_30
REMARK   10  A    between atoms: C_30  and  C_31
REMARK   11  A    between atoms: C_30  and  C_32
REMARK                            x       y       z     vdW  Elec       q    Type
REMARK                         _______ _______ _______ _____ _____    ______ ____
ROOT
ATOM      1  C   UNL     1       2.125   7.783  18.779  0.00  0.00    +0.000 A 
ATOM      2  C   UNL     1       2.197   7.333  20.100  0.00  0.00    +0.000 A 
ATOM      3  C   UNL     1       1.619   8.065  21.135  0.00  0.00    +0.000 A 
ATOM      4  C   UNL     1       0.962   9.264  20.853  0.00  0.00    +0.000 A 
ATOM      5  C   UNL     1       0.984   9.791  19.551  0.00  0.00    +0.000 A 
ATOM      6  C   UNL     1       1.555   9.029  18.511  0.00  0.00    +0.000 A 
ATOM      7  C   UNL     1       0.399  11.180  19.288  0.00  0.00    +0.000 C 
ATOM      8  N   UNL     1      -0.811  11.455  20.094  0.00  0.00    +0.000 N 
ATOM      9  C   UNL     1      -1.797  12.241  19.496  0.00  0.00    +0.000 C 
ATOM     10  O   UNL     1      -1.634  12.751  18.385  0.00  0.00    +0.000 OA
ATOM     11  C   UNL     1      -1.039  10.666  21.311  0.00  0.00    +0.000 C 
ATOM     12  C   UNL     1       0.203  10.000  21.917  0.00  0.00    +0.000 C 
ENDROOT
BRANCH   7  13
ATOM     13  C   UNL     1       1.448  12.291  19.447  0.00  0.00    +0.000 A 
ATOM     14  C   UNL     1       1.710  12.838  20.716  0.00  0.00    +0.000 A 
ATOM     15  C   UNL     1       2.646  13.868  20.881  0.00  0.00    +0.000 A 
ATOM     16  C   UNL     1       3.331  14.373  19.778  0.00  0.00    +0.000 A 
ATOM     17  C   UNL     1       3.083  13.838  18.524  0.00  0.00    +0.000 A 
ATOM     18  F   UNL     1       3.737  14.317  17.457  0.00  0.00    +0.000 F 
ATOM     19  C   UNL     1       2.162  12.807  18.353  0.00  0.00    +0.000 A 
ENDBRANCH   7  13
BRANCH   9  20
ATOM     20  C   UNL     1      -3.089  12.508  20.278  0.00  0.00    +0.000 C 
ATOM     21  C   UNL     1      -3.075  13.932  20.829  0.00  0.00    +0.000 C 
ATOM     22  C   UNL     1      -4.310  12.311  19.377  0.00  0.00    +0.000 C 
ENDBRANCH   9  20
BRANCH   1  23
ATOM     23  O   UNL     1       2.642   6.910  17.865  0.00  0.00    +0.000 OA
BRANCH  23  24
ATOM     24  C   UNL     1       2.955   5.584  18.298  0.00  0.00    +0.000 C 
BRANCH  24  28
ATOM     25  C   UNL     1       6.027   4.750  16.417  0.00  0.00    +0.000 A 
ATOM     26  C   UNL     1       6.700   4.766  17.627  0.00  0.00    +0.000 A 
ATOM     27  S   UNL     1       5.647   5.180  18.900  0.00  0.00    +0.000 S 
ATOM     28  C   UNL     1       4.335   5.263  17.780  0.00  0.00    +0.000 A 
ATOM     29  N   UNL     1       4.660   5.048  16.514  0.00  0.00    +0.000 NA
BRANCH  25  31
ATOM     30  N   UNL     1       5.901   3.971  14.148  0.00  0.00    +0.000 N 
ATOM     31  C   UNL     1       6.714   4.451  15.151  0.00  0.00    +0.000 C 
ATOM     32  O   UNL     1       7.919   4.640  15.006  0.00  0.00    +0.000 OA
ATOM     33  H   UNL     1       4.942   3.755  14.401  0.00  0.00    +0.000 HD
BRANCH  30  35
ATOM     34  C   UNL     1       5.338   3.104  11.912  0.00  0.00    +0.000 C 
ATOM     35  C   UNL     1       6.442   3.591  12.850  0.00  0.00    +0.000 C 
ATOM     36  C   UNL     1       7.217   4.742  12.221  0.00  0.00    +0.000 C 
ENDBRANCH  30  35
ENDBRANCH  25  31
ENDBRANCH  24  28
ENDBRANCH  23  24
ENDBRANCH   1  23
TORSDOF 7
ENDMDL
MODEL 4
REMARK VINA RESULT:      -7.5      2.516      3.817
REMARK  Name = 
REMARK  11 active torsions:
REMARK  status: ('A' for Active; 'I' for Inactive)
REMARK    1  A    between atoms: C_1  and  C_2
REMARK    2  A    between atoms: C_2  and  C_3
REMARK    3  A    between atoms: C_2  and  N_4
REMARK    4  A    between atoms: C_5  and  C_7
REMARK    5  A    between atoms: C_10  and  C_11
REMARK    6  A    between atoms: C_11  and  O_12
REMARK    7  A    between atoms: O_12  and  C_13
REMARK    8  A    between atoms: C_19  and  C_20
REMARK    9  A    between atoms: C_28  and  C_30
REMARK   10  A    between atoms: C_30  and  C_31
REMARK   11  A    between atoms: C_30  and  C_32
REMARK                            x       y       z     vdW  Elec       q    Type
REMARK                         _______ _______ _______ _____ _____    ______ ____
ROOT
ATOM      1  C   UNL     1       0.422   8.974  21.471  0.00  0.00    +0.000 A 
ATOM      2  C   UNL     1       0.472   9.262  22.837  0.00  0.00    +0.000 A 
ATOM      3  C   UNL     1      -0.255  10.325  23.368  0.00  0.00    +0.000 A 
ATOM      4  C   UNL     1      -1.043  11.114  22.528  0.00  0.00    +0.000 A 
ATOM      5  C   UNL     1      -1.011  10.914  21.138  0.00  0.00    +0.000 A 
ATOM      6  C   UNL     1      -0.286   9.822  20.617  0.00  0.00    +0.000 A 
ATOM      7  C   UNL     1      -1.753  11.884  20.217  0.00  0.00    +0.000 C 
ATOM      8  N   UNL     1      -3.034  12.353  20.790  0.00  0.00    +0.000 N 
ATOM      9  C   UNL     1      -4.075  12.585  19.891  0.00  0.00    +0.000 C 
ATOM     10  O   UNL     1      -3.913  12.486  18.672  0.00  0.00    +0.000 OA
ATOM     11  C   UNL     1      -3.230  12.259  22.243  0.00  0.00    +0.000 C 
ATOM     12  C   UNL     1      -1.952  12.170  23.085  0.00  0.00    +0.000 C 
ENDROOT
BRANCH   7  13
ATOM     13  C   UNL     1      -0.866  13.060  19.778  0.00  0.00    +0.000 A 
ATOM     14  C   UNL     1      -1.195  14.374  20.160  0.00  0.00    +0.000 A 
ATOM     15  C   UNL     1      -0.414  15.462  19.752  0.00  0.00    +0.000 A 
ATOM     16  C   UNL     1       0.707  15.258  18.950  0.00  0.00    +0.000 A 
ATOM     17  C   UNL     1       1.041  13.967  18.572  0.00  0.00    +0.000 A 
ATOM     18  F   UNL     1       2.117  13.760  17.801  0.00  0.00    +0.000 F 
ATOM     19  C   UNL     1       0.276  12.878  18.981  0.00  0.00    +0.000 A 
ENDBRANCH   7  13
BRANCH   9  20
ATOM     20  C   UNL     1      -5.435  13.024  20.449  0.00  0.00    +0.000 C 
ATOM     21  C   UNL     1      -5.952  14.226  19.662  0.00  0.00    +0.000 C 
ATOM     22  C   UNL     1      -6.443  11.876  20.365  0.00  0.00    +0.000 C 
ENDBRANCH   9  20
BRANCH   1  23
ATOM     23  O   UNL     1       1.100   7.842  21.117  0.00  0.00    +0.000 OA
BRANCH  23  24
ATOM     24  C   UNL     1       1.934   7.889  19.956  0.00  0.00    +0.000 C 
BRANCH  24  28
ATOM     25  C   UNL     1       3.324   4.699  18.707  0.00  0.00    +0.000 A 
ATOM     26  C   UNL     1       2.562   4.059  19.669  0.00  0.00    +0.000 A 
ATOM     27  S   UNL     1       1.706   5.189  20.614  0.00  0.00    +0.000 S 
ATOM     28  C   UNL     1       2.352   6.471  19.654  0.00  0.00    +0.000 A 
ATOM     29  N   UNL     1       3.203   6.096  18.711  0.00  0.00    +0.000 NA
BRANCH  25  31
ATOM     30  N   UNL     1       4.982   4.732  16.969  0.00  0.00    +0.000 N 
ATOM     31  C   UNL     1       4.184   3.952  17.776  0.00  0.00    +0.000 C 
ATOM     32  O   UNL     1       4.196   2.724  17.746  0.00  0.00    +0.000 OA
ATOM     33  H   UNL     1       4.822   5.734  17.000  0.00  0.00    +0.000 HD
BRANCH  30  35
ATOM     34  C   UNL     1       5.476   4.594  14.560  0.00  0.00    +0.000 C 
ATOM     35  C   UNL     1       5.858   4.139  15.967  0.00  0.00    +0.000 C 
ATOM     36  C   UNL     1       7.320   4.456  16.260  0.00  0.00    +0.000 C 
ENDBRANCH  30  35
ENDBRANCH  25  31
ENDBRANCH  24  28
ENDBRANCH  23  24
ENDBRANCH   1  23
TORSDOF 7
ENDMDL
MODEL 5
REMARK VINA RESULT:      -7.5      2.846      4.921
REMARK  Name = 
REMARK  11 active torsions:
REMARK  status: ('A' for Active; 'I' for Inactive)
REMARK    1  A    between atoms: C_1  and  C_2
REMARK    2  A    between atoms: C_2  and  C_3
REMARK    3  A    between atoms: C_2  and  N_4
REMARK    4  A    between atoms: C_5  and  C_7
REMARK    5  A    between atoms: C_10  and  C_11
REMARK    6  A    between atoms: C_11  and  O_12
REMARK    7  A    between atoms: O_12  and  C_13
REMARK    8  A    between atoms: C_19  and  C_20
REMARK    9  A    between atoms: C_28  and  C_30
REMARK   10  A    between atoms: C_30  and  C_31
REMARK   11  A    between atoms: C_30  and  C_32
REMARK                            x       y       z     vdW  Elec       q    Type
REMARK                         _______ _______ _______ _____ _____    ______ ____
ROOT
ATOM      1  C   UNL     1       1.452   9.772  18.837  0.00  0.00    +0.000 A 
ATOM      2  C   UNL     1       2.228  10.750  18.209  0.00  0.00    +0.000 A 
ATOM      3  C   UNL     1       1.795  12.073  18.148  0.00  0.00    +0.000 A 
ATOM      4  C   UNL     1       0.572  12.429  18.719  0.00  0.00    +0.000 A 
ATOM      5  C   UNL     1      -0.274  11.439  19.246  0.00  0.00    +0.000 A 
ATOM      6  C   UNL     1       0.186  10.108  19.319  0.00  0.00    +0.000 A 
ATOM      7  C   UNL     1      -1.677  11.820  19.723  0.00  0.00    +0.000 C 
ATOM      8  N   UNL     1      -1.721  13.147  20.376  0.00  0.00    +0.000 N 
ATOM      9  C   UNL     1      -2.624  13.298  21.430  0.00  0.00    +0.000 C 
ATOM     10  O   UNL     1      -3.405  12.398  21.747  0.00  0.00    +0.000 OA
ATOM     11  C   UNL     1      -0.641  14.103  20.098  0.00  0.00    +0.000 C 
ATOM     12  C   UNL     1       0.144  13.864  18.803  0.00  0.00    +0.000 C 
ENDROOT
BRANCH   7  13
ATOM     13  C   UNL     1      -2.721  11.708  18.601  0.00  0.00    +0.000 A 
ATOM     14  C   UNL     1      -4.083  11.932  18.879  0.00  0.00    +0.000 A 
ATOM     15  C   UNL     1      -5.054  11.813  17.876  0.00  0.00    +0.000 A 
ATOM     16  C   UNL     1      -4.682  11.461  16.580  0.00  0.00    +0.000 A 
ATOM     17  C   UNL     1      -3.343  11.242  16.297  0.00  0.00    +0.000 A 
ATOM     18  F   UNL     1      -2.976  10.903  15.054  0.00  0.00    +0.000 F 
ATOM     19  C   UNL     1      -2.370  11.368  17.284  0.00  0.00    +0.000 A 
ENDBRANCH   7  13
BRANCH   9  20
ATOM     20  C   UNL     1      -2.665  14.643  22.166  0.00  0.00    +0.000 C 
ATOM     21  C   UNL     1      -4.100  15.162  22.213  0.00  0.00    +0.000 C 
ATOM     22  C   UNL     1      -2.121  14.490  23.588  0.00  0.00    +0.000 C 
ENDBRANCH   9  20
BRANCH   1  23
ATOM     23  O   UNL     1       2.054   8.548  18.911  0.00  0.00    +0.000 OA
BRANCH  23  24
ATOM     24  C   UNL     1       1.831   7.753  20.078  0.00  0.00    +0.000 C 
BRANCH  24  28
ATOM     25  C   UNL     1       3.306   4.628  18.767  0.00  0.00    +0.000 A 
ATOM     26  C   UNL     1       2.639   3.959  19.779  0.00  0.00    +0.000 A 
ATOM     27  S   UNL     1       1.784   5.052  20.766  0.00  0.00    +0.000 S 
ATOM     28  C   UNL     1       2.303   6.357  19.760  0.00  0.00    +0.000 A 
ATOM     29  N   UNL     1       3.113   6.017  18.769  0.00  0.00    +0.000 NA
BRANCH  25  31
ATOM     30  N   UNL     1       4.990   4.721  17.055  0.00  0.00    +0.000 N 
ATOM     31  C   UNL     1       4.146   3.917  17.790  0.00  0.00    +0.000 C 
ATOM     32  O   UNL     1       4.104   2.696  17.664  0.00  0.00    +0.000 OA
ATOM     33  H   UNL     1       4.874   5.724  17.163  0.00  0.00    +0.000 HD
BRANCH  30  35
ATOM     34  C   UNL     1       5.496   4.730  14.645  0.00  0.00    +0.000 C 
ATOM     35  C   UNL     1       5.853   4.169  16.020  0.00  0.00    +0.000 C 
ATOM     36  C   UNL     1       7.322   4.417  16.341  0.00  0.00    +0.000 C 
ENDBRANCH  30  35
ENDBRANCH  25  31
ENDBRANCH  24  28
ENDBRANCH  23  24
ENDBRANCH   1  23
TORSDOF 7
ENDMDL
MODEL 6
REMARK VINA RESULT:      -7.5      1.007      1.369
REMARK  Name = 
REMARK  11 active torsions:
REMARK  status: ('A' for Active; 'I' for Inactive)
REMARK    1  A    between atoms: C_1  and  C_2
REMARK    2  A    between atoms: C_2  and  C_3
REMARK    3  A    between atoms: C_2  and  N_4
REMARK    4  A    between atoms: C_5  and  C_7
REMARK    5  A    between atoms: C_10  and  C_11
REMARK    6  A    between atoms: C_11  and  O_12
REMARK    7  A    between atoms: O_12  and  C_13
REMARK    8  A    between atoms: C_19  and  C_20
REMARK    9  A    between atoms: C_28  and  C_30
REMARK   10  A    between atoms: C_30  and  C_31
REMARK   11  A    between atoms: C_30  and  C_32
REMARK                            x       y       z     vdW  Elec       q    Type
REMARK                         _______ _______ _______ _____ _____    ______ ____
ROOT
ATOM      1  C   UNL     1       2.292   7.632  18.713  0.00  0.00    +0.000 A 
ATOM      2  C   UNL     1       2.315   7.201  20.042  0.00  0.00    +0.000 A 
ATOM      3  C   UNL     1       1.670   7.930  21.039  0.00  0.00    +0.000 A 
ATOM      4  C   UNL     1       0.992   9.106  20.709  0.00  0.00    +0.000 A 
ATOM      5  C   UNL     1       1.060   9.616  19.402  0.00  0.00    +0.000 A 
ATOM      6  C   UNL     1       1.700   8.857  18.400  0.00  0.00    +0.000 A 
ATOM      7  C   UNL     1       0.448  10.983  19.092  0.00  0.00    +0.000 C 
ATOM      8  N   UNL     1      -0.805  11.234  19.837  0.00  0.00    +0.000 N 
ATOM      9  C   UNL     1      -1.785  11.982  19.184  0.00  0.00    +0.000 C 
ATOM     10  O   UNL     1      -1.585  12.482  18.074  0.00  0.00    +0.000 OA
ATOM     11  C   UNL     1      -1.067  10.454  21.055  0.00  0.00    +0.000 C 
ATOM     12  C   UNL     1       0.164   9.834  21.727  0.00  0.00    +0.000 C 
ENDROOT
BRANCH   7  13
ATOM     13  C   UNL     1       1.457  12.127  19.282  0.00  0.00    +0.000 A 
ATOM     14  C   UNL     1       2.262  12.544  18.207  0.00  0.00    +0.000 A 
ATOM     15  C   UNL     1       3.204  13.569  18.365  0.00  0.00    +0.000 A 
ATOM     16  C   UNL     1       3.362  14.190  19.602  0.00  0.00    +0.000 A 
ATOM     17  C   UNL     1       2.570  13.788  20.666  0.00  0.00    +0.000 A 
ATOM     18  F   UNL     1       2.715  14.378  21.860  0.00  0.00    +0.000 F 
ATOM     19  C   UNL     1       1.625  12.778  20.516  0.00  0.00    +0.000 A 
ENDBRANCH   7  13
BRANCH   9  20
ATOM     20  C   UNL     1      -3.119  12.222  19.902  0.00  0.00    +0.000 C 
ATOM     21  C   UNL     1      -3.113  13.603  20.554  0.00  0.00    +0.000 C 
ATOM     22  C   UNL     1      -4.283  12.118  18.915  0.00  0.00    +0.000 C 
ENDBRANCH   9  20
BRANCH   1  23
ATOM     23  O   UNL     1       2.876   6.762  17.836  0.00  0.00    +0.000 OA
BRANCH  23  24
ATOM     24  C   UNL     1       3.396   5.532  18.348  0.00  0.00    +0.000 C 
BRANCH  24  28
ATOM     25  C   UNL     1       6.066   4.867  15.880  0.00  0.00    +0.000 A 
ATOM     26  C   UNL     1       6.903   4.595  16.948  0.00  0.00    +0.000 A 
ATOM     27  S   UNL     1       6.091   4.824  18.427  0.00  0.00    +0.000 S 
ATOM     28  C   UNL     1       4.647   5.221  17.567  0.00  0.00    +0.000 A 
ATOM     29  N   UNL     1       4.764   5.238  16.247  0.00  0.00    +0.000 NA
BRANCH  25  31
ATOM     30  N   UNL     1       5.733   4.018  13.657  0.00  0.00    +0.000 N 
ATOM     31  C   UNL     1       6.531   4.775  14.487  0.00  0.00    +0.000 C 
ATOM     32  O   UNL     1       7.544   5.352  14.101  0.00  0.00    +0.000 OA
ATOM     33  H   UNL     1       4.977   3.502  14.096  0.00  0.00    +0.000 HD
BRANCH  30  35
ATOM     34  C   UNL     1       7.508   4.271  11.969  0.00  0.00    +0.000 C 
ATOM     35  C   UNL     1       6.084   3.800  12.260  0.00  0.00    +0.000 C 
ATOM     36  C   UNL     1       5.909   2.337  11.873  0.00  0.00    +0.000 C 
ENDBRANCH  30  35
ENDBRANCH  25  31
ENDBRANCH  24  28
ENDBRANCH  23  24
ENDBRANCH   1  23
TORSDOF 7
ENDMDL
MODEL 7
REMARK VINA RESULT:      -7.5      2.607      3.696
REMARK  Name = 
REMARK  11 active torsions:
REMARK  status: ('A' for Active; 'I' for Inactive)
REMARK    1  A    between atoms: C_1  and  C_2
REMARK    2  A    between atoms: C_2  and  C_3
REMARK    3  A    between atoms: C_2  and  N_4
REMARK    4  A    between atoms: C_5  and  C_7
REMARK    5  A    between atoms: C_10  and  C_11
REMARK    6  A    between atoms: C_11  and  O_12
REMARK    7  A    between atoms: O_12  and  C_13
REMARK    8  A    between atoms: C_19  and  C_20
REMARK    9  A    between atoms: C_28  and  C_30
REMARK   10  A    between atoms: C_30  and  C_31
REMARK   11  A    between atoms: C_30  and  C_32
REMARK                            x       y       z     vdW  Elec       q    Type
REMARK                         _______ _______ _______ _____ _____    ______ ____
ROOT
ATOM      1  C   UNL     1       0.945   8.786  20.803  0.00  0.00    +0.000 A 
ATOM      2  C   UNL     1       1.138   8.905  22.182  0.00  0.00    +0.000 A 
ATOM      3  C   UNL     1       0.484   9.895  22.911  0.00  0.00    +0.000 A 
ATOM      4  C   UNL     1      -0.376  10.782  22.258  0.00  0.00    +0.000 A 
ATOM      5  C   UNL     1      -0.489  10.753  20.859  0.00  0.00    +0.000 A 
ATOM      6  C   UNL     1       0.165   9.733  20.137  0.00  0.00    +0.000 A 
ATOM      7  C   UNL     1      -1.308  11.829  20.144  0.00  0.00    +0.000 C 
ATOM      8  N   UNL     1      -2.517  12.226  20.899  0.00  0.00    +0.000 N 
ATOM      9  C   UNL     1      -3.642  12.566  20.147  0.00  0.00    +0.000 C 
ATOM     10  O   UNL     1      -3.606  12.617  18.915  0.00  0.00    +0.000 OA
ATOM     11  C   UNL     1      -2.566  11.954  22.342  0.00  0.00    +0.000 C 
ATOM     12  C   UNL     1      -1.209  11.762  23.031  0.00  0.00    +0.000 C 
ENDROOT
BRANCH   7  13
ATOM     13  C   UNL     1      -0.455  13.050  19.763  0.00  0.00    +0.000 A 
ATOM     14  C   UNL     1       0.608  12.911  18.852  0.00  0.00    +0.000 A 
ATOM     15  C   UNL     1       1.413  14.006  18.509  0.00  0.00    +0.000 A 
ATOM     16  C   UNL     1       1.172  15.256  19.074  0.00  0.00    +0.000 A 
ATOM     17  C   UNL     1       0.124  15.403  19.969  0.00  0.00    +0.000 A 
ATOM     18  F   UNL     1      -0.115  16.601  20.519  0.00  0.00    +0.000 F 
ATOM     19  C   UNL     1      -0.687  14.323  20.309  0.00  0.00    +0.000 A 
ENDBRANCH   7  13
BRANCH   9  20
ATOM     20  C   UNL     1      -4.932  12.935  20.891  0.00  0.00    +0.000 C 
ATOM     21  C   UNL     1      -5.136  14.447  20.853  0.00  0.00    +0.000 C 
ATOM     22  C   UNL     1      -6.134  12.231  20.257  0.00  0.00    +0.000 C 
ENDBRANCH   9  20
BRANCH   1  23
ATOM     23  O   UNL     1       1.569   7.706  20.246  0.00  0.00    +0.000 OA
BRANCH  23  24
ATOM     24  C   UNL     1       1.457   6.444  20.907  0.00  0.00    +0.000 C 
BRANCH  24  28
ATOM     25  C   UNL     1       3.855   4.479  18.894  0.00  0.00    +0.000 A 
ATOM     26  C   UNL     1       2.890   3.489  18.819  0.00  0.00    +0.000 A 
ATOM     27  S   UNL     1       1.501   3.931  19.700  0.00  0.00    +0.000 S 
ATOM     28  C   UNL     1       2.236   5.444  20.089  0.00  0.00    +0.000 A 
ATOM     29  N   UNL     1       3.472   5.603  19.638  0.00  0.00    +0.000 NA
BRANCH  25  31
ATOM     30  N   UNL     1       5.146   4.421  16.868  0.00  0.00    +0.000 N 
ATOM     31  C   UNL     1       5.166   4.333  18.243  0.00  0.00    +0.000 C 
ATOM     32  O   UNL     1       6.197   4.168  18.890  0.00  0.00    +0.000 OA
ATOM     33  H   UNL     1       4.233   4.455  16.426  0.00  0.00    +0.000 HD
BRANCH  30  35
ATOM     34  C   UNL     1       6.035   3.827  14.649  0.00  0.00    +0.000 C 
ATOM     35  C   UNL     1       6.359   4.256  16.079  0.00  0.00    +0.000 C 
ATOM     36  C   UNL     1       7.195   5.530  16.086  0.00  0.00    +0.000 C 
ENDBRANCH  30  35
ENDBRANCH  25  31
ENDBRANCH  24  28
ENDBRANCH  23  24
ENDBRANCH   1  23
TORSDOF 7
ENDMDL
MODEL 8
REMARK VINA RESULT:      -7.4      3.355      5.359
REMARK  Name = 
REMARK  11 active torsions:
REMARK  status: ('A' for Active; 'I' for Inactive)
REMARK    1  A    between atoms: C_1  and  C_2
REMARK    2  A    between atoms: C_2  and  C_3
REMARK    3  A    between atoms: C_2  and  N_4
REMARK    4  A    between atoms: C_5  and  C_7
REMARK    5  A    between atoms: C_10  and  C_11
REMARK    6  A    between atoms: C_11  and  O_12
REMARK    7  A    between atoms: O_12  and  C_13
REMARK    8  A    between atoms: C_19  and  C_20
REMARK    9  A    between atoms: C_28  and  C_30
REMARK   10  A    between atoms: C_30  and  C_31
REMARK   11  A    between atoms: C_30  and  C_32
REMARK                            x       y       z     vdW  Elec       q    Type
REMARK                         _______ _______ _______ _____ _____    ______ ____
ROOT
ATOM      1  C   UNL     1       1.186   9.218  20.528  0.00  0.00    +0.000 A 
ATOM      2  C   UNL     1       0.941   9.194  19.153  0.00  0.00    +0.000 A 
ATOM      3  C   UNL     1       0.500  10.336  18.488  0.00  0.00    +0.000 A 
ATOM      4  C   UNL     1       0.299  11.520  19.202  0.00  0.00    +0.000 A 
ATOM      5  C   UNL     1       0.424  11.529  20.600  0.00  0.00    +0.000 A 
ATOM      6  C   UNL     1       0.890  10.371  21.257  0.00  0.00    +0.000 A 
ATOM      7  C   UNL     1       0.047  12.787  21.385  0.00  0.00    +0.000 C 
ATOM      8  N   UNL     1       0.411  14.035  20.678  0.00  0.00    +0.000 N 
ATOM      9  C   UNL     1       0.811  15.111  21.471  0.00  0.00    +0.000 C 
ATOM     10  O   UNL     1       0.781  15.054  22.703  0.00  0.00    +0.000 OA
ATOM     11  C   UNL     1       0.623  13.984  19.225  0.00  0.00    +0.000 C 
ATOM     12  C   UNL     1      -0.031  12.803  18.497  0.00  0.00    +0.000 C 
ENDROOT
BRANCH   7  13
ATOM     13  C   UNL     1      -1.431  12.787  21.805  0.00  0.00    +0.000 A 
ATOM     14  C   UNL     1      -1.808  12.282  23.063  0.00  0.00    +0.000 A 
ATOM     15  C   UNL     1      -3.152  12.252  23.457  0.00  0.00    +0.000 A 
ATOM     16  C   UNL     1      -4.144  12.719  22.598  0.00  0.00    +0.000 A 
ATOM     17  C   UNL     1      -3.782  13.222  21.358  0.00  0.00    +0.000 A 
ATOM     18  F   UNL     1      -4.728  13.674  20.524  0.00  0.00    +0.000 F 
ATOM     19  C   UNL     1      -2.448  13.266  20.962  0.00  0.00    +0.000 A 
ENDBRANCH   7  13
BRANCH   9  20
ATOM     20  C   UNL     1       1.245  16.408  20.775  0.00  0.00    +0.000 C 
ATOM     21  C   UNL     1       0.521  17.597  21.401  0.00  0.00    +0.000 C 
ATOM     22  C   UNL     1       2.759  16.597  20.896  0.00  0.00    +0.000 C 
ENDBRANCH   9  20
BRANCH   1  23
ATOM     23  O   UNL     1       1.713   8.057  21.018  0.00  0.00    +0.000 OA
BRANCH  23  24
ATOM     24  C   UNL     1       0.988   6.842  20.809  0.00  0.00    +0.000 C 
BRANCH  24  28
ATOM     25  C   UNL     1       3.787   4.815  19.496  0.00  0.00    +0.000 A 
ATOM     26  C   UNL     1       3.105   3.695  19.940  0.00  0.00    +0.000 A 
ATOM     27  S   UNL     1       1.658   4.138  20.722  0.00  0.00    +0.000 S 
ATOM     28  C   UNL     1       1.988   5.798  20.379  0.00  0.00    +0.000 A 
ATOM     29  N   UNL     1       3.137   6.029  19.762  0.00  0.00    +0.000 NA
BRANCH  25  31
ATOM     30  N   UNL     1       5.155   5.360  17.597  0.00  0.00    +0.000 N 
ATOM     31  C   UNL     1       5.085   4.713  18.812  0.00  0.00    +0.000 C 
ATOM     32  O   UNL     1       6.034   4.110  19.307  0.00  0.00    +0.000 OA
ATOM     33  H   UNL     1       4.288   5.740  17.232  0.00  0.00    +0.000 HD
BRANCH  30  35
ATOM     34  C   UNL     1       6.021   5.253  15.294  0.00  0.00    +0.000 C 
ATOM     35  C   UNL     1       6.362   5.314  16.782  0.00  0.00    +0.000 C 
ATOM     36  C   UNL     1       7.270   6.500  17.081  0.00  0.00    +0.000 C 
ENDBRANCH  30  35
ENDBRANCH  25  31
ENDBRANCH  24  28
ENDBRANCH  23  24
ENDBRANCH   1  23
TORSDOF 7
ENDMDL
MODEL 9
REMARK VINA RESULT:      -7.4      3.785      5.607
REMARK  Name = 
REMARK  11 active torsions:
REMARK  status: ('A' for Active; 'I' for Inactive)
REMARK    1  A    between atoms: C_1  and  C_2
REMARK    2  A    between atoms: C_2  and  C_3
REMARK    3  A    between atoms: C_2  and  N_4
REMARK    4  A    between atoms: C_5  and  C_7
REMARK    5  A    between atoms: C_10  and  C_11
REMARK    6  A    between atoms: C_11  and  O_12
REMARK    7  A    between atoms: O_12  and  C_13
REMARK    8  A    between atoms: C_19  and  C_20
REMARK    9  A    between atoms: C_28  and  C_30
REMARK   10  A    between atoms: C_30  and  C_31
REMARK   11  A    between atoms: C_30  and  C_32
REMARK                            x       y       z     vdW  Elec       q    Type
REMARK                         _______ _______ _______ _____ _____    ______ ____
ROOT
ATOM      1  C   UNL     1       1.140   9.297  20.543  0.00  0.00    +0.000 A 
ATOM      2  C   UNL     1       0.948   9.300  19.160  0.00  0.00    +0.000 A 
ATOM      3  C   UNL     1       0.501  10.445  18.504  0.00  0.00    +0.000 A 
ATOM      4  C   UNL     1       0.240  11.605  19.236  0.00  0.00    +0.000 A 
ATOM      5  C   UNL     1       0.311  11.585  20.638  0.00  0.00    +0.000 A 
ATOM      6  C   UNL     1       0.784  10.425  21.286  0.00  0.00    +0.000 A 
ATOM      7  C   UNL     1      -0.131  12.813  21.436  0.00  0.00    +0.000 C 
ATOM      8  N   UNL     1       0.225  14.087  20.772  0.00  0.00    +0.000 N 
ATOM      9  C   UNL     1       0.563  15.155  21.604  0.00  0.00    +0.000 C 
ATOM     10  O   UNL     1       0.488  15.067  22.832  0.00  0.00    +0.000 OA
ATOM     11  C   UNL     1       0.493  14.075  19.327  0.00  0.00    +0.000 C 
ATOM     12  C   UNL     1      -0.099  12.895  18.548  0.00  0.00    +0.000 C 
ENDROOT
BRANCH   7  13
ATOM     13  C   UNL     1      -1.623  12.763  21.798  0.00  0.00    +0.000 A 
ATOM     14  C   UNL     1      -2.593  13.150  20.854  0.00  0.00    +0.000 A 
ATOM     15  C   UNL     1      -3.957  13.134  21.171  0.00  0.00    +0.000 A 
ATOM     16  C   UNL     1      -4.376  12.737  22.439  0.00  0.00    +0.000 A 
ATOM     17  C   UNL     1      -3.429  12.350  23.374  0.00  0.00    +0.000 A 
ATOM     18  F   UNL     1      -3.822  11.967  24.596  0.00  0.00    +0.000 F 
ATOM     19  C   UNL     1      -2.072  12.353  23.065  0.00  0.00    +0.000 A 
ENDBRANCH   7  13
BRANCH   9  20
ATOM     20  C   UNL     1       0.987  16.478  20.955  0.00  0.00    +0.000 C 
ATOM     21  C   UNL     1       0.213  17.634  21.585  0.00  0.00    +0.000 C 
ATOM     22  C   UNL     1       2.490  16.702  21.131  0.00  0.00    +0.000 C 
ENDBRANCH   9  20
BRANCH   1  23
ATOM     23  O   UNL     1       1.680   8.140  21.028  0.00  0.00    +0.000 OA
BRANCH  23  24
ATOM     24  C   UNL     1       0.929   6.932  20.889  0.00  0.00    +0.000 C 
BRANCH  24  28
ATOM     25  C   UNL     1       3.446   4.931  19.065  0.00  0.00    +0.000 A 
ATOM     26  C   UNL     1       2.946   3.817  19.718  0.00  0.00    +0.000 A 
ATOM     27  S   UNL     1       1.700   4.255  20.794  0.00  0.00    +0.000 S 
ATOM     28  C   UNL     1       1.854   5.900  20.293  0.00  0.00    +0.000 A 
ATOM     29  N   UNL     1       2.814   6.134  19.411  0.00  0.00    +0.000 NA
BRANCH  25  31
ATOM     30  N   UNL     1       5.609   5.685  18.339  0.00  0.00    +0.000 N 
ATOM     31  C   UNL     1       4.552   4.833  18.101  0.00  0.00    +0.000 C 
ATOM     32  O   UNL     1       4.533   4.032  17.170  0.00  0.00    +0.000 OA
ATOM     33  H   UNL     1       5.481   6.376  19.071  0.00  0.00    +0.000 HD
BRANCH  30  35
ATOM     34  C   UNL     1       7.428   7.107  17.484  0.00  0.00    +0.000 C 
ATOM     35  C   UNL     1       6.760   5.734  17.448  0.00  0.00    +0.000 C 
ATOM     36  C   UNL     1       7.761   4.636  17.786  0.00  0.00    +0.000 C 
ENDBRANCH  30  35
ENDBRANCH  25  31
ENDBRANCH  24  28
ENDBRANCH  23  24
ENDBRANCH   1  23
TORSDOF 7
ENDMDL
