MODEL 1
REMARK VINA RESULT:      -7.5      0.000      0.000
REMARK  Name = 
REMARK  8 active torsions:
REMARK  status: ('A' for Active; 'I' for Inactive)
REMARK    1  A    between atoms: C_5  and  C_6
REMARK    2  A    between atoms: C_6  and  C_7
REMARK    3  A    between atoms: C_7  and  N_8
REMARK    4  A    between atoms: N_8  and  C_9
REMARK    5  A    between atoms: C_9  and  C_10
REMARK    6  A    between atoms: C_10  and  C_11
REMARK    7  A    between atoms: C_14  and  O_15
REMARK    8  A    between atoms: C_20  and  O_21
REMARK                            x       y       z     vdW  Elec       q    Type
REMARK                         _______ _______ _______ _____ _____    ______ ____
ROOT
ATOM      1  C   UNL     1       3.806   2.853  17.440  0.00  0.00    +0.000 C 
ENDROOT
BRANCH   1   6
ATOM      2  O   UNL     1       7.343   5.133  13.696  0.00  0.00    +0.000 OA
ATOM      3  C   UNL     1       6.928   5.014  14.838  0.00  0.00    +0.000 C 
ATOM      4  C   UNL     1       5.775   4.113  15.297  0.00  0.00    +0.000 C 
ATOM      5  C   UNL     1       5.720   4.381  16.775  0.00  0.00    +0.000 A 
ATOM      6  C   UNL     1       4.880   3.868  17.754  0.00  0.00    +0.000 A 
ATOM      7  C   UNL     1       5.093   4.309  19.075  0.00  0.00    +0.000 A 
ATOM      8  C   UNL     1       6.104   5.243  19.391  0.00  0.00    +0.000 A 
ATOM      9  C   UNL     1       6.925   5.746  18.388  0.00  0.00    +0.000 A 
ATOM     10  C   UNL     1       6.717   5.302  17.100  0.00  0.00    +0.000 A 
ATOM     11  N   UNL     1       7.416   5.666  15.959  0.00  0.00    +0.000 N 
ATOM     12  H   UNL     1       8.181   6.324  15.952  0.00  0.00    +0.000 HD
BRANCH   9  13
ATOM     13  O   UNL     1       7.913   6.647  18.638  0.00  0.00    +0.000 OA
ATOM     14  H   UNL     1       8.700   6.394  18.128  0.00  0.00    +0.000 HD
ENDBRANCH   9  13
ENDBRANCH   1   6
BRANCH   1  15
ATOM     15  C   UNL     1       3.745   1.748  18.505  0.00  0.00    +0.000 C 
BRANCH  15  16
ATOM     16  N   UNL     1       2.379   1.548  19.012  0.00  0.00    +0.000 NA
ATOM     17  H   UNL     1       2.250   0.570  19.271  0.00  0.00    +0.000 HD
BRANCH  16  18
ATOM     18  C   UNL     1       2.152   2.400  20.191  0.00  0.00    +0.000 C 
BRANCH  18  19
ATOM     19  C   UNL     1       1.006   3.395  19.964  0.00  0.00    +0.000 C 
BRANCH  19  20
ATOM     20  C   UNL     1       1.513   4.733  19.472  0.00  0.00    +0.000 A 
ATOM     21  C   UNL     1       1.940   5.709  20.385  0.00  0.00    +0.000 A 
ATOM     22  C   UNL     1       2.413   6.946  19.937  0.00  0.00    +0.000 A 
ATOM     23  C   UNL     1       2.451   7.211  18.573  0.00  0.00    +0.000 A 
ATOM     24  C   UNL     1       2.018   6.263  17.653  0.00  0.00    +0.000 A 
ATOM     25  C   UNL     1       1.546   5.026  18.101  0.00  0.00    +0.000 A 
BRANCH  23  26
ATOM     26  O   UNL     1       2.915   8.399  18.092  0.00  0.00    +0.000 OA
ATOM     27  H   UNL     1       2.282   8.736  17.437  0.00  0.00    +0.000 HD
ENDBRANCH  23  26
ENDBRANCH  19  20
ENDBRANCH  18  19
ENDBRANCH  16  18
ENDBRANCH  15  16
ENDBRANCH   1  15
TORSDOF 8
ENDMDL
MODEL 2
REMARK VINA RESULT:      -7.4      1.069      1.476
REMARK  Name = 
REMARK  8 active torsions:
REMARK  status: ('A' for Active; 'I' for Inactive)
REMARK    1  A    between atoms: C_5  and  C_6
REMARK    2  A    between atoms: C_6  and  C_7
REMARK    3  A    between atoms: C_7  and  N_8
REMARK    4  A    between atoms: N_8  and  C_9
REMARK    5  A    between atoms: C_9  and  C_10
REMARK    6  A    between atoms: C_10  and  C_11
REMARK    7  A    between atoms: C_14  and  O_15
REMARK    8  A    between atoms: C_20  and  O_21
REMARK                            x       y       z     vdW  Elec       q    Type
REMARK                         _______ _______ _______ _____ _____    ______ ____
ROOT
ATOM      1  C   UNL     1       3.985   2.954  17.815  0.00  0.00    +0.000 C 
ENDROOT
BRANCH   1   6
ATOM      2  O   UNL     1       7.136   4.902  13.571  0.00  0.00    +0.000 OA
ATOM      3  C   UNL     1       6.825   4.888  14.752  0.00  0.00    +0.000 C 
ATOM      4  C   UNL     1       5.734   4.023  15.395  0.00  0.00    +0.000 C 
ATOM      5  C   UNL     1       5.805   4.430  16.840  0.00  0.00    +0.000 A 
ATOM      6  C   UNL     1       5.064   4.004  17.935  0.00  0.00    +0.000 A 
ATOM      7  C   UNL     1       5.385   4.571  19.183  0.00  0.00    +0.000 A 
ATOM      8  C   UNL     1       6.403   5.540  19.319  0.00  0.00    +0.000 A 
ATOM      9  C   UNL     1       7.123   5.954  18.204  0.00  0.00    +0.000 A 
ATOM     10  C   UNL     1       6.810   5.387  16.987  0.00  0.00    +0.000 A 
ATOM     11  N   UNL     1       7.399   5.648  15.759  0.00  0.00    +0.000 N 
ATOM     12  H   UNL     1       8.148   6.310  15.621  0.00  0.00    +0.000 HD
BRANCH   9  13
ATOM     13  O   UNL     1       8.113   6.884  18.279  0.00  0.00    +0.000 OA
ATOM     14  H   UNL     1       8.381   6.977  19.208  0.00  0.00    +0.000 HD
ENDBRANCH   9  13
ENDBRANCH   1   6
BRANCH   1  15
ATOM     15  C   UNL     1       3.060   2.952  19.041  0.00  0.00    +0.000 C 
BRANCH  15  16
ATOM     16  N   UNL     1       1.784   3.629  18.768  0.00  0.00    +0.000 NA
ATOM     17  H   UNL     1       1.077   2.938  18.518  0.00  0.00    +0.000 HD
BRANCH  16  18
ATOM     18  C   UNL     1       1.342   4.370  19.961  0.00  0.00    +0.000 C 
BRANCH  18  19
ATOM     19  C   UNL     1       2.378   5.413  20.402  0.00  0.00    +0.000 C 
BRANCH  19  20
ATOM     20  C   UNL     1       2.238   6.706  19.629  0.00  0.00    +0.000 A 
ATOM     21  C   UNL     1       1.598   7.812  20.208  0.00  0.00    +0.000 A 
ATOM     22  C   UNL     1       1.468   9.012  19.501  0.00  0.00    +0.000 A 
ATOM     23  C   UNL     1       1.973   9.102  18.209  0.00  0.00    +0.000 A 
ATOM     24  C   UNL     1       2.596   8.012  17.612  0.00  0.00    +0.000 A 
ATOM     25  C   UNL     1       2.727   6.815  18.319  0.00  0.00    +0.000 A 
BRANCH  23  26
ATOM     26  O   UNL     1       1.877  10.255  17.487  0.00  0.00    +0.000 OA
ATOM     27  H   UNL     1       0.942  10.507  17.429  0.00  0.00    +0.000 HD
ENDBRANCH  23  26
ENDBRANCH  19  20
ENDBRANCH  18  19
ENDBRANCH  16  18
ENDBRANCH  15  16
ENDBRANCH   1  15
TORSDOF 8
ENDMDL
MODEL 3
REMARK VINA RESULT:      -7.4      2.281      3.495
REMARK  Name = 
REMARK  8 active torsions:
REMARK  status: ('A' for Active; 'I' for Inactive)
REMARK    1  A    between atoms: C_5  and  C_6
REMARK    2  A    between atoms: C_6  and  C_7
REMARK    3  A    between atoms: C_7  and  N_8
REMARK    4  A    between atoms: N_8  and  C_9
REMARK    5  A    between atoms: C_9  and  C_10
REMARK    6  A    between atoms: C_10  and  C_11
REMARK    7  A    between atoms: C_14  and  O_15
REMARK    8  A    between atoms: C_20  and  O_21
REMARK                            x       y       z     vdW  Elec       q    Type
REMARK                         _______ _______ _______ _____ _____    ______ ____
ROOT
ATOM      1  C   UNL     1       3.462   6.394  17.342  0.00  0.00    +0.000 C 
ENDROOT
BRANCH   1   6
ATOM      2  O   UNL     1       6.746   4.472  13.189  0.00  0.00    +0.000 OA
ATOM      3  C   UNL     1       6.535   4.683  14.373  0.00  0.00    +0.000 C 
ATOM      4  C   UNL     1       5.278   5.327  14.971  0.00  0.00    +0.000 C 
ATOM      5  C   UNL     1       5.582   5.328  16.443  0.00  0.00    +0.000 A 
ATOM      6  C   UNL     1       4.833   5.787  17.519  0.00  0.00    +0.000 A 
ATOM      7  C   UNL     1       5.394   5.631  18.801  0.00  0.00    +0.000 A 
ATOM      8  C   UNL     1       6.667   5.049  18.989  0.00  0.00    +0.000 A 
ATOM      9  C   UNL     1       7.398   4.606  17.892  0.00  0.00    +0.000 A 
ATOM     10  C   UNL     1       6.839   4.754  16.641  0.00  0.00    +0.000 A 
ATOM     11  N   UNL     1       7.387   4.381  15.423  0.00  0.00    +0.000 N 
ATOM     12  H   UNL     1       8.292   3.948  15.321  0.00  0.00    +0.000 HD
BRANCH   9  13
ATOM     13  O   UNL     1       8.628   4.039  18.018  0.00  0.00    +0.000 OA
ATOM     14  H   UNL     1       9.290   4.746  18.092  0.00  0.00    +0.000 HD
ENDBRANCH   9  13
ENDBRANCH   1   6
BRANCH   1  15
ATOM     15  C   UNL     1       3.189   7.489  18.384  0.00  0.00    +0.000 C 
BRANCH  15  16
ATOM     16  N   UNL     1       1.936   7.252  19.114  0.00  0.00    +0.000 NA
ATOM     17  H   UNL     1       1.270   6.776  18.506  0.00  0.00    +0.000 HD
BRANCH  16  18
ATOM     18  C   UNL     1       2.195   6.419  20.300  0.00  0.00    +0.000 C 
BRANCH  18  19
ATOM     19  C   UNL     1       1.331   5.151  20.307  0.00  0.00    +0.000 C 
BRANCH  19  20
ATOM     20  C   UNL     1       2.064   3.967  19.715  0.00  0.00    +0.000 A 
ATOM     21  C   UNL     1       1.668   3.434  18.479  0.00  0.00    +0.000 A 
ATOM     22  C   UNL     1       2.343   2.343  17.923  0.00  0.00    +0.000 A 
ATOM     23  C   UNL     1       3.412   1.778  18.611  0.00  0.00    +0.000 A 
ATOM     24  C   UNL     1       3.809   2.282  19.844  0.00  0.00    +0.000 A 
ATOM     25  C   UNL     1       3.135   3.373  20.398  0.00  0.00    +0.000 A 
BRANCH  23  26
ATOM     26  O   UNL     1       4.104   0.720  18.102  0.00  0.00    +0.000 OA
ATOM     27  H   UNL     1       4.936   1.048  17.723  0.00  0.00    +0.000 HD
ENDBRANCH  23  26
ENDBRANCH  19  20
ENDBRANCH  18  19
ENDBRANCH  16  18
ENDBRANCH  15  16
ENDBRANCH   1  15
TORSDOF 8
ENDMDL
MODEL 4
REMARK VINA RESULT:      -7.2      2.643      6.111
REMARK  Name = 
REMARK  8 active torsions:
REMARK  status: ('A' for Active; 'I' for Inactive)
REMARK    1  A    between atoms: C_5  and  C_6
REMARK    2  A    between atoms: C_6  and  C_7
REMARK    3  A    between atoms: C_7  and  N_8
REMARK    4  A    between atoms: N_8  and  C_9
REMARK    5  A    between atoms: C_9  and  C_10
REMARK    6  A    between atoms: C_10  and  C_11
REMARK    7  A    between atoms: C_14  and  O_15
REMARK    8  A    between atoms: C_20  and  O_21
REMARK                            x       y       z     vdW  Elec       q    Type
REMARK                         _______ _______ _______ _____ _____    ______ ____
ROOT
ATOM      1  C   UNL     1       2.308   5.554  20.621  0.00  0.00    +0.000 C 
ENDROOT
BRANCH   1   6
ATOM      2  O   UNL     1       0.266  10.512  22.345  0.00  0.00    +0.000 OA
ATOM      3  C   UNL     1       0.741   9.796  21.478  0.00  0.00    +0.000 C 
ATOM      4  C   UNL     1       1.153   8.327  21.636  0.00  0.00    +0.000 C 
ATOM      5  C   UNL     1       1.663   7.982  20.265  0.00  0.00    +0.000 A 
ATOM      6  C   UNL     1       2.185   6.794  19.769  0.00  0.00    +0.000 A 
ATOM      7  C   UNL     1       2.567   6.780  18.414  0.00  0.00    +0.000 A 
ATOM      8  C   UNL     1       2.441   7.925  17.595  0.00  0.00    +0.000 A 
ATOM      9  C   UNL     1       1.923   9.103  18.122  0.00  0.00    +0.000 A 
ATOM     10  C   UNL     1       1.543   9.106  19.447  0.00  0.00    +0.000 A 
ATOM     11  N   UNL     1       1.004  10.161  20.167  0.00  0.00    +0.000 N 
ATOM     12  H   UNL     1       0.829  11.077  19.781  0.00  0.00    +0.000 HD
BRANCH   9  13
ATOM     13  O   UNL     1       1.782  10.233  17.378  0.00  0.00    +0.000 OA
ATOM     14  H   UNL     1       2.595  10.759  17.455  0.00  0.00    +0.000 HD
ENDBRANCH   9  13
ENDBRANCH   1   6
BRANCH   1  15
ATOM     15  C   UNL     1       1.121   4.601  20.409  0.00  0.00    +0.000 C 
BRANCH  15  16
ATOM     16  N   UNL     1       1.516   3.386  19.682  0.00  0.00    +0.000 NA
ATOM     17  H   UNL     1       1.164   3.431  18.725  0.00  0.00    +0.000 HD
BRANCH  16  18
ATOM     18  C   UNL     1       2.983   3.269  19.657  0.00  0.00    +0.000 C 
BRANCH  18  19
ATOM     19  C   UNL     1       3.504   2.913  18.257  0.00  0.00    +0.000 C 
BRANCH  19  20
ATOM     20  C   UNL     1       4.574   3.877  17.794  0.00  0.00    +0.000 A 
ATOM     21  C   UNL     1       4.721   4.171  16.430  0.00  0.00    +0.000 A 
ATOM     22  C   UNL     1       5.705   5.063  15.994  0.00  0.00    +0.000 A 
ATOM     23  C   UNL     1       6.550   5.657  16.925  0.00  0.00    +0.000 A 
ATOM     24  C   UNL     1       6.430   5.368  18.279  0.00  0.00    +0.000 A 
ATOM     25  C   UNL     1       5.446   4.477  18.714  0.00  0.00    +0.000 A 
BRANCH  23  26
ATOM     26  O   UNL     1       7.516   6.541  16.545  0.00  0.00    +0.000 OA
ATOM     27  H   UNL     1       8.378   6.099  16.599  0.00  0.00    +0.000 HD
ENDBRANCH  23  26
ENDBRANCH  19  20
ENDBRANCH  18  19
ENDBRANCH  16  18
ENDBRANCH  15  16
ENDBRANCH   1  15
TORSDOF 8
ENDMDL
MODEL 5
REMARK VINA RESULT:      -7.2      2.692      5.936
REMARK  Name = 
REMARK  8 active torsions:
REMARK  status: ('A' for Active; 'I' for Inactive)
REMARK    1  A    between atoms: C_5  and  C_6
REMARK    2  A    between atoms: C_6  and  C_7
REMARK    3  A    between atoms: C_7  and  N_8
REMARK    4  A    between atoms: N_8  and  C_9
REMARK    5  A    between atoms: C_9  and  C_10
REMARK    6  A    between atoms: C_10  and  C_11
REMARK    7  A    between atoms: C_14  and  O_15
REMARK    8  A    between atoms: C_20  and  O_21
REMARK                            x       y       z     vdW  Elec       q    Type
REMARK                         _______ _______ _______ _____ _____    ______ ____
ROOT
ATOM      1  C   UNL     1       2.241   5.594  20.697  0.00  0.00    +0.000 C 
ENDROOT
BRANCH   1   6
ATOM      2  O   UNL     1       0.222  10.599  22.308  0.00  0.00    +0.000 OA
ATOM      3  C   UNL     1       0.703   9.864  21.460  0.00  0.00    +0.000 C 
ATOM      4  C   UNL     1       1.099   8.395  21.649  0.00  0.00    +0.000 C 
ATOM      5  C   UNL     1       1.624   8.022  20.291  0.00  0.00    +0.000 A 
ATOM      6  C   UNL     1       2.141   6.821  19.822  0.00  0.00    +0.000 A 
ATOM      7  C   UNL     1       2.541   6.781  18.472  0.00  0.00    +0.000 A 
ATOM      8  C   UNL     1       2.437   7.912  17.633  0.00  0.00    +0.000 A 
ATOM      9  C   UNL     1       1.924   9.104  18.132  0.00  0.00    +0.000 A 
ATOM     10  C   UNL     1       1.526   9.133  19.452  0.00  0.00    +0.000 A 
ATOM     11  N   UNL     1       0.986  10.205  20.147  0.00  0.00    +0.000 N 
ATOM     12  H   UNL     1       0.825  11.115  19.743  0.00  0.00    +0.000 HD
BRANCH   9  13
ATOM     13  O   UNL     1       1.803  10.223  17.368  0.00  0.00    +0.000 OA
ATOM     14  H   UNL     1       0.970  10.170  16.871  0.00  0.00    +0.000 HD
ENDBRANCH   9  13
ENDBRANCH   1   6
BRANCH   1  15
ATOM     15  C   UNL     1       1.212   4.527  20.294  0.00  0.00    +0.000 C 
BRANCH  15  16
ATOM     16  N   UNL     1       1.763   3.168  20.391  0.00  0.00    +0.000 NA
ATOM     17  H   UNL     1       1.032   2.523  20.692  0.00  0.00    +0.000 HD
BRANCH  16  18
ATOM     18  C   UNL     1       2.281   2.740  19.080  0.00  0.00    +0.000 C 
BRANCH  18  19
ATOM     19  C   UNL     1       3.804   2.552  19.101  0.00  0.00    +0.000 C 
BRANCH  19  20
ATOM     20  C   UNL     1       4.518   3.668  18.369  0.00  0.00    +0.000 A 
ATOM     21  C   UNL     1       5.395   4.519  19.058  0.00  0.00    +0.000 A 
ATOM     22  C   UNL     1       6.061   5.550  18.388  0.00  0.00    +0.000 A 
ATOM     23  C   UNL     1       5.843   5.734  17.027  0.00  0.00    +0.000 A 
ATOM     24  C   UNL     1       4.967   4.911  16.331  0.00  0.00    +0.000 A 
ATOM     25  C   UNL     1       4.302   3.880  17.000  0.00  0.00    +0.000 A 
BRANCH  23  26
ATOM     26  O   UNL     1       6.480   6.719  16.333  0.00  0.00    +0.000 OA
ATOM     27  H   UNL     1       7.305   6.359  15.970  0.00  0.00    +0.000 HD
ENDBRANCH  23  26
ENDBRANCH  19  20
ENDBRANCH  18  19
ENDBRANCH  16  18
ENDBRANCH  15  16
ENDBRANCH   1  15
TORSDOF 8
ENDMDL
MODEL 6
REMARK VINA RESULT:      -7.2      0.363      1.070
REMARK  Name = 
REMARK  8 active torsions:
REMARK  status: ('A' for Active; 'I' for Inactive)
REMARK    1  A    between atoms: C_5  and  C_6
REMARK    2  A    between atoms: C_6  and  C_7
REMARK    3  A    between atoms: C_7  and  N_8
REMARK    4  A    between atoms: N_8  and  C_9
REMARK    5  A    between atoms: C_9  and  C_10
REMARK    6  A    between atoms: C_10  and  C_11
REMARK    7  A    between atoms: C_14  and  O_15
REMARK    8  A    between atoms: C_20  and  O_21
REMARK                            x       y       z     vdW  Elec       q    Type
REMARK                         _______ _______ _______ _____ _____    ______ ____
ROOT
ATOM      1  C   UNL     1       3.900   2.889  17.351  0.00  0.00    +0.000 C 
ENDROOT
BRANCH   1   6
ATOM      2  O   UNL     1       7.416   5.154  13.578  0.00  0.00    +0.000 OA
ATOM      3  C   UNL     1       7.003   5.044  14.722  0.00  0.00    +0.000 C 
ATOM      4  C   UNL     1       5.857   4.140  15.191  0.00  0.00    +0.000 C 
ATOM      5  C   UNL     1       5.803   4.423  16.667  0.00  0.00    +0.000 A 
ATOM      6  C   UNL     1       4.967   3.914  17.653  0.00  0.00    +0.000 A 
ATOM      7  C   UNL     1       5.179   4.371  18.968  0.00  0.00    +0.000 A 
ATOM      8  C   UNL     1       6.184   5.314  19.273  0.00  0.00    +0.000 A 
ATOM      9  C   UNL     1       7.001   5.813  18.264  0.00  0.00    +0.000 A 
ATOM     10  C   UNL     1       6.793   5.354  16.981  0.00  0.00    +0.000 A 
ATOM     11  N   UNL     1       7.488   5.711  15.835  0.00  0.00    +0.000 N 
ATOM     12  H   UNL     1       8.249   6.374  15.820  0.00  0.00    +0.000 HD
BRANCH   9  13
ATOM     13  O   UNL     1       7.983   6.723  18.503  0.00  0.00    +0.000 OA
ATOM     14  H   UNL     1       7.570   7.569  18.742  0.00  0.00    +0.000 HD
ENDBRANCH   9  13
ENDBRANCH   1   6
BRANCH   1  15
ATOM     15  C   UNL     1       3.881   1.767  18.400  0.00  0.00    +0.000 C 
BRANCH  15  16
ATOM     16  N   UNL     1       3.136   2.156  19.607  0.00  0.00    +0.000 NA
ATOM     17  H   UNL     1       3.356   3.123  19.847  0.00  0.00    +0.000 HD
BRANCH  16  18
ATOM     18  C   UNL     1       1.689   2.031  19.367  0.00  0.00    +0.000 C 
BRANCH  18  19
ATOM     19  C   UNL     1       0.905   3.199  19.979  0.00  0.00    +0.000 C 
BRANCH  19  20
ATOM     20  C   UNL     1       1.436   4.538  19.516  0.00  0.00    +0.000 A 
ATOM     21  C   UNL     1       1.451   4.860  18.151  0.00  0.00    +0.000 A 
ATOM     22  C   UNL     1       1.938   6.096  17.715  0.00  0.00    +0.000 A 
ATOM     23  C   UNL     1       2.417   7.010  18.648  0.00  0.00    +0.000 A 
ATOM     24  C   UNL     1       2.424   6.703  20.003  0.00  0.00    +0.000 A 
ATOM     25  C   UNL     1       1.938   5.468  20.438  0.00  0.00    +0.000 A 
BRANCH  23  26
ATOM     26  O   UNL     1       2.890   8.231  18.268  0.00  0.00    +0.000 OA
ATOM     27  H   UNL     1       3.684   8.431  18.790  0.00  0.00    +0.000 HD
ENDBRANCH  23  26
ENDBRANCH  19  20
ENDBRANCH  18  19
ENDBRANCH  16  18
ENDBRANCH  15  16
ENDBRANCH   1  15
TORSDOF 8
ENDMDL
MODEL 7
REMARK VINA RESULT:      -7.1      0.862      2.614
REMARK  Name = 
REMARK  8 active torsions:
REMARK  status: ('A' for Active; 'I' for Inactive)
REMARK    1  A    between atoms: C_5  and  C_6
REMARK    2  A    between atoms: C_6  and  C_7
REMARK    3  A    between atoms: C_7  and  N_8
REMARK    4  A    between atoms: N_8  and  C_9
REMARK    5  A    between atoms: C_9  and  C_10
REMARK    6  A    between atoms: C_10  and  C_11
REMARK    7  A    between atoms: C_14  and  O_15
REMARK    8  A    between atoms: C_20  and  O_21
REMARK                            x       y       z     vdW  Elec       q    Type
REMARK                         _______ _______ _______ _____ _____    ______ ____
ROOT
ATOM      1  C   UNL     1       4.872   3.629  19.442  0.00  0.00    +0.000 C 
ENDROOT
BRANCH   1   6
ATOM      2  O   UNL     1       8.527   7.827  18.581  0.00  0.00    +0.000 OA
ATOM      3  C   UNL     1       7.778   6.959  18.159  0.00  0.00    +0.000 C 
ATOM      4  C   UNL     1       6.936   5.997  19.005  0.00  0.00    +0.000 C 
ATOM      5  C   UNL     1       6.235   5.173  17.960  0.00  0.00    +0.000 A 
ATOM      6  C   UNL     1       5.334   4.125  18.093  0.00  0.00    +0.000 A 
ATOM      7  C   UNL     1       4.833   3.558  16.904  0.00  0.00    +0.000 A 
ATOM      8  C   UNL     1       5.238   4.022  15.633  0.00  0.00    +0.000 A 
ATOM      9  C   UNL     1       6.150   5.067  15.531  0.00  0.00    +0.000 A 
ATOM     10  C   UNL     1       6.628   5.623  16.699  0.00  0.00    +0.000 A 
ATOM     11  N   UNL     1       7.531   6.667  16.827  0.00  0.00    +0.000 N 
ATOM     12  H   UNL     1       7.953   7.148  16.047  0.00  0.00    +0.000 HD
BRANCH   9  13
ATOM     13  O   UNL     1       6.573   5.551  14.332  0.00  0.00    +0.000 OA
ATOM     14  H   UNL     1       6.335   6.490  14.275  0.00  0.00    +0.000 HD
ENDBRANCH   9  13
ENDBRANCH   1   6
BRANCH   1  15
ATOM     15  C   UNL     1       4.179   2.262  19.335  0.00  0.00    +0.000 C 
BRANCH  15  16
ATOM     16  N   UNL     1       3.101   2.114  20.324  0.00  0.00    +0.000 NA
ATOM     17  H   UNL     1       3.173   2.855  21.021  0.00  0.00    +0.000 HD
BRANCH  16  18
ATOM     18  C   UNL     1       1.791   2.197  19.657  0.00  0.00    +0.000 C 
BRANCH  18  19
ATOM     19  C   UNL     1       0.977   3.403  20.145  0.00  0.00    +0.000 C 
BRANCH  19  20
ATOM     20  C   UNL     1       1.510   4.705  19.588  0.00  0.00    +0.000 A 
ATOM     21  C   UNL     1       1.698   4.861  18.207  0.00  0.00    +0.000 A 
ATOM     22  C   UNL     1       2.187   6.062  17.684  0.00  0.00    +0.000 A 
ATOM     23  C   UNL     1       2.496   7.107  18.548  0.00  0.00    +0.000 A 
ATOM     24  C   UNL     1       2.331   6.967  19.921  0.00  0.00    +0.000 A 
ATOM     25  C   UNL     1       1.842   5.767  20.442  0.00  0.00    +0.000 A 
BRANCH  23  26
ATOM     26  O   UNL     1       2.965   8.299  18.081  0.00  0.00    +0.000 OA
ATOM     27  H   UNL     1       2.208   8.849  17.821  0.00  0.00    +0.000 HD
ENDBRANCH  23  26
ENDBRANCH  19  20
ENDBRANCH  18  19
ENDBRANCH  16  18
ENDBRANCH  15  16
ENDBRANCH   1  15
TORSDOF 8
ENDMDL
MODEL 8
REMARK VINA RESULT:      -7.1      1.024      1.659
REMARK  Name = 
REMARK  8 active torsions:
REMARK  status: ('A' for Active; 'I' for Inactive)
REMARK    1  A    between atoms: C_5  and  C_6
REMARK    2  A    between atoms: C_6  and  C_7
REMARK    3  A    between atoms: C_7  and  N_8
REMARK    4  A    between atoms: N_8  and  C_9
REMARK    5  A    between atoms: C_9  and  C_10
REMARK    6  A    between atoms: C_10  and  C_11
REMARK    7  A    between atoms: C_14  and  O_15
REMARK    8  A    between atoms: C_20  and  O_21
REMARK                            x       y       z     vdW  Elec       q    Type
REMARK                         _______ _______ _______ _____ _____    ______ ____
ROOT
ATOM      1  C   UNL     1       3.928   3.049  18.027  0.00  0.00    +0.000 C 
ENDROOT
BRANCH   1   6
ATOM      2  O   UNL     1       6.924   4.715  13.557  0.00  0.00    +0.000 OA
ATOM      3  C   UNL     1       6.665   4.767  14.749  0.00  0.00    +0.000 C 
ATOM      4  C   UNL     1       5.588   3.958  15.482  0.00  0.00    +0.000 C 
ATOM      5  C   UNL     1       5.730   4.436  16.900  0.00  0.00    +0.000 A 
ATOM      6  C   UNL     1       5.030   4.081  18.046  0.00  0.00    +0.000 A 
ATOM      7  C   UNL     1       5.416   4.704  19.249  0.00  0.00    +0.000 A 
ATOM      8  C   UNL     1       6.457   5.657  19.291  0.00  0.00    +0.000 A 
ATOM      9  C   UNL     1       7.135   5.999  18.126  0.00  0.00    +0.000 A 
ATOM     10  C   UNL     1       6.758   5.379  16.954  0.00  0.00    +0.000 A 
ATOM     11  N   UNL     1       7.296   5.565  15.690  0.00  0.00    +0.000 N 
ATOM     12  H   UNL     1       8.051   6.204  15.487  0.00  0.00    +0.000 HD
BRANCH   9  13
ATOM     13  O   UNL     1       8.144   6.912  18.110  0.00  0.00    +0.000 OA
ATOM     14  H   UNL     1       8.143   7.389  18.956  0.00  0.00    +0.000 HD
ENDBRANCH   9  13
ENDBRANCH   1   6
BRANCH   1  15
ATOM     15  C   UNL     1       3.549   2.601  19.446  0.00  0.00    +0.000 C 
BRANCH  15  16
ATOM     16  N   UNL     1       2.121   2.813  19.725  0.00  0.00    +0.000 NA
ATOM     17  H   UNL     1       1.957   2.758  20.731  0.00  0.00    +0.000 HD
BRANCH  16  18
ATOM     18  C   UNL     1       1.703   4.136  19.234  0.00  0.00    +0.000 C 
BRANCH  18  19
ATOM     19  C   UNL     1       2.188   5.266  20.154  0.00  0.00    +0.000 C 
BRANCH  19  20
ATOM     20  C   UNL     1       2.155   6.610  19.459  0.00  0.00    +0.000 A 
ATOM     21  C   UNL     1       2.709   6.760  18.180  0.00  0.00    +0.000 A 
ATOM     22  C   UNL     1       2.680   7.998  17.530  0.00  0.00    +0.000 A 
ATOM     23  C   UNL     1       2.100   9.090  18.167  0.00  0.00    +0.000 A 
ATOM     24  C   UNL     1       1.560   8.965  19.441  0.00  0.00    +0.000 A 
ATOM     25  C   UNL     1       1.590   7.728  20.089  0.00  0.00    +0.000 A 
BRANCH  23  26
ATOM     26  O   UNL     1       2.040  10.313  17.567  0.00  0.00    +0.000 OA
ATOM     27  H   UNL     1       2.670  10.326  16.828  0.00  0.00    +0.000 HD
ENDBRANCH  23  26
ENDBRANCH  19  20
ENDBRANCH  18  19
ENDBRANCH  16  18
ENDBRANCH  15  16
ENDBRANCH   1  15
TORSDOF 8
ENDMDL
MODEL 9
REMARK VINA RESULT:      -7.1      2.517      5.320
REMARK  Name = 
REMARK  8 active torsions:
REMARK  status: ('A' for Active; 'I' for Inactive)
REMARK    1  A    between atoms: C_5  and  C_6
REMARK    2  A    between atoms: C_6  and  C_7
REMARK    3  A    between atoms: C_7  and  N_8
REMARK    4  A    between atoms: N_8  and  C_9
REMARK    5  A    between atoms: C_9  and  C_10
REMARK    6  A    between atoms: C_10  and  C_11
REMARK    7  A    between atoms: C_14  and  O_15
REMARK    8  A    between atoms: C_20  and  O_21
REMARK                            x       y       z     vdW  Elec       q    Type
REMARK                         _______ _______ _______ _____ _____    ______ ____
ROOT
ATOM      1  C   UNL     1       0.915   4.227  20.380  0.00  0.00    +0.000 C 
ENDROOT
BRANCH   1   6
ATOM      2  O   UNL     1       5.478   1.236  21.777  0.00  0.00    +0.000 OA
ATOM      3  C   UNL     1       4.733   1.719  20.939  0.00  0.00    +0.000 C 
ATOM      4  C   UNL     1       3.473   2.548  21.214  0.00  0.00    +0.000 C 
ATOM      5  C   UNL     1       2.979   2.858  19.828  0.00  0.00    +0.000 A 
ATOM      6  C   UNL     1       1.868   3.577  19.406  0.00  0.00    +0.000 A 
ATOM      7  C   UNL     1       1.681   3.707  18.016  0.00  0.00    +0.000 A 
ATOM      8  C   UNL     1       2.573   3.123  17.089  0.00  0.00    +0.000 A 
ATOM      9  C   UNL     1       3.672   2.401  17.541  0.00  0.00    +0.000 A 
ATOM     10  C   UNL     1       3.853   2.286  18.903  0.00  0.00    +0.000 A 
ATOM     11  N   UNL     1       4.875   1.621  19.564  0.00  0.00    +0.000 N 
ATOM     12  H   UNL     1       5.622   1.129  19.098  0.00  0.00    +0.000 HD
BRANCH   9  13
ATOM     13  O   UNL     1       4.560   1.818  16.692  0.00  0.00    +0.000 OA
ATOM     14  H   UNL     1       4.354   2.101  15.786  0.00  0.00    +0.000 HD
ENDBRANCH   9  13
ENDBRANCH   1   6
BRANCH   1  15
ATOM     15  C   UNL     1       1.477   5.549  20.925  0.00  0.00    +0.000 C 
BRANCH  15  16
ATOM     16  N   UNL     1       1.457   6.614  19.912  0.00  0.00    +0.000 NA
ATOM     17  H   UNL     1       0.922   7.409  20.262  0.00  0.00    +0.000 HD
BRANCH  16  18
ATOM     18  C   UNL     1       2.831   7.046  19.609  0.00  0.00    +0.000 C 
BRANCH  18  19
ATOM     19  C   UNL     1       3.144   6.946  18.109  0.00  0.00    +0.000 C 
BRANCH  19  20
ATOM     20  C   UNL     1       4.432   6.193  17.853  0.00  0.00    +0.000 A 
ATOM     21  C   UNL     1       4.893   6.005  16.542  0.00  0.00    +0.000 A 
ATOM     22  C   UNL     1       6.083   5.314  16.296  0.00  0.00    +0.000 A 
ATOM     23  C   UNL     1       6.810   4.804  17.366  0.00  0.00    +0.000 A 
ATOM     24  C   UNL     1       6.362   4.966  18.671  0.00  0.00    +0.000 A 
ATOM     25  C   UNL     1       5.173   5.658  18.916  0.00  0.00    +0.000 A 
BRANCH  23  26
ATOM     26  O   UNL     1       7.981   4.133  17.174  0.00  0.00    +0.000 OA
ATOM     27  H   UNL     1       8.703   4.653  17.561  0.00  0.00    +0.000 HD
ENDBRANCH  23  26
ENDBRANCH  19  20
ENDBRANCH  18  19
ENDBRANCH  16  18
ENDBRANCH  15  16
ENDBRANCH   1  15
TORSDOF 8
ENDMDL
