MODEL 1
REMARK VINA RESULT:      -8.6      0.000      0.000
REMARK  Name = 
REMARK  14 active torsions:
REMARK  status: ('A' for Active; 'I' for Inactive)
REMARK    1  A    between atoms: C_4  and  C_5
REMARK    2  A    between atoms: C_10  and  C_11
REMARK    3  A    between atoms: C_15  and  C_16
REMARK    4  A    between atoms: C_16  and  C_17
REMARK    5  A    between atoms: C_16  and  O_18
REMARK    6  A    between atoms: O_18  and  C_19
REMARK    7  A    between atoms: C_19  and  C_20
REMARK    8  A    between atoms: C_20  and  O_22
REMARK    9  A    between atoms: O_22  and  C_23
REMARK   10  A    between atoms: C_23  and  C_24
REMARK   11  A    between atoms: C_23  and  C_25
REMARK   12  A    between atoms: C_23  and  C_26
REMARK   13  A    between atoms: C_28  and  O_29
REMARK   14  A    between atoms: C_31  and  O_32
REMARK                            x       y       z     vdW  Elec       q    Type
REMARK                         _______ _______ _______ _____ _____    ______ ____
ROOT
ATOM      1  C   UNL     1       1.519   8.628  19.523  0.00  0.00    +0.000 C 
ATOM      2  C   UNL     1       2.058   7.399  19.727  0.00  0.00    +0.000 C 
ATOM      3  C   UNL     1       1.804   6.564  20.973  0.00  0.00    +0.000 C 
ATOM      4  C   UNL     1       1.778   5.054  20.717  0.00  0.00    +0.000 C 
ATOM      5  C   UNL     1       2.981   4.553  19.880  0.00  0.00    +0.000 C 
ATOM      6  C   UNL     1       3.024   5.272  18.508  0.00  0.00    +0.000 C 
ATOM      7  C   UNL     1       1.791   4.770  17.706  0.00  0.00    +0.000 C 
ATOM      8  C   UNL     1       3.147   6.788  18.860  0.00  0.00    +0.000 C 
ATOM      9  C   UNL     1       3.602   7.473  17.582  0.00  0.00    +0.000 C 
ATOM     10  C   UNL     1       4.609   6.490  16.998  0.00  0.00    +0.000 C 
ATOM     11  C   UNL     1       4.231   5.076  17.502  0.00  0.00    +0.000 C 
ENDROOT
BRANCH   1  15
ATOM     12  C   UNL     1      -0.916  10.179  17.827  0.00  0.00    +0.000 C 
ATOM     13  C   UNL     1      -0.566  10.942  18.878  0.00  0.00    +0.000 C 
ATOM     14  C   UNL     1      -0.241  10.338  20.173  0.00  0.00    +0.000 C 
ATOM     15  C   UNL     1       0.644   9.350  20.422  0.00  0.00    +0.000 C 
ATOM     16  C   UNL     1      -0.996  10.967  21.345  0.00  0.00    +0.000 C 
ATOM     17  C   UNL     1      -0.964  12.505  21.345  0.00  0.00    +0.000 C 
ATOM     18  C   UNL     1      -1.365  13.075  19.990  0.00  0.00    +0.000 C 
ATOM     19  C   UNL     1      -0.542  12.466  18.852  0.00  0.00    +0.000 C 
BRANCH  17  20
ATOM     20  O   UNL     1       0.318  12.994  21.735  0.00  0.00    +0.000 OA
ATOM     21  H   UNL     1       0.973  12.687  21.086  0.00  0.00    +0.000 HD
ENDBRANCH  17  20
BRANCH  19  22
ATOM     22  O   UNL     1      -1.046  12.981  17.618  0.00  0.00    +0.000 OA
ATOM     23  H   UNL     1      -0.364  12.829  16.943  0.00  0.00    +0.000 HD
ENDBRANCH  19  22
ENDBRANCH   1  15
BRANCH  11  24
ATOM     24  C   UNL     1       5.442   4.219  17.912  0.00  0.00    +0.000 C 
ATOM     25  C   UNL     1       6.428   5.065  18.741  0.00  0.00    +0.000 C 
BRANCH  24  26
ATOM     26  O   UNL     1       6.075   3.829  16.697  0.00  0.00    +0.000 OA
BRANCH  26  27
ATOM     27  C   UNL     1       5.291   3.910  15.517  0.00  0.00    +0.000 C 
BRANCH  27  28
ATOM     28  C   UNL     1       6.228   4.277  14.375  0.00  0.00    +0.000 C 
ATOM     29  O   UNL     1       6.676   5.402  14.182  0.00  0.00    +0.000 OA
BRANCH  28  30
ATOM     30  O   UNL     1       6.486   3.183  13.604  0.00  0.00    +0.000 OA
BRANCH  30  31
ATOM     31  C   UNL     1       6.103   3.230  12.200  0.00  0.00    +0.000 C 
ATOM     32  C   UNL     1       4.678   3.776  12.027  0.00  0.00    +0.000 C 
ATOM     33  C   UNL     1       7.078   4.218  11.540  0.00  0.00    +0.000 C 
ATOM     34  C   UNL     1       6.300   1.858  11.543  0.00  0.00    +0.000 C 
ENDBRANCH  30  31
ENDBRANCH  28  30
ENDBRANCH  27  28
ENDBRANCH  26  27
ENDBRANCH  24  26
ENDBRANCH  11  24
TORSDOF 9
ENDMDL
MODEL 2
REMARK VINA RESULT:      -8.0      1.363      1.803
REMARK  Name = 
REMARK  14 active torsions:
REMARK  status: ('A' for Active; 'I' for Inactive)
REMARK    1  A    between atoms: C_4  and  C_5
REMARK    2  A    between atoms: C_10  and  C_11
REMARK    3  A    between atoms: C_15  and  C_16
REMARK    4  A    between atoms: C_16  and  C_17
REMARK    5  A    between atoms: C_16  and  O_18
REMARK    6  A    between atoms: O_18  and  C_19
REMARK    7  A    between atoms: C_19  and  C_20
REMARK    8  A    between atoms: C_20  and  O_22
REMARK    9  A    between atoms: O_22  and  C_23
REMARK   10  A    between atoms: C_23  and  C_24
REMARK   11  A    between atoms: C_23  and  C_25
REMARK   12  A    between atoms: C_23  and  C_26
REMARK   13  A    between atoms: C_28  and  O_29
REMARK   14  A    between atoms: C_31  and  O_32
REMARK                            x       y       z     vdW  Elec       q    Type
REMARK                         _______ _______ _______ _____ _____    ______ ____
ROOT
ATOM      1  C   UNL     1       1.831   7.363  19.766  0.00  0.00    +0.000 C 
ATOM      2  C   UNL     1       2.684   6.307  19.745  0.00  0.00    +0.000 C 
ATOM      3  C   UNL     1       2.686   5.205  20.794  0.00  0.00    +0.000 C 
ATOM      4  C   UNL     1       3.062   3.824  20.247  0.00  0.00    +0.000 C 
ATOM      5  C   UNL     1       4.342   3.839  19.373  0.00  0.00    +0.000 C 
ATOM      6  C   UNL     1       4.166   4.802  18.171  0.00  0.00    +0.000 C 
ATOM      7  C   UNL     1       3.101   4.157  17.241  0.00  0.00    +0.000 C 
ATOM      8  C   UNL     1       3.882   6.194  18.817  0.00  0.00    +0.000 C 
ATOM      9  C   UNL     1       4.114   7.215  17.716  0.00  0.00    +0.000 C 
ATOM     10  C   UNL     1       5.339   6.672  16.989  0.00  0.00    +0.000 C 
ATOM     11  C   UNL     1       5.364   5.138  17.192  0.00  0.00    +0.000 C 
ENDROOT
BRANCH   1  15
ATOM     12  C   UNL     1       0.151  10.161  19.016  0.00  0.00    +0.000 C 
ATOM     13  C   UNL     1       0.257  10.064  20.354  0.00  0.00    +0.000 C 
ATOM     14  C   UNL     1       0.135   8.768  21.027  0.00  0.00    +0.000 C 
ATOM     15  C   UNL     1       0.809   7.632  20.755  0.00  0.00    +0.000 C 
ATOM     16  C   UNL     1      -0.861   8.777  22.189  0.00  0.00    +0.000 C 
ATOM     17  C   UNL     1      -0.680   9.967  23.146  0.00  0.00    +0.000 C 
ATOM     18  C   UNL     1      -0.616  11.290  22.393  0.00  0.00    +0.000 C 
ATOM     19  C   UNL     1       0.436  11.259  21.281  0.00  0.00    +0.000 C 
BRANCH  17  20
ATOM     20  O   UNL     1       0.477   9.800  23.963  0.00  0.00    +0.000 OA
ATOM     21  H   UNL     1       1.256  10.070  23.450  0.00  0.00    +0.000 HD
ENDBRANCH  17  20
BRANCH  19  22
ATOM     22  O   UNL     1       0.362  12.497  20.570  0.00  0.00    +0.000 OA
ATOM     23  H   UNL     1      -0.191  13.098  21.097  0.00  0.00    +0.000 HD
ENDBRANCH  19  22
ENDBRANCH   1  15
BRANCH  11  24
ATOM     24  C   UNL     1       6.768   4.572  17.471  0.00  0.00    +0.000 C 
ATOM     25  C   UNL     1       7.585   5.580  18.304  0.00  0.00    +0.000 C 
BRANCH  24  26
ATOM     26  O   UNL     1       7.387   4.414  16.199  0.00  0.00    +0.000 OA
BRANCH  26  27
ATOM     27  C   UNL     1       6.711   3.591  15.261  0.00  0.00    +0.000 C 
BRANCH  27  28
ATOM     28  C   UNL     1       6.537   4.405  13.986  0.00  0.00    +0.000 C 
ATOM     29  O   UNL     1       7.288   5.308  13.635  0.00  0.00    +0.000 OA
BRANCH  28  30
ATOM     30  O   UNL     1       5.431   3.991  13.306  0.00  0.00    +0.000 OA
BRANCH  30  31
ATOM     31  C   UNL     1       5.618   3.416  11.982  0.00  0.00    +0.000 C 
ATOM     32  C   UNL     1       4.308   3.422  11.181  0.00  0.00    +0.000 C 
ATOM     33  C   UNL     1       6.620   4.338  11.270  0.00  0.00    +0.000 C 
ATOM     34  C   UNL     1       6.247   2.021  12.086  0.00  0.00    +0.000 C 
ENDBRANCH  30  31
ENDBRANCH  28  30
ENDBRANCH  27  28
ENDBRANCH  26  27
ENDBRANCH  24  26
ENDBRANCH  11  24
TORSDOF 9
ENDMDL
MODEL 3
REMARK VINA RESULT:      -7.9      1.253      1.714
REMARK  Name = 
REMARK  14 active torsions:
REMARK  status: ('A' for Active; 'I' for Inactive)
REMARK    1  A    between atoms: C_4  and  C_5
REMARK    2  A    between atoms: C_10  and  C_11
REMARK    3  A    between atoms: C_15  and  C_16
REMARK    4  A    between atoms: C_16  and  C_17
REMARK    5  A    between atoms: C_16  and  O_18
REMARK    6  A    between atoms: O_18  and  C_19
REMARK    7  A    between atoms: C_19  and  C_20
REMARK    8  A    between atoms: C_20  and  O_22
REMARK    9  A    between atoms: O_22  and  C_23
REMARK   10  A    between atoms: C_23  and  C_24
REMARK   11  A    between atoms: C_23  and  C_25
REMARK   12  A    between atoms: C_23  and  C_26
REMARK   13  A    between atoms: C_28  and  O_29
REMARK   14  A    between atoms: C_31  and  O_32
REMARK                            x       y       z     vdW  Elec       q    Type
REMARK                         _______ _______ _______ _____ _____    ______ ____
ROOT
ATOM      1  C   UNL     1       1.247   9.051  18.625  0.00  0.00    +0.000 C 
ATOM      2  C   UNL     1       1.869   7.937  19.092  0.00  0.00    +0.000 C 
ATOM      3  C   UNL     1       1.627   7.354  20.475  0.00  0.00    +0.000 C 
ATOM      4  C   UNL     1       1.727   5.826  20.534  0.00  0.00    +0.000 C 
ATOM      5  C   UNL     1       3.000   5.269  19.850  0.00  0.00    +0.000 C 
ATOM      6  C   UNL     1       3.047   5.697  18.361  0.00  0.00    +0.000 C 
ATOM      7  C   UNL     1       1.892   4.941  17.647  0.00  0.00    +0.000 C 
ATOM      8  C   UNL     1       3.038   7.258  18.398  0.00  0.00    +0.000 C 
ATOM      9  C   UNL     1       3.493   7.706  17.019  0.00  0.00    +0.000 C 
ATOM     10  C   UNL     1       4.597   6.712  16.676  0.00  0.00    +0.000 C 
ATOM     11  C   UNL     1       4.308   5.403  17.449  0.00  0.00    +0.000 C 
ENDROOT
BRANCH   1  15
ATOM     12  C   UNL     1       1.959  12.306  18.301  0.00  0.00    +0.000 C 
ATOM     13  C   UNL     1       1.449  12.094  19.528  0.00  0.00    +0.000 C 
ATOM     14  C   UNL     1       0.348  11.150  19.732  0.00  0.00    +0.000 C 
ATOM     15  C   UNL     1       0.281   9.863  19.333  0.00  0.00    +0.000 C 
ATOM     16  C   UNL     1      -0.818  11.739  20.530  0.00  0.00    +0.000 C 
ATOM     17  C   UNL     1      -0.381  12.479  21.805  0.00  0.00    +0.000 C 
ATOM     18  C   UNL     1       0.727  13.486  21.519  0.00  0.00    +0.000 C 
ATOM     19  C   UNL     1       1.901  12.841  20.776  0.00  0.00    +0.000 C 
BRANCH  17  20
ATOM     20  O   UNL     1       0.025  11.562  22.819  0.00  0.00    +0.000 OA
ATOM     21  H   UNL     1       0.235  10.712  22.398  0.00  0.00    +0.000 HD
ENDBRANCH  17  20
BRANCH  19  22
ATOM     22  O   UNL     1       2.843  13.869  20.466  0.00  0.00    +0.000 OA
ATOM     23  H   UNL     1       3.615  13.439  20.061  0.00  0.00    +0.000 HD
ENDBRANCH  19  22
ENDBRANCH   1  15
BRANCH  11  24
ATOM     24  C   UNL     1       5.563   4.752  18.058  0.00  0.00    +0.000 C 
ATOM     25  C   UNL     1       6.279   5.755  18.983  0.00  0.00    +0.000 C 
BRANCH  24  26
ATOM     26  O   UNL     1       6.416   4.443  16.961  0.00  0.00    +0.000 OA
BRANCH  26  27
ATOM     27  C   UNL     1       5.863   3.634  15.934  0.00  0.00    +0.000 C 
BRANCH  27  28
ATOM     28  C   UNL     1       6.421   4.138  14.610  0.00  0.00    +0.000 C 
ATOM     29  O   UNL     1       6.742   5.302  14.394  0.00  0.00    +0.000 OA
BRANCH  28  30
ATOM     30  O   UNL     1       6.500   3.118  13.710  0.00  0.00    +0.000 OA
BRANCH  30  31
ATOM     31  C   UNL     1       6.201   3.411  12.316  0.00  0.00    +0.000 C 
ATOM     32  C   UNL     1       7.225   4.386  11.717  0.00  0.00    +0.000 C 
ATOM     33  C   UNL     1       6.328   2.070  11.576  0.00  0.00    +0.000 C 
ATOM     34  C   UNL     1       4.755   3.900  12.167  0.00  0.00    +0.000 C 
ENDBRANCH  30  31
ENDBRANCH  28  30
ENDBRANCH  27  28
ENDBRANCH  26  27
ENDBRANCH  24  26
ENDBRANCH  11  24
TORSDOF 9
ENDMDL
MODEL 4
REMARK VINA RESULT:      -7.8      0.997      1.268
REMARK  Name = 
REMARK  14 active torsions:
REMARK  status: ('A' for Active; 'I' for Inactive)
REMARK    1  A    between atoms: C_4  and  C_5
REMARK    2  A    between atoms: C_10  and  C_11
REMARK    3  A    between atoms: C_15  and  C_16
REMARK    4  A    between atoms: C_16  and  C_17
REMARK    5  A    between atoms: C_16  and  O_18
REMARK    6  A    between atoms: O_18  and  C_19
REMARK    7  A    between atoms: C_19  and  C_20
REMARK    8  A    between atoms: C_20  and  O_22
REMARK    9  A    between atoms: O_22  and  C_23
REMARK   10  A    between atoms: C_23  and  C_24
REMARK   11  A    between atoms: C_23  and  C_25
REMARK   12  A    between atoms: C_23  and  C_26
REMARK   13  A    between atoms: C_28  and  O_29
REMARK   14  A    between atoms: C_31  and  O_32
REMARK                            x       y       z     vdW  Elec       q    Type
REMARK                         _______ _______ _______ _____ _____    ______ ____
ROOT
ATOM      1  C   UNL     1       1.348   8.729  19.589  0.00  0.00    +0.000 C 
ATOM      2  C   UNL     1       1.820   7.479  19.828  0.00  0.00    +0.000 C 
ATOM      3  C   UNL     1       1.489   6.679  21.079  0.00  0.00    +0.000 C 
ATOM      4  C   UNL     1       1.396   5.167  20.846  0.00  0.00    +0.000 C 
ATOM      5  C   UNL     1       2.598   4.595  20.054  0.00  0.00    +0.000 C 
ATOM      6  C   UNL     1       2.718   5.288  18.673  0.00  0.00    +0.000 C 
ATOM      7  C   UNL     1       1.486   4.831  17.841  0.00  0.00    +0.000 C 
ATOM      8  C   UNL     1       2.903   6.802  19.005  0.00  0.00    +0.000 C 
ATOM      9  C   UNL     1       3.429   7.442  17.731  0.00  0.00    +0.000 C 
ATOM     10  C   UNL     1       4.404   6.401  17.194  0.00  0.00    +0.000 C 
ATOM     11  C   UNL     1       3.943   5.016  17.707  0.00  0.00    +0.000 C 
ENDROOT
BRANCH   1  15
ATOM     12  C   UNL     1      -1.084  10.199  17.818  0.00  0.00    +0.000 C 
ATOM     13  C   UNL     1      -0.723  11.018  18.822  0.00  0.00    +0.000 C 
ATOM     14  C   UNL     1      -0.396  10.486  20.147  0.00  0.00    +0.000 C 
ATOM     15  C   UNL     1       0.483   9.508  20.448  0.00  0.00    +0.000 C 
ATOM     16  C   UNL     1      -1.141  11.187  21.286  0.00  0.00    +0.000 C 
ATOM     17  C   UNL     1      -1.098  12.722  21.198  0.00  0.00    +0.000 C 
ATOM     18  C   UNL     1      -1.502  13.217  19.814  0.00  0.00    +0.000 C 
ATOM     19  C   UNL     1      -0.689  12.537  18.709  0.00  0.00    +0.000 C 
BRANCH  17  20
ATOM     20  O   UNL     1       0.189  13.222  21.553  0.00  0.00    +0.000 OA
ATOM     21  H   UNL     1       0.640  13.512  20.742  0.00  0.00    +0.000 HD
ENDBRANCH  17  20
BRANCH  19  22
ATOM     22  O   UNL     1      -1.195  12.986  17.450  0.00  0.00    +0.000 OA
ATOM     23  H   UNL     1      -1.890  13.639  17.637  0.00  0.00    +0.000 HD
ENDBRANCH  19  22
ENDBRANCH   1  15
BRANCH  11  24
ATOM     24  C   UNL     1       5.098   4.109  18.168  0.00  0.00    +0.000 C 
ATOM     25  C   UNL     1       5.903   4.807  19.281  0.00  0.00    +0.000 C 
BRANCH  24  26
ATOM     26  O   UNL     1       5.937   3.935  17.030  0.00  0.00    +0.000 OA
BRANCH  26  27
ATOM     27  C   UNL     1       7.291   4.336  17.172  0.00  0.00    +0.000 C 
BRANCH  27  28
ATOM     28  C   UNL     1       7.590   5.324  16.052  0.00  0.00    +0.000 C 
ATOM     29  O   UNL     1       7.627   6.541  16.195  0.00  0.00    +0.000 OA
BRANCH  28  30
ATOM     30  O   UNL     1       7.802   4.661  14.880  0.00  0.00    +0.000 OA
BRANCH  30  31
ATOM     31  C   UNL     1       6.798   4.785  13.833  0.00  0.00    +0.000 C 
ATOM     32  C   UNL     1       5.709   5.795  14.220  0.00  0.00    +0.000 C 
ATOM     33  C   UNL     1       7.546   5.333  12.608  0.00  0.00    +0.000 C 
ATOM     34  C   UNL     1       6.231   3.408  13.466  0.00  0.00    +0.000 C 
ENDBRANCH  30  31
ENDBRANCH  28  30
ENDBRANCH  27  28
ENDBRANCH  26  27
ENDBRANCH  24  26
ENDBRANCH  11  24
TORSDOF 9
ENDMDL
MODEL 5
REMARK VINA RESULT:      -7.6      3.773     11.435
REMARK  Name = 
REMARK  14 active torsions:
REMARK  status: ('A' for Active; 'I' for Inactive)
REMARK    1  A    between atoms: C_4  and  C_5
REMARK    2  A    between atoms: C_10  and  C_11
REMARK    3  A    between atoms: C_15  and  C_16
REMARK    4  A    between atoms: C_16  and  C_17
REMARK    5  A    between atoms: C_16  and  O_18
REMARK    6  A    between atoms: O_18  and  C_19
REMARK    7  A    between atoms: C_19  and  C_20
REMARK    8  A    between atoms: C_20  and  O_22
REMARK    9  A    between atoms: O_22  and  C_23
REMARK   10  A    between atoms: C_23  and  C_24
REMARK   11  A    between atoms: C_23  and  C_25
REMARK   12  A    between atoms: C_23  and  C_26
REMARK   13  A    between atoms: C_28  and  O_29
REMARK   14  A    between atoms: C_31  and  O_32
REMARK                            x       y       z     vdW  Elec       q    Type
REMARK                         _______ _______ _______ _____ _____    ______ ____
ROOT
ATOM      1  C   UNL     1       1.033   7.868  20.375  0.00  0.00    +0.000 C 
ATOM      2  C   UNL     1       0.258   8.750  21.056  0.00  0.00    +0.000 C 
ATOM      3  C   UNL     1      -0.084   8.607  22.531  0.00  0.00    +0.000 C 
ATOM      4  C   UNL     1      -0.225   9.942  23.270  0.00  0.00    +0.000 C 
ATOM      5  C   UNL     1      -1.126  10.961  22.530  0.00  0.00    +0.000 C 
ATOM      6  C   UNL     1      -0.566  11.252  21.114  0.00  0.00    +0.000 C 
ATOM      7  C   UNL     1       0.766  12.028  21.317  0.00  0.00    +0.000 C 
ATOM      8  C   UNL     1      -0.547   9.862  20.403  0.00  0.00    +0.000 C 
ATOM      9  C   UNL     1      -0.405  10.160  18.920  0.00  0.00    +0.000 C 
ATOM     10  C   UNL     1      -1.295  11.381  18.722  0.00  0.00    +0.000 C 
ATOM     11  C   UNL     1      -1.361  12.138  20.070  0.00  0.00    +0.000 C 
ENDROOT
BRANCH   1  15
ATOM     12  C   UNL     1       2.619   6.178  17.958  0.00  0.00    +0.000 C 
ATOM     13  C   UNL     1       2.090   5.298  18.827  0.00  0.00    +0.000 C 
ATOM     14  C   UNL     1       2.096   5.565  20.267  0.00  0.00    +0.000 C 
ATOM     15  C   UNL     1       1.648   6.669  20.902  0.00  0.00    +0.000 C 
ATOM     16  C   UNL     1       2.652   4.408  21.100  0.00  0.00    +0.000 C 
ATOM     17  C   UNL     1       2.066   3.038  20.719  0.00  0.00    +0.000 C 
ATOM     18  C   UNL     1       2.140   2.794  19.216  0.00  0.00    +0.000 C 
ATOM     19  C   UNL     1       1.516   3.946  18.423  0.00  0.00    +0.000 C 
BRANCH  17  20
ATOM     20  O   UNL     1       0.725   2.904  21.183  0.00  0.00    +0.000 OA
ATOM     21  H   UNL     1       0.422   2.001  20.988  0.00  0.00    +0.000 HD
ENDBRANCH  17  20
BRANCH  19  22
ATOM     22  O   UNL     1       1.713   3.681  17.033  0.00  0.00    +0.000 OA
ATOM     23  H   UNL     1       2.336   2.938  16.968  0.00  0.00    +0.000 HD
ENDBRANCH  19  22
ENDBRANCH   1  15
BRANCH  11  24
ATOM     24  C   UNL     1      -2.765  12.664  20.418  0.00  0.00    +0.000 C 
ATOM     25  C   UNL     1      -3.763  12.272  19.311  0.00  0.00    +0.000 C 
BRANCH  24  26
ATOM     26  O   UNL     1      -2.653  14.083  20.459  0.00  0.00    +0.000 OA
BRANCH  26  27
ATOM     27  C   UNL     1      -1.967  14.635  21.572  0.00  0.00    +0.000 C 
BRANCH  27  28
ATOM     28  C   UNL     1      -3.021  15.128  22.554  0.00  0.00    +0.000 C 
ATOM     29  O   UNL     1      -2.777  15.520  23.690  0.00  0.00    +0.000 OA
BRANCH  28  30
ATOM     30  O   UNL     1      -4.260  15.061  21.992  0.00  0.00    +0.000 OA
BRANCH  30  31
ATOM     31  C   UNL     1      -5.304  14.354  22.720  0.00  0.00    +0.000 C 
ATOM     32  C   UNL     1      -6.024  15.282  23.708  0.00  0.00    +0.000 C 
ATOM     33  C   UNL     1      -6.319  13.908  21.655  0.00  0.00    +0.000 C 
ATOM     34  C   UNL     1      -4.735  13.097  23.389  0.00  0.00    +0.000 C 
ENDBRANCH  30  31
ENDBRANCH  28  30
ENDBRANCH  27  28
ENDBRANCH  26  27
ENDBRANCH  24  26
ENDBRANCH  11  24
TORSDOF 9
ENDMDL
MODEL 6
REMARK VINA RESULT:      -7.6      4.097     11.156
REMARK  Name = 
REMARK  14 active torsions:
REMARK  status: ('A' for Active; 'I' for Inactive)
REMARK    1  A    between atoms: C_4  and  C_5
REMARK    2  A    between atoms: C_10  and  C_11
REMARK    3  A    between atoms: C_15  and  C_16
REMARK    4  A    between atoms: C_16  and  C_17
REMARK    5  A    between atoms: C_16  and  O_18
REMARK    6  A    between atoms: O_18  and  C_19
REMARK    7  A    between atoms: C_19  and  C_20
REMARK    8  A    between atoms: C_20  and  O_22
REMARK    9  A    between atoms: O_22  and  C_23
REMARK   10  A    between atoms: C_23  and  C_24
REMARK   11  A    between atoms: C_23  and  C_25
REMARK   12  A    between atoms: C_23  and  C_26
REMARK   13  A    between atoms: C_28  and  O_29
REMARK   14  A    between atoms: C_31  and  O_32
REMARK                            x       y       z     vdW  Elec       q    Type
REMARK                         _______ _______ _______ _____ _____    ______ ____
ROOT
ATOM      1  C   UNL     1       2.168   7.436  19.386  0.00  0.00    +0.000 C 
ATOM      2  C   UNL     1       1.318   8.169  20.150  0.00  0.00    +0.000 C 
ATOM      3  C   UNL     1       1.063   7.898  21.624  0.00  0.00    +0.000 C 
ATOM      4  C   UNL     1       0.787   9.158  22.451  0.00  0.00    +0.000 C 
ATOM      5  C   UNL     1      -0.269  10.092  21.810  0.00  0.00    +0.000 C 
ATOM      6  C   UNL     1       0.185  10.535  20.397  0.00  0.00    +0.000 C 
ATOM      7  C   UNL     1       1.415  11.465  20.598  0.00  0.00    +0.000 C 
ATOM      8  C   UNL     1       0.350   9.203  19.599  0.00  0.00    +0.000 C 
ATOM      9  C   UNL     1       0.386   9.603  18.133  0.00  0.00    +0.000 C 
ATOM     10  C   UNL     1      -0.661  10.707  18.045  0.00  0.00    +0.000 C 
ATOM     11  C   UNL     1      -0.762  11.370  19.440  0.00  0.00    +0.000 C 
ENDROOT
BRANCH   1  15
ATOM     12  C   UNL     1       1.469   4.738  17.531  0.00  0.00    +0.000 C 
ATOM     13  C   UNL     1       1.724   4.343  18.791  0.00  0.00    +0.000 C 
ATOM     14  C   UNL     1       2.781   4.981  19.581  0.00  0.00    +0.000 C 
ATOM     15  C   UNL     1       2.954   6.299  19.813  0.00  0.00    +0.000 C 
ATOM     16  C   UNL     1       3.749   3.984  20.221  0.00  0.00    +0.000 C 
ATOM     17  C   UNL     1       3.047   2.817  20.938  0.00  0.00    +0.000 C 
ATOM     18  C   UNL     1       2.000   2.159  20.047  0.00  0.00    +0.000 C 
ATOM     19  C   UNL     1       1.014   3.184  19.478  0.00  0.00    +0.000 C 
BRANCH  17  20
ATOM     20  O   UNL     1       2.463   3.244  22.166  0.00  0.00    +0.000 OA
ATOM     21  H   UNL     1       2.355   2.467  22.740  0.00  0.00    +0.000 HD
ENDBRANCH  17  20
BRANCH  19  22
ATOM     22  O   UNL     1       0.133   2.499  18.586  0.00  0.00    +0.000 OA
ATOM     23  H   UNL     1      -0.175   3.149  17.932  0.00  0.00    +0.000 HD
ENDBRANCH  19  22
ENDBRANCH   1  15
BRANCH  11  24
ATOM     24  C   UNL     1      -2.205  11.687  19.873  0.00  0.00    +0.000 C 
ATOM     25  C   UNL     1      -3.104  11.840  18.631  0.00  0.00    +0.000 C 
BRANCH  24  26
ATOM     26  O   UNL     1      -2.143  12.935  20.556  0.00  0.00    +0.000 OA
BRANCH  26  27
ATOM     27  C   UNL     1      -3.376  13.476  21.005  0.00  0.00    +0.000 C 
BRANCH  27  28
ATOM     28  C   UNL     1      -3.756  12.738  22.281  0.00  0.00    +0.000 C 
ATOM     29  O   UNL     1      -2.966  12.445  23.171  0.00  0.00    +0.000 OA
BRANCH  28  30
ATOM     30  O   UNL     1      -5.088  12.450  22.284  0.00  0.00    +0.000 OA
BRANCH  30  31
ATOM     31  C   UNL     1      -5.984  13.364  22.978  0.00  0.00    +0.000 C 
ATOM     32  C   UNL     1      -5.208  14.502  23.655  0.00  0.00    +0.000 C 
ATOM     33  C   UNL     1      -6.876  13.975  21.886  0.00  0.00    +0.000 C 
ATOM     34  C   UNL     1      -6.886  12.596  23.952  0.00  0.00    +0.000 C 
ENDBRANCH  30  31
ENDBRANCH  28  30
ENDBRANCH  27  28
ENDBRANCH  26  27
ENDBRANCH  24  26
ENDBRANCH  11  24
TORSDOF 9
ENDMDL
MODEL 7
REMARK VINA RESULT:      -7.6      4.080     10.973
REMARK  Name = 
REMARK  14 active torsions:
REMARK  status: ('A' for Active; 'I' for Inactive)
REMARK    1  A    between atoms: C_4  and  C_5
REMARK    2  A    between atoms: C_10  and  C_11
REMARK    3  A    between atoms: C_15  and  C_16
REMARK    4  A    between atoms: C_16  and  C_17
REMARK    5  A    between atoms: C_16  and  O_18
REMARK    6  A    between atoms: O_18  and  C_19
REMARK    7  A    between atoms: C_19  and  C_20
REMARK    8  A    between atoms: C_20  and  O_22
REMARK    9  A    between atoms: O_22  and  C_23
REMARK   10  A    between atoms: C_23  and  C_24
REMARK   11  A    between atoms: C_23  and  C_25
REMARK   12  A    between atoms: C_23  and  C_26
REMARK   13  A    between atoms: C_28  and  O_29
REMARK   14  A    between atoms: C_31  and  O_32
REMARK                            x       y       z     vdW  Elec       q    Type
REMARK                         _______ _______ _______ _____ _____    ______ ____
ROOT
ATOM      1  C   UNL     1       2.180   7.458  19.428  0.00  0.00    +0.000 C 
ATOM      2  C   UNL     1       1.333   8.230  20.156  0.00  0.00    +0.000 C 
ATOM      3  C   UNL     1       1.036   7.996  21.629  0.00  0.00    +0.000 C 
ATOM      4  C   UNL     1       0.774   9.280  22.423  0.00  0.00    +0.000 C 
ATOM      5  C   UNL     1      -0.240  10.229  21.738  0.00  0.00    +0.000 C 
ATOM      6  C   UNL     1       0.261  10.631  20.327  0.00  0.00    +0.000 C 
ATOM      7  C   UNL     1       1.511  11.530  20.540  0.00  0.00    +0.000 C 
ATOM      8  C   UNL     1       0.408   9.278  19.560  0.00  0.00    +0.000 C 
ATOM      9  C   UNL     1       0.491   9.646  18.088  0.00  0.00    +0.000 C 
ATOM     10  C   UNL     1      -0.522  10.776  17.953  0.00  0.00    +0.000 C 
ATOM     11  C   UNL     1      -0.639  11.471  19.331  0.00  0.00    +0.000 C 
ENDROOT
BRANCH   1  15
ATOM     12  C   UNL     1       1.541   4.770  17.537  0.00  0.00    +0.000 C 
ATOM     13  C   UNL     1       1.721   4.372  18.809  0.00  0.00    +0.000 C 
ATOM     14  C   UNL     1       2.743   4.993  19.655  0.00  0.00    +0.000 C 
ATOM     15  C   UNL     1       2.924   6.308  19.898  0.00  0.00    +0.000 C 
ATOM     16  C   UNL     1       3.659   3.982  20.348  0.00  0.00    +0.000 C 
ATOM     17  C   UNL     1       2.901   2.827  21.025  0.00  0.00    +0.000 C 
ATOM     18  C   UNL     1       1.893   2.185  20.078  0.00  0.00    +0.000 C 
ATOM     19  C   UNL     1       0.956   3.224  19.457  0.00  0.00    +0.000 C 
BRANCH  17  20
ATOM     20  O   UNL     1       2.257   3.264  22.220  0.00  0.00    +0.000 OA
ATOM     21  H   UNL     1       2.215   4.235  22.208  0.00  0.00    +0.000 HD
ENDBRANCH  17  20
BRANCH  19  22
ATOM     22  O   UNL     1       0.115   2.553  18.517  0.00  0.00    +0.000 OA
ATOM     23  H   UNL     1      -0.798   2.837  18.695  0.00  0.00    +0.000 HD
ENDBRANCH  19  22
ENDBRANCH   1  15
BRANCH  11  24
ATOM     24  C   UNL     1      -2.082  11.837  19.721  0.00  0.00    +0.000 C 
ATOM     25  C   UNL     1      -3.027  11.593  18.528  0.00  0.00    +0.000 C 
BRANCH  24  26
ATOM     26  O   UNL     1      -2.066  13.228  20.021  0.00  0.00    +0.000 OA
BRANCH  26  27
ATOM     27  C   UNL     1      -3.291  13.800  20.454  0.00  0.00    +0.000 C 
BRANCH  27  28
ATOM     28  C   UNL     1      -3.036  14.445  21.809  0.00  0.00    +0.000 C 
ATOM     29  O   UNL     1      -2.025  15.078  22.094  0.00  0.00    +0.000 OA
BRANCH  28  30
ATOM     30  O   UNL     1      -4.082  14.211  22.651  0.00  0.00    +0.000 OA
BRANCH  30  31
ATOM     31  C   UNL     1      -3.848  13.370  23.815  0.00  0.00    +0.000 C 
ATOM     32  C   UNL     1      -3.309  14.189  24.997  0.00  0.00    +0.000 C 
ATOM     33  C   UNL     1      -5.227  12.815  24.207  0.00  0.00    +0.000 C 
ATOM     34  C   UNL     1      -2.945  12.185  23.450  0.00  0.00    +0.000 C 
ENDBRANCH  30  31
ENDBRANCH  28  30
ENDBRANCH  27  28
ENDBRANCH  26  27
ENDBRANCH  24  26
ENDBRANCH  11  24
TORSDOF 9
ENDMDL
MODEL 8
REMARK VINA RESULT:      -7.5      3.641     11.254
REMARK  Name = 
REMARK  14 active torsions:
REMARK  status: ('A' for Active; 'I' for Inactive)
REMARK    1  A    between atoms: C_4  and  C_5
REMARK    2  A    between atoms: C_10  and  C_11
REMARK    3  A    between atoms: C_15  and  C_16
REMARK    4  A    between atoms: C_16  and  C_17
REMARK    5  A    between atoms: C_16  and  O_18
REMARK    6  A    between atoms: O_18  and  C_19
REMARK    7  A    between atoms: C_19  and  C_20
REMARK    8  A    between atoms: C_20  and  O_22
REMARK    9  A    between atoms: O_22  and  C_23
REMARK   10  A    between atoms: C_23  and  C_24
REMARK   11  A    between atoms: C_23  and  C_25
REMARK   12  A    between atoms: C_23  and  C_26
REMARK   13  A    between atoms: C_28  and  O_29
REMARK   14  A    between atoms: C_31  and  O_32
REMARK                            x       y       z     vdW  Elec       q    Type
REMARK                         _______ _______ _______ _____ _____    ______ ____
ROOT
ATOM      1  C   UNL     1       0.972   8.075  20.316  0.00  0.00    +0.000 C 
ATOM      2  C   UNL     1       0.225   9.043  20.907  0.00  0.00    +0.000 C 
ATOM      3  C   UNL     1      -0.312   8.943  22.326  0.00  0.00    +0.000 C 
ATOM      4  C   UNL     1      -0.389  10.287  23.059  0.00  0.00    +0.000 C 
ATOM      5  C   UNL     1      -1.068  11.402  22.226  0.00  0.00    +0.000 C 
ATOM      6  C   UNL     1      -0.307  11.623  20.894  0.00  0.00    +0.000 C 
ATOM      7  C   UNL     1       1.070  12.240  21.270  0.00  0.00    +0.000 C 
ATOM      8  C   UNL     1      -0.359  10.239  20.174  0.00  0.00    +0.000 C 
ATOM      9  C   UNL     1      -0.000  10.516  18.723  0.00  0.00    +0.000 C 
ATOM     10  C   UNL     1      -0.713  11.831  18.432  0.00  0.00    +0.000 C 
ATOM     11  C   UNL     1      -0.858  12.593  19.770  0.00  0.00    +0.000 C 
ENDROOT
BRANCH   1  15
ATOM     12  C   UNL     1       3.236   6.536  18.388  0.00  0.00    +0.000 C 
ATOM     13  C   UNL     1       2.448   5.606  18.959  0.00  0.00    +0.000 C 
ATOM     14  C   UNL     1       1.993   5.752  20.344  0.00  0.00    +0.000 C 
ATOM     15  C   UNL     1       1.375   6.814  20.900  0.00  0.00    +0.000 C 
ATOM     16  C   UNL     1       2.242   4.509  21.201  0.00  0.00    +0.000 C 
ATOM     17  C   UNL     1       1.799   3.199  20.530  0.00  0.00    +0.000 C 
ATOM     18  C   UNL     1       2.349   3.078  19.113  0.00  0.00    +0.000 C 
ATOM     19  C   UNL     1       2.023   4.315  18.271  0.00  0.00    +0.000 C 
BRANCH  17  20
ATOM     20  O   UNL     1       0.378   3.076  20.527  0.00  0.00    +0.000 OA
ATOM     21  H   UNL     1       0.107   2.666  19.689  0.00  0.00    +0.000 HD
ENDBRANCH  17  20
BRANCH  19  22
ATOM     22  O   UNL     1       2.653   4.161  16.999  0.00  0.00    +0.000 OA
ATOM     23  H   UNL     1       2.252   4.811  16.398  0.00  0.00    +0.000 HD
ENDBRANCH  19  22
ENDBRANCH   1  15
BRANCH  11  24
ATOM     24  C   UNL     1      -2.225  13.279  19.949  0.00  0.00    +0.000 C 
ATOM     25  C   UNL     1      -2.118  14.396  21.006  0.00  0.00    +0.000 C 
BRANCH  24  26
ATOM     26  O   UNL     1      -3.109  12.271  20.430  0.00  0.00    +0.000 OA
BRANCH  26  27
ATOM     27  C   UNL     1      -4.446  12.319  19.956  0.00  0.00    +0.000 C 
BRANCH  27  28
ATOM     28  C   UNL     1      -5.322  12.769  21.118  0.00  0.00    +0.000 C 
ATOM     29  O   UNL     1      -6.332  13.454  20.997  0.00  0.00    +0.000 OA
BRANCH  28  30
ATOM     30  O   UNL     1      -4.818  12.307  22.297  0.00  0.00    +0.000 OA
BRANCH  30  31
ATOM     31  C   UNL     1      -5.169  13.020  23.516  0.00  0.00    +0.000 C 
ATOM     32  C   UNL     1      -6.608  12.709  23.951  0.00  0.00    +0.000 C 
ATOM     33  C   UNL     1      -4.216  12.485  24.596  0.00  0.00    +0.000 C 
ATOM     34  C   UNL     1      -4.908  14.523  23.355  0.00  0.00    +0.000 C 
ENDBRANCH  30  31
ENDBRANCH  28  30
ENDBRANCH  27  28
ENDBRANCH  26  27
ENDBRANCH  24  26
ENDBRANCH  11  24
TORSDOF 9
ENDMDL
MODEL 9
REMARK VINA RESULT:      -7.5      3.728     11.312
REMARK  Name = 
REMARK  14 active torsions:
REMARK  status: ('A' for Active; 'I' for Inactive)
REMARK    1  A    between atoms: C_4  and  C_5
REMARK    2  A    between atoms: C_10  and  C_11
REMARK    3  A    between atoms: C_15  and  C_16
REMARK    4  A    between atoms: C_16  and  C_17
REMARK    5  A    between atoms: C_16  and  O_18
REMARK    6  A    between atoms: O_18  and  C_19
REMARK    7  A    between atoms: C_19  and  C_20
REMARK    8  A    between atoms: C_20  and  O_22
REMARK    9  A    between atoms: O_22  and  C_23
REMARK   10  A    between atoms: C_23  and  C_24
REMARK   11  A    between atoms: C_23  and  C_25
REMARK   12  A    between atoms: C_23  and  C_26
REMARK   13  A    between atoms: C_28  and  O_29
REMARK   14  A    between atoms: C_31  and  O_32
REMARK                            x       y       z     vdW  Elec       q    Type
REMARK                         _______ _______ _______ _____ _____    ______ ____
ROOT
ATOM      1  C   UNL     1       1.115   7.858  20.385  0.00  0.00    +0.000 C 
ATOM      2  C   UNL     1       0.330   8.732  21.066  0.00  0.00    +0.000 C 
ATOM      3  C   UNL     1      -0.053   8.557  22.528  0.00  0.00    +0.000 C 
ATOM      4  C   UNL     1      -0.201   9.875  23.296  0.00  0.00    +0.000 C 
ATOM      5  C   UNL     1      -1.072  10.920  22.556  0.00  0.00    +0.000 C 
ATOM      6  C   UNL     1      -0.471  11.240  21.164  0.00  0.00    +0.000 C 
ATOM      7  C   UNL     1       0.862  11.997  21.421  0.00  0.00    +0.000 C 
ATOM      8  C   UNL     1      -0.445   9.867  20.420  0.00  0.00    +0.000 C 
ATOM      9  C   UNL     1      -0.260  10.200  18.948  0.00  0.00    +0.000 C 
ATOM     10  C   UNL     1      -1.134  11.434  18.756  0.00  0.00    +0.000 C 
ATOM     11  C   UNL     1      -1.229  12.159  20.120  0.00  0.00    +0.000 C 
ENDROOT
BRANCH   1  15
ATOM     12  C   UNL     1       2.664   6.160  17.949  0.00  0.00    +0.000 C 
ATOM     13  C   UNL     1       2.116   5.283  18.809  0.00  0.00    +0.000 C 
ATOM     14  C   UNL     1       2.128   5.535  20.252  0.00  0.00    +0.000 C 
ATOM     15  C   UNL     1       1.705   6.641  20.899  0.00  0.00    +0.000 C 
ATOM     16  C   UNL     1       2.659   4.357  21.072  0.00  0.00    +0.000 C 
ATOM     17  C   UNL     1       2.044   3.004  20.677  0.00  0.00    +0.000 C 
ATOM     18  C   UNL     1       2.112   2.774  19.172  0.00  0.00    +0.000 C 
ATOM     19  C   UNL     1       1.513   3.948  18.391  0.00  0.00    +0.000 C 
BRANCH  17  20
ATOM     20  O   UNL     1       0.701   2.894  21.141  0.00  0.00    +0.000 OA
ATOM     21  H   UNL     1       0.195   2.373  20.494  0.00  0.00    +0.000 HD
ENDBRANCH  17  20
BRANCH  19  22
ATOM     22  O   UNL     1       1.703   3.694  16.998  0.00  0.00    +0.000 OA
ATOM     23  H   UNL     1       0.980   4.138  16.524  0.00  0.00    +0.000 HD
ENDBRANCH  19  22
ENDBRANCH   1  15
BRANCH  11  24
ATOM     24  C   UNL     1      -2.637  12.690  20.444  0.00  0.00    +0.000 C 
ATOM     25  C   UNL     1      -3.634  12.228  19.363  0.00  0.00    +0.000 C 
BRANCH  24  26
ATOM     26  O   UNL     1      -2.538  14.110  20.405  0.00  0.00    +0.000 OA
BRANCH  26  27
ATOM     27  C   UNL     1      -1.415  14.687  21.053  0.00  0.00    +0.000 C 
BRANCH  27  28
ATOM     28  C   UNL     1      -1.725  14.729  22.544  0.00  0.00    +0.000 C 
ATOM     29  O   UNL     1      -0.991  14.276  23.415  0.00  0.00    +0.000 OA
BRANCH  28  30
ATOM     30  O   UNL     1      -2.928  15.330  22.761  0.00  0.00    +0.000 OA
BRANCH  30  31
ATOM     31  C   UNL     1      -3.731  14.869  23.883  0.00  0.00    +0.000 C 
ATOM     32  C   UNL     1      -5.185  15.347  23.764  0.00  0.00    +0.000 C 
ATOM     33  C   UNL     1      -3.723  13.334  23.791  0.00  0.00    +0.000 C 
ATOM     34  C   UNL     1      -3.079  15.268  25.212  0.00  0.00    +0.000 C 
ENDBRANCH  30  31
ENDBRANCH  28  30
ENDBRANCH  27  28
ENDBRANCH  26  27
ENDBRANCH  24  26
ENDBRANCH  11  24
TORSDOF 9
ENDMDL
