MODEL 1
REMARK VINA RESULT:      -7.5      0.000      0.000
REMARK  Name = 
REMARK  7 active torsions:
REMARK  status: ('A' for Active; 'I' for Inactive)
REMARK    1  A    between atoms: C_1  and  N_2
REMARK    2  A    between atoms: C_3  and  C_5
REMARK    3  A    between atoms: C_5  and  O_6
REMARK    4  A    between atoms: O_6  and  C_7
REMARK    5  A    between atoms: C_12  and  C_13
REMARK    6  A    between atoms: C_13  and  N_14
REMARK    7  A    between atoms: N_14  and  C_15
REMARK                            x       y       z     vdW  Elec       q    Type
REMARK                         _______ _______ _______ _____ _____    ______ ____
ROOT
ATOM      1  C   UNL     1      -0.332  10.347  20.514  0.00  0.00    +0.000 A 
ATOM      2  C   UNL     1      -1.025  11.147  21.435  0.00  0.00    +0.000 A 
ATOM      3  C   UNL     1      -0.979  10.869  22.802  0.00  0.00    +0.000 A 
ATOM      4  C   UNL     1      -0.228   9.799  23.268  0.00  0.00    +0.000 A 
ATOM      5  C   UNL     1       0.489   9.014  22.367  0.00  0.00    +0.000 A 
ATOM      6  C   UNL     1       0.449   9.271  20.982  0.00  0.00    +0.000 A 
ENDROOT
BRANCH   1   7
ATOM      7  O   UNL     1      -0.358  10.556  19.158  0.00  0.00    +0.000 OA
BRANCH   7   8
ATOM      8  C   UNL     1      -1.392  11.411  18.665  0.00  0.00    +0.000 C 
BRANCH   8  11
ATOM      9  C   UNL     1      -3.004  10.857  15.263  0.00  0.00    +0.000 C 
ATOM     10  N   UNL     1      -2.315  11.402  16.401  0.00  0.00    +0.000 N 
ATOM     11  C   UNL     1      -2.243  10.725  17.596  0.00  0.00    +0.000 C 
ATOM     12  O   UNL     1      -2.809   9.655  17.802  0.00  0.00    +0.000 OA
ATOM     13  H   UNL     1      -1.804  12.274  16.327  0.00  0.00    +0.000 HD
ENDBRANCH   8  11
ENDBRANCH   7   8
ENDBRANCH   1   7
BRANCH   6  14
ATOM     14  C   UNL     1       1.312   8.426  20.067  0.00  0.00    +0.000 C 
BRANCH  14  15
ATOM     15  N   UNL     1       2.169   7.502  20.827  0.00  0.00    +0.000 NA
ATOM     16  H   UNL     1       1.721   7.329  21.728  0.00  0.00    +0.000 HD
BRANCH  15  17
ATOM     17  C   UNL     1       2.428   6.226  20.135  0.00  0.00    +0.000 C 
ATOM     18  C   UNL     1       2.441   6.484  18.609  0.00  0.00    +0.000 C 
ATOM     19  C   UNL     1       2.793   5.212  17.824  0.00  0.00    +0.000 C 
ATOM     20  C   UNL     1       2.030   4.039  18.314  0.00  0.00    +0.000 A 
ATOM     21  N   UNL     1       1.829   2.875  17.737  0.00  0.00    +0.000 NA
ATOM     22  C   UNL     1       1.083   2.193  18.662  0.00  0.00    +0.000 A 
ATOM     23  N   UNL     1       0.822   2.863  19.788  0.00  0.00    +0.000 NA
ATOM     24  N   UNL     1       1.438   4.030  19.542  0.00  0.00    +0.000 N 
ATOM     25  C   UNL     1       1.379   5.139  20.466  0.00  0.00    +0.000 C 
ENDBRANCH  15  17
ENDBRANCH  14  15
ENDBRANCH   6  14
TORSDOF 6
ENDMDL
MODEL 2
REMARK VINA RESULT:      -7.4      3.310      7.455
REMARK  Name = 
REMARK  7 active torsions:
REMARK  status: ('A' for Active; 'I' for Inactive)
REMARK    1  A    between atoms: C_1  and  N_2
REMARK    2  A    between atoms: C_3  and  C_5
REMARK    3  A    between atoms: C_5  and  O_6
REMARK    4  A    between atoms: O_6  and  C_7
REMARK    5  A    between atoms: C_12  and  C_13
REMARK    6  A    between atoms: C_13  and  N_14
REMARK    7  A    between atoms: N_14  and  C_15
REMARK                            x       y       z     vdW  Elec       q    Type
REMARK                         _______ _______ _______ _____ _____    ______ ____
ROOT
ATOM      1  C   UNL     1       2.299   3.962  18.381  0.00  0.00    +0.000 A 
ATOM      2  C   UNL     1       1.387   2.896  18.421  0.00  0.00    +0.000 A 
ATOM      3  C   UNL     1       0.762   2.532  19.614  0.00  0.00    +0.000 A 
ATOM      4  C   UNL     1       1.026   3.239  20.780  0.00  0.00    +0.000 A 
ATOM      5  C   UNL     1       1.906   4.318  20.749  0.00  0.00    +0.000 A 
ATOM      6  C   UNL     1       2.556   4.696  19.556  0.00  0.00    +0.000 A 
ENDROOT
BRANCH   1   7
ATOM      7  O   UNL     1       2.962   4.352  17.245  0.00  0.00    +0.000 OA
BRANCH   7   8
ATOM      8  C   UNL     1       4.152   3.628  16.923  0.00  0.00    +0.000 C 
BRANCH   8  11
ATOM      9  C   UNL     1       7.736   4.665  17.669  0.00  0.00    +0.000 C 
ATOM     10  N   UNL     1       6.467   3.994  17.623  0.00  0.00    +0.000 N 
ATOM     11  C   UNL     1       5.392   4.522  16.946  0.00  0.00    +0.000 C 
ATOM     12  O   UNL     1       5.413   5.621  16.397  0.00  0.00    +0.000 OA
ATOM     13  H   UNL     1       6.353   3.074  18.034  0.00  0.00    +0.000 HD
ENDBRANCH   8  11
ENDBRANCH   7   8
ENDBRANCH   1   7
BRANCH   6  14
ATOM     14  C   UNL     1       3.442   5.926  19.578  0.00  0.00    +0.000 C 
BRANCH  14  15
ATOM     15  N   UNL     1       3.117   6.852  18.481  0.00  0.00    +0.000 NA
ATOM     16  H   UNL     1       2.965   6.296  17.637  0.00  0.00    +0.000 HD
BRANCH  15  17
ATOM     17  C   UNL     1       1.943   7.703  18.748  0.00  0.00    +0.000 C 
ATOM     18  C   UNL     1       2.076   9.004  17.920  0.00  0.00    +0.000 C 
ATOM     19  C   UNL     1       0.844   9.904  18.081  0.00  0.00    +0.000 C 
ATOM     20  C   UNL     1       0.445  10.035  19.504  0.00  0.00    +0.000 A 
ATOM     21  N   UNL     1      -0.345  10.921  20.069  0.00  0.00    +0.000 NA
ATOM     22  C   UNL     1      -0.360  10.531  21.382  0.00  0.00    +0.000 A 
ATOM     23  N   UNL     1       0.365   9.444  21.661  0.00  0.00    +0.000 NA
ATOM     24  N   UNL     1       0.861   9.148  20.450  0.00  0.00    +0.000 N 
ATOM     25  C   UNL     1       1.787   8.058  20.245  0.00  0.00    +0.000 C 
ENDBRANCH  15  17
ENDBRANCH  14  15
ENDBRANCH   6  14
TORSDOF 6
ENDMDL
MODEL 3
REMARK VINA RESULT:      -7.4      3.732      7.927
REMARK  Name = 
REMARK  7 active torsions:
REMARK  status: ('A' for Active; 'I' for Inactive)
REMARK    1  A    between atoms: C_1  and  N_2
REMARK    2  A    between atoms: C_3  and  C_5
REMARK    3  A    between atoms: C_5  and  O_6
REMARK    4  A    between atoms: O_6  and  C_7
REMARK    5  A    between atoms: C_12  and  C_13
REMARK    6  A    between atoms: C_13  and  N_14
REMARK    7  A    between atoms: N_14  and  C_15
REMARK                            x       y       z     vdW  Elec       q    Type
REMARK                         _______ _______ _______ _____ _____    ______ ____
ROOT
ATOM      1  C   UNL     1       3.238   4.371  19.297  0.00  0.00    +0.000 A 
ATOM      2  C   UNL     1       3.077   2.979  19.366  0.00  0.00    +0.000 A 
ATOM      3  C   UNL     1       1.961   2.417  19.987  0.00  0.00    +0.000 A 
ATOM      4  C   UNL     1       0.983   3.238  20.532  0.00  0.00    +0.000 A 
ATOM      5  C   UNL     1       1.115   4.623  20.444  0.00  0.00    +0.000 A 
ATOM      6  C   UNL     1       2.240   5.211  19.830  0.00  0.00    +0.000 A 
ENDROOT
BRANCH   1   7
ATOM      7  O   UNL     1       4.324   4.982  18.721  0.00  0.00    +0.000 OA
BRANCH   7   8
ATOM      8  C   UNL     1       5.459   4.151  18.464  0.00  0.00    +0.000 C 
BRANCH   8  11
ATOM      9  C   UNL     1       7.512   7.218  17.536  0.00  0.00    +0.000 C 
ATOM     10  N   UNL     1       6.450   6.291  17.815  0.00  0.00    +0.000 N 
ATOM     11  C   UNL     1       6.699   4.968  18.101  0.00  0.00    +0.000 C 
ATOM     12  O   UNL     1       7.821   4.471  18.075  0.00  0.00    +0.000 OA
ATOM     13  H   UNL     1       5.489   6.608  17.874  0.00  0.00    +0.000 HD
ENDBRANCH   8  11
ENDBRANCH   7   8
ENDBRANCH   1   7
BRANCH   6  14
ATOM     14  C   UNL     1       2.282   6.721  19.702  0.00  0.00    +0.000 C 
BRANCH  14  15
ATOM     15  N   UNL     1       2.058   7.384  20.995  0.00  0.00    +0.000 NA
ATOM     16  H   UNL     1       2.912   7.889  21.240  0.00  0.00    +0.000 HD
BRANCH  15  17
ATOM     17  C   UNL     1       0.904   8.303  21.001  0.00  0.00    +0.000 C 
ATOM     18  C   UNL     1       1.025   9.257  19.789  0.00  0.00    +0.000 C 
ATOM     19  C   UNL     1      -0.190  10.188  19.679  0.00  0.00    +0.000 C 
ATOM     20  C   UNL     1      -0.540  10.786  20.991  0.00  0.00    +0.000 A 
ATOM     21  N   UNL     1      -1.300  11.826  21.256  0.00  0.00    +0.000 NA
ATOM     22  C   UNL     1      -1.276  11.887  22.625  0.00  0.00    +0.000 A 
ATOM     23  N   UNL     1      -0.555  10.936  23.224  0.00  0.00    +0.000 NA
ATOM     24  N   UNL     1      -0.103  10.249  22.164  0.00  0.00    +0.000 N 
ATOM     25  C   UNL     1       0.802   9.131  22.302  0.00  0.00    +0.000 C 
ENDBRANCH  15  17
ENDBRANCH  14  15
ENDBRANCH   6  14
TORSDOF 6
ENDMDL
MODEL 4
REMARK VINA RESULT:      -7.4      3.476      6.310
REMARK  Name = 
REMARK  7 active torsions:
REMARK  status: ('A' for Active; 'I' for Inactive)
REMARK    1  A    between atoms: C_1  and  N_2
REMARK    2  A    between atoms: C_3  and  C_5
REMARK    3  A    between atoms: C_5  and  O_6
REMARK    4  A    between atoms: O_6  and  C_7
REMARK    5  A    between atoms: C_12  and  C_13
REMARK    6  A    between atoms: C_13  and  N_14
REMARK    7  A    between atoms: N_14  and  C_15
REMARK                            x       y       z     vdW  Elec       q    Type
REMARK                         _______ _______ _______ _____ _____    ______ ____
ROOT
ATOM      1  C   UNL     1       1.976   4.634  19.083  0.00  0.00    +0.000 A 
ATOM      2  C   UNL     1       1.514   4.784  20.399  0.00  0.00    +0.000 A 
ATOM      3  C   UNL     1       1.349   3.676  21.232  0.00  0.00    +0.000 A 
ATOM      4  C   UNL     1       1.660   2.406  20.766  0.00  0.00    +0.000 A 
ATOM      5  C   UNL     1       2.149   2.245  19.471  0.00  0.00    +0.000 A 
ATOM      6  C   UNL     1       2.312   3.350  18.610  0.00  0.00    +0.000 A 
ENDROOT
BRANCH   1   7
ATOM      7  O   UNL     1       2.136   5.681  18.211  0.00  0.00    +0.000 OA
BRANCH   7   8
ATOM      8  C   UNL     1       2.903   6.791  18.683  0.00  0.00    +0.000 C 
BRANCH   8  11
ATOM      9  C   UNL     1       0.855   9.905  19.450  0.00  0.00    +0.000 C 
ATOM     10  N   UNL     1       1.501   8.622  19.497  0.00  0.00    +0.000 N 
ATOM     11  C   UNL     1       2.203   8.125  18.424  0.00  0.00    +0.000 C 
ATOM     12  O   UNL     1       2.275   8.698  17.340  0.00  0.00    +0.000 OA
ATOM     13  H   UNL     1       1.511   8.079  20.353  0.00  0.00    +0.000 HD
ENDBRANCH   8  11
ENDBRANCH   7   8
ENDBRANCH   1   7
BRANCH   6  14
ATOM     14  C   UNL     1       2.919   3.112  17.242  0.00  0.00    +0.000 C 
BRANCH  14  15
ATOM     15  N   UNL     1       4.388   3.190  17.276  0.00  0.00    +0.000 NA
ATOM     16  H   UNL     1       4.744   2.766  16.417  0.00  0.00    +0.000 HD
BRANCH  15  17
ATOM     17  C   UNL     1       4.908   4.562  17.420  0.00  0.00    +0.000 C 
ATOM     18  C   UNL     1       5.164   5.145  16.009  0.00  0.00    +0.000 C 
ATOM     19  C   UNL     1       5.626   6.607  16.077  0.00  0.00    +0.000 C 
ATOM     20  C   UNL     1       6.682   6.800  17.101  0.00  0.00    +0.000 A 
ATOM     21  N   UNL     1       7.518   7.802  17.257  0.00  0.00    +0.000 NA
ATOM     22  C   UNL     1       8.231   7.442  18.371  0.00  0.00    +0.000 A 
ATOM     23  N   UNL     1       7.874   6.279  18.923  0.00  0.00    +0.000 NA
ATOM     24  N   UNL     1       6.886   5.895  18.099  0.00  0.00    +0.000 N 
ATOM     25  C   UNL     1       6.210   4.627  18.250  0.00  0.00    +0.000 C 
ENDBRANCH  15  17
ENDBRANCH  14  15
ENDBRANCH   6  14
TORSDOF 6
ENDMDL
MODEL 5
REMARK VINA RESULT:      -7.4      3.652      7.571
REMARK  Name = 
REMARK  7 active torsions:
REMARK  status: ('A' for Active; 'I' for Inactive)
REMARK    1  A    between atoms: C_1  and  N_2
REMARK    2  A    between atoms: C_3  and  C_5
REMARK    3  A    between atoms: C_5  and  O_6
REMARK    4  A    between atoms: O_6  and  C_7
REMARK    5  A    between atoms: C_12  and  C_13
REMARK    6  A    between atoms: C_13  and  N_14
REMARK    7  A    between atoms: N_14  and  C_15
REMARK                            x       y       z     vdW  Elec       q    Type
REMARK                         _______ _______ _______ _____ _____    ______ ____
ROOT
ATOM      1  C   UNL     1       3.494   3.455  18.274  0.00  0.00    +0.000 A 
ATOM      2  C   UNL     1       2.802   2.301  17.878  0.00  0.00    +0.000 A 
ATOM      3  C   UNL     1       1.553   1.994  18.418  0.00  0.00    +0.000 A 
ATOM      4  C   UNL     1       0.970   2.845  19.348  0.00  0.00    +0.000 A 
ATOM      5  C   UNL     1       1.632   4.010  19.728  0.00  0.00    +0.000 A 
ATOM      6  C   UNL     1       2.900   4.334  19.202  0.00  0.00    +0.000 A 
ENDROOT
BRANCH   1   7
ATOM      7  O   UNL     1       4.734   3.798  17.797  0.00  0.00    +0.000 OA
BRANCH   7   8
ATOM      8  C   UNL     1       4.796   4.217  16.431  0.00  0.00    +0.000 C 
BRANCH   8  11
ATOM      9  C   UNL     1       7.253   6.969  17.365  0.00  0.00    +0.000 C 
ATOM     10  N   UNL     1       6.238   5.952  17.377  0.00  0.00    +0.000 N 
ATOM     11  C   UNL     1       5.811   5.341  16.220  0.00  0.00    +0.000 C 
ATOM     12  O   UNL     1       6.208   5.659  15.102  0.00  0.00    +0.000 OA
ATOM     13  H   UNL     1       5.859   5.610  18.252  0.00  0.00    +0.000 HD
ENDBRANCH   8  11
ENDBRANCH   7   8
ENDBRANCH   1   7
BRANCH   6  14
ATOM     14  C   UNL     1       3.528   5.655  19.601  0.00  0.00    +0.000 C 
BRANCH  14  15
ATOM     15  N   UNL     1       3.355   6.678  18.558  0.00  0.00    +0.000 NA
ATOM     16  H   UNL     1       3.315   6.202  17.655  0.00  0.00    +0.000 HD
BRANCH  15  17
ATOM     17  C   UNL     1       2.158   7.519  18.744  0.00  0.00    +0.000 C 
ATOM     18  C   UNL     1       2.337   8.822  17.927  0.00  0.00    +0.000 C 
ATOM     19  C   UNL     1       1.088   9.712  18.003  0.00  0.00    +0.000 C 
ATOM     20  C   UNL     1       0.590   9.838  19.394  0.00  0.00    +0.000 A 
ATOM     21  N   UNL     1      -0.245  10.716  19.904  0.00  0.00    +0.000 NA
ATOM     22  C   UNL     1      -0.348  10.324  21.212  0.00  0.00    +0.000 A 
ATOM     23  N   UNL     1       0.365   9.244  21.541  0.00  0.00    +0.000 NA
ATOM     24  N   UNL     1       0.947   8.953  20.367  0.00  0.00    +0.000 N 
ATOM     25  C   UNL     1       1.895   7.871  20.226  0.00  0.00    +0.000 C 
ENDBRANCH  15  17
ENDBRANCH  14  15
ENDBRANCH   6  14
TORSDOF 6
ENDMDL
MODEL 6
REMARK VINA RESULT:      -7.4      3.354      7.864
REMARK  Name = 
REMARK  7 active torsions:
REMARK  status: ('A' for Active; 'I' for Inactive)
REMARK    1  A    between atoms: C_1  and  N_2
REMARK    2  A    between atoms: C_3  and  C_5
REMARK    3  A    between atoms: C_5  and  O_6
REMARK    4  A    between atoms: O_6  and  C_7
REMARK    5  A    between atoms: C_12  and  C_13
REMARK    6  A    between atoms: C_13  and  N_14
REMARK    7  A    between atoms: N_14  and  C_15
REMARK                            x       y       z     vdW  Elec       q    Type
REMARK                         _______ _______ _______ _____ _____    ______ ____
ROOT
ATOM      1  C   UNL     1       4.373   4.051  17.186  0.00  0.00    +0.000 A 
ATOM      2  C   UNL     1       4.896   3.878  15.896  0.00  0.00    +0.000 A 
ATOM      3  C   UNL     1       5.467   4.948  15.205  0.00  0.00    +0.000 A 
ATOM      4  C   UNL     1       5.538   6.200  15.800  0.00  0.00    +0.000 A 
ATOM      5  C   UNL     1       5.050   6.379  17.093  0.00  0.00    +0.000 A 
ATOM      6  C   UNL     1       4.460   5.314  17.804  0.00  0.00    +0.000 A 
ENDROOT
BRANCH   1   7
ATOM      7  O   UNL     1       3.779   3.045  17.905  0.00  0.00    +0.000 OA
BRANCH   7   8
ATOM      8  C   UNL     1       2.462   2.664  17.499  0.00  0.00    +0.000 C 
BRANCH   8  11
ATOM      9  C   UNL     1       1.301   2.810  21.120  0.00  0.00    +0.000 C 
ATOM     10  N   UNL     1       2.076   2.811  19.909  0.00  0.00    +0.000 N 
ATOM     11  C   UNL     1       1.512   2.524  18.688  0.00  0.00    +0.000 C 
ATOM     12  O   UNL     1       0.340   2.184  18.548  0.00  0.00    +0.000 OA
ATOM     13  H   UNL     1       3.050   3.092  19.919  0.00  0.00    +0.000 HD
ENDBRANCH   8  11
ENDBRANCH   7   8
ENDBRANCH   1   7
BRANCH   6  14
ATOM     14  C   UNL     1       4.019   5.561  19.233  0.00  0.00    +0.000 C 
BRANCH  14  15
ATOM     15  N   UNL     1       2.591   5.905  19.312  0.00  0.00    +0.000 NA
ATOM     16  H   UNL     1       2.136   5.216  19.914  0.00  0.00    +0.000 HD
BRANCH  15  17
ATOM     17  C   UNL     1       2.333   7.268  19.812  0.00  0.00    +0.000 C 
ATOM     18  C   UNL     1       1.244   7.195  20.909  0.00  0.00    +0.000 C 
ATOM     19  C   UNL     1       0.984   8.570  21.540  0.00  0.00    +0.000 C 
ATOM     20  C   UNL     1       0.849   9.627  20.509  0.00  0.00    +0.000 A 
ATOM     21  N   UNL     1       0.346  10.837  20.617  0.00  0.00    +0.000 NA
ATOM     22  C   UNL     1       0.513  11.357  19.360  0.00  0.00    +0.000 A 
ATOM     23  N   UNL     1       1.103  10.542  18.481  0.00  0.00    +0.000 NA
ATOM     24  N   UNL     1       1.310   9.453  19.238  0.00  0.00    +0.000 N 
ATOM     25  C   UNL     1       1.881   8.240  18.699  0.00  0.00    +0.000 C 
ENDBRANCH  15  17
ENDBRANCH  14  15
ENDBRANCH   6  14
TORSDOF 6
ENDMDL
MODEL 7
REMARK VINA RESULT:      -7.3      3.177      7.649
REMARK  Name = 
REMARK  7 active torsions:
REMARK  status: ('A' for Active; 'I' for Inactive)
REMARK    1  A    between atoms: C_1  and  N_2
REMARK    2  A    between atoms: C_3  and  C_5
REMARK    3  A    between atoms: C_5  and  O_6
REMARK    4  A    between atoms: O_6  and  C_7
REMARK    5  A    between atoms: C_12  and  C_13
REMARK    6  A    between atoms: C_13  and  N_14
REMARK    7  A    between atoms: N_14  and  C_15
REMARK                            x       y       z     vdW  Elec       q    Type
REMARK                         _______ _______ _______ _____ _____    ______ ____
ROOT
ATOM      1  C   UNL     1       2.549   4.625  18.173  0.00  0.00    +0.000 A 
ATOM      2  C   UNL     1       2.153   3.313  17.869  0.00  0.00    +0.000 A 
ATOM      3  C   UNL     1       1.346   2.587  18.747  0.00  0.00    +0.000 A 
ATOM      4  C   UNL     1       0.910   3.168  19.930  0.00  0.00    +0.000 A 
ATOM      5  C   UNL     1       1.270   4.480  20.230  0.00  0.00    +0.000 A 
ATOM      6  C   UNL     1       2.093   5.227  19.362  0.00  0.00    +0.000 A 
ENDROOT
BRANCH   1   7
ATOM      7  O   UNL     1       3.359   5.380  17.362  0.00  0.00    +0.000 OA
BRANCH   7   8
ATOM      8  C   UNL     1       4.740   5.011  17.323  0.00  0.00    +0.000 C 
BRANCH   8  11
ATOM      9  C   UNL     1       6.324   4.005  14.012  0.00  0.00    +0.000 C 
ATOM     10  N   UNL     1       5.805   4.029  15.352  0.00  0.00    +0.000 N 
ATOM     11  C   UNL     1       5.342   5.189  15.929  0.00  0.00    +0.000 C 
ATOM     12  O   UNL     1       5.399   6.286  15.380  0.00  0.00    +0.000 OA
ATOM     13  H   UNL     1       5.703   3.172  15.883  0.00  0.00    +0.000 HD
ENDBRANCH   8  11
ENDBRANCH   7   8
ENDBRANCH   1   7
BRANCH   6  14
ATOM     14  C   UNL     1       2.384   6.673  19.714  0.00  0.00    +0.000 C 
BRANCH  14  15
ATOM     15  N   UNL     1       1.804   7.045  21.014  0.00  0.00    +0.000 NA
ATOM     16  H   UNL     1       2.506   6.863  21.733  0.00  0.00    +0.000 HD
BRANCH  15  17
ATOM     17  C   UNL     1       1.353   8.448  21.084  0.00  0.00    +0.000 C 
ATOM     18  C   UNL     1      -0.030   8.489  21.777  0.00  0.00    +0.000 C 
ATOM     19  C   UNL     1      -0.524   9.930  21.965  0.00  0.00    +0.000 C 
ATOM     20  C   UNL     1      -0.352  10.732  20.730  0.00  0.00    +0.000 A 
ATOM     21  N   UNL     1      -0.902  11.879  20.398  0.00  0.00    +0.000 NA
ATOM     22  C   UNL     1      -0.354  12.144  19.170  0.00  0.00    +0.000 A 
ATOM     23  N   UNL     1       0.515  11.231  18.727  0.00  0.00    +0.000 NA
ATOM     24  N   UNL     1       0.501  10.349  19.739  0.00  0.00    +0.000 N 
ATOM     25  C   UNL     1       1.255   9.118  19.694  0.00  0.00    +0.000 C 
ENDBRANCH  15  17
ENDBRANCH  14  15
ENDBRANCH   6  14
TORSDOF 6
ENDMDL
MODEL 8
REMARK VINA RESULT:      -7.3      3.621      7.774
REMARK  Name = 
REMARK  7 active torsions:
REMARK  status: ('A' for Active; 'I' for Inactive)
REMARK    1  A    between atoms: C_1  and  N_2
REMARK    2  A    between atoms: C_3  and  C_5
REMARK    3  A    between atoms: C_5  and  O_6
REMARK    4  A    between atoms: O_6  and  C_7
REMARK    5  A    between atoms: C_12  and  C_13
REMARK    6  A    between atoms: C_13  and  N_14
REMARK    7  A    between atoms: N_14  and  C_15
REMARK                            x       y       z     vdW  Elec       q    Type
REMARK                         _______ _______ _______ _____ _____    ______ ____
ROOT
ATOM      1  C   UNL     1       3.301   4.986  17.883  0.00  0.00    +0.000 A 
ATOM      2  C   UNL     1       3.079   3.641  17.549  0.00  0.00    +0.000 A 
ATOM      3  C   UNL     1       2.109   2.889  18.215  0.00  0.00    +0.000 A 
ATOM      4  C   UNL     1       1.338   3.475  19.209  0.00  0.00    +0.000 A 
ATOM      5  C   UNL     1       1.527   4.818  19.530  0.00  0.00    +0.000 A 
ATOM      6  C   UNL     1       2.508   5.593  18.877  0.00  0.00    +0.000 A 
ENDROOT
BRANCH   1   7
ATOM      7  O   UNL     1       4.254   5.769  17.281  0.00  0.00    +0.000 OA
BRANCH   7   8
ATOM      8  C   UNL     1       5.417   5.094  16.794  0.00  0.00    +0.000 C 
BRANCH   8  11
ATOM      9  C   UNL     1       7.741   8.004  17.580  0.00  0.00    +0.000 C 
ATOM     10  N   UNL     1       6.647   7.072  17.541  0.00  0.00    +0.000 N 
ATOM     11  C   UNL     1       6.604   6.043  16.629  0.00  0.00    +0.000 C 
ATOM     12  O   UNL     1       7.447   5.884  15.750  0.00  0.00    +0.000 OA
ATOM     13  H   UNL     1       5.909   7.111  18.235  0.00  0.00    +0.000 HD
ENDBRANCH   8  11
ENDBRANCH   7   8
ENDBRANCH   1   7
BRANCH   6  14
ATOM     14  C   UNL     1       2.609   7.065  19.222  0.00  0.00    +0.000 C 
BRANCH  14  15
ATOM     15  N   UNL     1       2.238   7.324  20.622  0.00  0.00    +0.000 NA
ATOM     16  H   UNL     1       3.048   7.736  21.089  0.00  0.00    +0.000 HD
BRANCH  15  17
ATOM     17  C   UNL     1       1.062   8.201  20.773  0.00  0.00    +0.000 C 
ATOM     18  C   UNL     1       1.082   9.257  19.642  0.00  0.00    +0.000 C 
ATOM     19  C   UNL     1      -0.162  10.154  19.684  0.00  0.00    +0.000 C 
ATOM     20  C   UNL     1      -0.447  10.629  21.060  0.00  0.00    +0.000 A 
ATOM     21  N   UNL     1      -1.217  11.618  21.457  0.00  0.00    +0.000 NA
ATOM     22  C   UNL     1      -1.112  11.565  22.822  0.00  0.00    +0.000 A 
ATOM     23  N   UNL     1      -0.329  10.591  23.295  0.00  0.00    +0.000 NA
ATOM     24  N   UNL     1       0.075  10.009  22.155  0.00  0.00    +0.000 N 
ATOM     25  C   UNL     1       1.018   8.914  22.144  0.00  0.00    +0.000 C 
ENDBRANCH  15  17
ENDBRANCH  14  15
ENDBRANCH   6  14
TORSDOF 6
ENDMDL
MODEL 9
REMARK VINA RESULT:      -7.3      3.485      7.727
REMARK  Name = 
REMARK  7 active torsions:
REMARK  status: ('A' for Active; 'I' for Inactive)
REMARK    1  A    between atoms: C_1  and  N_2
REMARK    2  A    between atoms: C_3  and  C_5
REMARK    3  A    between atoms: C_5  and  O_6
REMARK    4  A    between atoms: O_6  and  C_7
REMARK    5  A    between atoms: C_12  and  C_13
REMARK    6  A    between atoms: C_13  and  N_14
REMARK    7  A    between atoms: N_14  and  C_15
REMARK                            x       y       z     vdW  Elec       q    Type
REMARK                         _______ _______ _______ _____ _____    ______ ____
ROOT
ATOM      1  C   UNL     1       2.697   4.152  18.174  0.00  0.00    +0.000 A 
ATOM      2  C   UNL     1       2.118   2.903  17.904  0.00  0.00    +0.000 A 
ATOM      3  C   UNL     1       1.170   2.351  18.767  0.00  0.00    +0.000 A 
ATOM      4  C   UNL     1       0.777   3.046  19.902  0.00  0.00    +0.000 A 
ATOM      5  C   UNL     1       1.322   4.301  20.168  0.00  0.00    +0.000 A 
ATOM      6  C   UNL     1       2.289   4.872  19.314  0.00  0.00    +0.000 A 
ENDROOT
BRANCH   1   7
ATOM      7  O   UNL     1       3.650   4.735  17.377  0.00  0.00    +0.000 OA
BRANCH   7   8
ATOM      8  C   UNL     1       4.883   4.026  17.236  0.00  0.00    +0.000 C 
BRANCH   8  11
ATOM      9  C   UNL     1       7.125   7.090  17.483  0.00  0.00    +0.000 C 
ATOM     10  N   UNL     1       6.112   6.137  17.122  0.00  0.00    +0.000 N 
ATOM     11  C   UNL     1       6.084   4.871  17.660  0.00  0.00    +0.000 C 
ATOM     12  O   UNL     1       6.945   4.442  18.423  0.00  0.00    +0.000 OA
ATOM     13  H   UNL     1       5.348   6.401  16.510  0.00  0.00    +0.000 HD
ENDBRANCH   8  11
ENDBRANCH   7   8
ENDBRANCH   1   7
BRANCH   6  14
ATOM     14  C   UNL     1       2.783   6.272  19.622  0.00  0.00    +0.000 C 
BRANCH  14  15
ATOM     15  N   UNL     1       2.087   6.854  20.780  0.00  0.00    +0.000 NA
ATOM     16  H   UNL     1       2.792   7.099  21.478  0.00  0.00    +0.000 HD
BRANCH  15  17
ATOM     17  C   UNL     1       1.265   8.032  20.450  0.00  0.00    +0.000 C 
ATOM     18  C   UNL     1       1.783   8.642  19.125  0.00  0.00    +0.000 C 
ATOM     19  C   UNL     1       0.918   9.825  18.671  0.00  0.00    +0.000 C 
ATOM     20  C   UNL     1       0.636  10.757  19.790  0.00  0.00    +0.000 A 
ATOM     21  N   UNL     1       0.199  11.996  19.753  0.00  0.00    +0.000 NA
ATOM     22  C   UNL     1       0.105  12.334  21.078  0.00  0.00    +0.000 A 
ATOM     23  N   UNL     1       0.447  11.369  21.936  0.00  0.00    +0.000 NA
ATOM     24  N   UNL     1       0.775  10.378  21.092  0.00  0.00    +0.000 N 
ATOM     25  C   UNL     1       1.288   9.110  21.558  0.00  0.00    +0.000 C 
ENDBRANCH  15  17
ENDBRANCH  14  15
ENDBRANCH   6  14
TORSDOF 6
ENDMDL
